CHEMBL3675520
     RDKit          3D

  0  0  0  0  0  0  0  0  0  0999 V3000
M  V30 BEGIN CTAB
M  V30 COUNTS 58 62 0 0 0
M  V30 BEGIN ATOM
M  V30 1 C 1.626708 -1.544232 3.979097 0
M  V30 2 C 0.730648 -0.331557 3.869262 0
M  V30 3 N 1.190176 0.456575 2.748086 0
M  V30 4 C 2.529951 0.950031 2.795337 0
M  V30 5 N 3.327511 0.690038 3.846246 0
M  V30 6 C 4.590788 1.132532 3.934116 0
M  V30 7 N 5.149012 1.880564 2.953174 0
M  V30 8 C 4.417282 2.182428 1.872200 0
M  V30 9 C 4.920243 2.938104 0.835853 0
M  V30 10 C 6.280412 3.440085 0.882308 0
M  V30 11 N 6.896749 4.214665 -0.126464 0
M  V30 12 O 7.307656 3.457320 1.599033 0
M  V30 13 C 4.213496 3.276426 -0.296190 0
M  V30 14 C 2.910329 2.790488 -0.332327 0
M  V30 15 C 2.400060 2.033238 0.701660 0
M  V30 16 C 3.128502 1.712325 1.817274 0
M  V30 17 C -0.659144 -0.773542 3.574906 0
M  V30 18 C -1.597490 -0.676669 4.592581 0
M  V30 19 C -2.891575 -1.081491 4.334784 0
M  V30 20 C -3.187520 -1.562567 3.077340 0
M  V30 21 C -2.222646 -1.642981 2.089863 0
M  V30 22 N -2.623250 -2.151144 0.825161 0
M  V30 23 C -2.650417 -3.465589 0.287578 0
M  V30 24 O -2.277196 -4.470784 0.943518 0
M  V30 25 C -3.127029 -3.662931 -1.073500 0
M  V30 26 C -3.131364 -4.963750 -1.547014 0
M  V30 27 C -3.571023 -5.254797 -2.839440 0
M  V30 28 C -4.008202 -4.238426 -3.660529 0
M  V30 29 C -4.011412 -2.938416 -3.207548 0
M  V30 30 C -3.569171 -2.688947 -1.923341 0
M  V30 31 O -4.452048 -1.928711 -4.039793 0
M  V30 32 C -4.371026 -2.022154 -5.449999 0
M  V30 33 C -4.394617 -3.423743 -5.968400 0
M  V30 34 O -4.468502 -4.414634 -4.967263 0
M  V30 35 C -0.927530 -1.249844 2.310819 0
M  V30 36 H 2.397560 -1.300260 4.752934 0
M  V30 37 H 1.050338 -2.453220 4.258242 0
M  V30 38 H 2.155885 -1.667674 3.013855 0
M  V30 39 H 0.771053 0.238451 4.823404 0
M  V30 40 H 0.549819 0.634829 1.964111 0
M  V30 41 H 5.211277 0.899177 4.808140 0
M  V30 42 H 6.751122 4.024894 -1.130850 0
M  V30 43 H 6.689509 3.946986 -1.121495 0
M  V30 44 H 4.584348 3.859958 -1.108845 0
M  V30 45 H 2.315794 3.042548 -1.225077 0
M  V30 46 H 1.380021 1.721783 0.545486 0
M  V30 47 H -1.290661 -0.288081 5.555920 0
M  V30 48 H -3.635320 -1.012369 5.116682 0
M  V30 49 H -4.217424 -1.860718 2.946004 0
M  V30 50 H -2.920435 -1.285460 0.325239 0
M  V30 51 H -2.807167 -5.826114 -0.976457 0
M  V30 52 H -3.584433 -6.260916 -3.232739 0
M  V30 53 H -3.568766 -1.671089 -1.561782 0
M  V30 54 H -3.386651 -1.567700 -5.740898 0
M  V30 55 H -5.183043 -1.390988 -5.902446 0
M  V30 56 H -5.327140 -3.531788 -6.591522 0
M  V30 57 H -3.516264 -3.652384 -6.615691 0
M  V30 58 H -0.153174 -1.305627 1.546663 0
M  V30 END ATOM
M  V30 BEGIN BOND
M  V30 1 1 1 2
M  V30 2 1 2 3
M  V30 3 1 3 4
M  V30 4 2 4 5
M  V30 5 1 5 6
M  V30 6 2 6 7
M  V30 7 1 7 8
M  V30 8 2 8 9
M  V30 9 1 9 10
M  V30 10 1 10 11
M  V30 11 2 10 12
M  V30 12 1 9 13
M  V30 13 2 13 14
M  V30 14 1 14 15
M  V30 15 2 15 16
M  V30 16 1 2 17
M  V30 17 2 17 18
M  V30 18 1 18 19
M  V30 19 2 19 20
M  V30 20 1 20 21
M  V30 21 1 21 22
M  V30 22 1 22 23
M  V30 23 2 23 24
M  V30 24 1 23 25
M  V30 25 2 25 26
M  V30 26 1 26 27
M  V30 27 2 27 28
M  V30 28 1 28 29
M  V30 29 2 29 30
M  V30 30 1 29 31
M  V30 31 1 31 32
M  V30 32 1 32 33
M  V30 33 1 33 34
M  V30 34 2 21 35
M  V30 35 1 16 4
M  V30 36 1 35 17
M  V30 37 1 16 8
M  V30 38 1 30 25
M  V30 39 1 34 28
M  V30 40 1 1 36
M  V30 41 1 1 37
M  V30 42 1 1 38
M  V30 43 1 2 39
M  V30 44 1 3 40
M  V30 45 1 6 41
M  V30 46 1 11 42
M  V30 47 1 11 43
M  V30 48 1 13 44
M  V30 49 1 14 45
M  V30 50 1 15 46
M  V30 51 1 18 47
M  V30 52 1 19 48
M  V30 53 1 20 49
M  V30 54 1 22 50
M  V30 55 1 26 51
M  V30 56 1 27 52
M  V30 57 1 30 53
M  V30 58 1 32 54
M  V30 59 1 32 55
M  V30 60 1 33 56
M  V30 61 1 33 57
M  V30 62 1 35 58
M  V30 END BOND
M  V30 END CTAB
M  END
>  <Dataset>  (1) 
ChEMBL_Kinases

>  <Ligand_Instance>  (1) 
nan

>  <PDB_ID>  (1) 
nan

>  <Standardized_SMILES>  (1) 
CC(Nc1ncnc2c(C(N)=O)cccc12)c1cccc(NC(=O)c2ccc3c(c2)OCCO3)c1

>  <Name>  (1) 
nan

>  <Pocket>  (1) 
nan

>  <ATP_Site>  (1) 
nan

>  <Peripheral>  (1) 
nan

>  <Num_H_Atoms_ProtBoundConf>  (1) 
nan

>  <Num_Resolved_Atoms>  (1) 
nan

>  <Num_Not_Resolved_Atoms>  (1) 
nan

$$$$
CHEMBL3685214
     RDKit          3D

  0  0  0  0  0  0  0  0  0  0999 V3000
M  V30 BEGIN CTAB
M  V30 COUNTS 67 71 0 0 0
M  V30 BEGIN ATOM
M  V30 1 N 6.892770 1.211093 4.211832 0
M  V30 2 C 7.092607 -0.008803 3.515453 0
M  V30 3 O 8.281062 -0.414554 3.554233 0
M  V30 4 C 6.015816 -0.700609 2.833040 0
M  V30 5 C 6.294848 -1.886417 2.183634 0
M  V30 6 C 5.330256 -2.605519 1.512527 0
M  V30 7 C 4.017229 -2.123113 1.483205 0
M  V30 8 C 3.772063 -0.943175 2.137133 0
M  V30 9 C 2.496237 -0.421285 2.138427 0
M  V30 10 N 1.424294 -1.083559 1.480816 0
M  V30 11 C 0.081776 -0.522271 1.484507 0
M  V30 12 C 0.030235 0.786704 0.760931 0
M  V30 13 C 0.483662 0.778834 -0.653559 0
M  V30 14 N -0.183776 0.021288 -1.609361 0
M  V30 15 C -1.456835 0.394810 -2.082932 0
M  V30 16 C -2.164592 -0.820959 -2.679418 0
M  V30 17 C -1.405428 -1.142712 -3.966526 0
M  V30 18 C 0.064818 -1.238446 -3.710108 0
M  V30 19 C 0.479592 -1.017163 -2.289559 0
M  V30 20 C -0.995606 -1.473223 1.273101 0
M  V30 21 C -0.617276 -2.767409 1.655533 0
M  V30 22 C -1.538822 -3.820015 1.552523 0
M  V30 23 C -2.806119 -3.561114 1.076082 0
M  V30 24 C -3.218706 -2.297480 0.689681 0
M  V30 25 N -4.517356 -2.045951 0.188776 0
M  V30 26 C -5.399188 -0.945008 0.297300 0
M  V30 27 C -5.254726 0.177477 1.071692 0
M  V30 28 C -6.128938 1.219873 1.126184 0
M  V30 29 C -7.250551 1.162041 0.352534 0
M  V30 30 C -7.413897 0.042069 -0.432126 0
M  V30 31 N -6.517868 -0.953645 -0.444226 0
M  V30 32 C -2.262617 -1.318266 0.817764 0
M  V30 33 N 2.217391 0.740171 2.771256 0
M  V30 34 C 3.198981 1.425054 3.426510 0
M  V30 35 N 4.451638 0.939615 3.441382 0
M  V30 36 C 4.732533 -0.198306 2.823059 0
M  V30 37 H 6.270802 1.966330 4.558590 0
M  V30 38 H 7.621167 1.781275 4.677666 0
M  V30 39 H 7.302226 -2.242278 2.212979 0
M  V30 40 H 5.649372 -3.522380 1.034457 0
M  V30 41 H 3.299067 -2.697801 0.959917 0
M  V30 42 H 1.436096 -1.973657 0.947527 0
M  V30 43 H -0.044738 -0.211046 2.588042 0
M  V30 44 H -1.047765 1.130079 0.815173 0
M  V30 45 H 0.572809 1.592923 1.296937 0
M  V30 46 H 0.485761 1.857292 -1.038645 0
M  V30 47 H 1.592632 0.538669 -0.731635 0
M  V30 48 H -1.398699 1.135091 -2.934475 0
M  V30 49 H -2.157322 0.862202 -1.377200 0
M  V30 50 H -2.222400 -1.676698 -2.013557 0
M  V30 51 H -3.187618 -0.499552 -2.968318 0
M  V30 52 H -1.645474 -0.302082 -4.648388 0
M  V30 53 H -1.832100 -2.056804 -4.446154 0
M  V30 54 H 0.359564 -2.294380 -3.981415 0
M  V30 55 H 0.623875 -0.598592 -4.423175 0
M  V30 56 H 0.305973 -1.986773 -1.737555 0
M  V30 57 H 1.578750 -0.861226 -2.292901 0
M  V30 58 H 0.309008 -3.208806 2.057590 0
M  V30 59 H -1.404104 -4.852866 1.800514 0
M  V30 60 H -3.586147 -4.333017 0.965230 0
M  V30 61 H -4.847289 -2.879063 -0.372649 0
M  V30 62 H -4.389481 0.248942 1.701676 0
M  V30 63 H -5.956694 2.078713 1.759272 0
M  V30 64 H -8.014335 1.919476 0.308071 0
M  V30 65 H -8.304881 -0.033331 -1.064328 0
M  V30 66 H -2.451440 -0.311176 0.561890 0
M  V30 67 H 2.868638 2.340295 3.898340 0
M  V30 END ATOM
M  V30 BEGIN BOND
M  V30 1 1 1 2
M  V30 2 2 2 3
M  V30 3 1 2 4
M  V30 4 2 4 5
M  V30 5 1 5 6
M  V30 6 2 6 7
M  V30 7 1 7 8
M  V30 8 2 8 9
M  V30 9 1 9 10
M  V30 10 1 10 11
M  V30 11 1 11 12
M  V30 12 1 12 13
M  V30 13 1 13 14
M  V30 14 1 14 15
M  V30 15 1 15 16
M  V30 16 1 16 17
M  V30 17 1 17 18
M  V30 18 1 18 19
M  V30 19 1 11 20
M  V30 20 2 20 21
M  V30 21 1 21 22
M  V30 22 2 22 23
M  V30 23 1 23 24
M  V30 24 1 24 25
M  V30 25 1 25 26
M  V30 26 2 26 27
M  V30 27 1 27 28
M  V30 28 2 28 29
M  V30 29 1 29 30
M  V30 30 2 30 31
M  V30 31 2 24 32
M  V30 32 1 9 33
M  V30 33 2 33 34
M  V30 34 1 34 35
M  V30 35 2 35 36
M  V30 36 1 36 4
M  V30 37 1 36 8
M  V30 38 1 19 14
M  V30 39 1 32 20
M  V30 40 1 31 26
M  V30 41 1 1 37
M  V30 42 1 1 38
M  V30 43 1 5 39
M  V30 44 1 6 40
M  V30 45 1 7 41
M  V30 46 1 10 42
M  V30 47 1 11 43
M  V30 48 1 12 44
M  V30 49 1 12 45
M  V30 50 1 13 46
M  V30 51 1 13 47
M  V30 52 1 15 48
M  V30 53 1 15 49
M  V30 54 1 16 50
M  V30 55 1 16 51
M  V30 56 1 17 52
M  V30 57 1 17 53
M  V30 58 1 18 54
M  V30 59 1 18 55
M  V30 60 1 19 56
M  V30 61 1 19 57
M  V30 62 1 21 58
M  V30 63 1 22 59
M  V30 64 1 23 60
M  V30 65 1 25 61
M  V30 66 1 27 62
M  V30 67 1 28 63
M  V30 68 1 29 64
M  V30 69 1 30 65
M  V30 70 1 32 66
M  V30 71 1 34 67
M  V30 END BOND
M  V30 END CTAB
M  END
>  <Dataset>  (2) 
ChEMBL_Kinases

>  <Ligand_Instance>  (2) 
nan

>  <PDB_ID>  (2) 
nan

>  <Standardized_SMILES>  (2) 
NC(=O)c1cccc2c(NC(CCN3CCCCC3)c3cccc(Nc4ccccn4)c3)ncnc12

>  <Name>  (2) 
nan

>  <Pocket>  (2) 
nan

>  <ATP_Site>  (2) 
nan

>  <Peripheral>  (2) 
nan

>  <Num_H_Atoms_ProtBoundConf>  (2) 
nan

>  <Num_Resolved_Atoms>  (2) 
nan

>  <Num_Not_Resolved_Atoms>  (2) 
nan

$$$$
CHEMBL3685213
     RDKit          3D

  0  0  0  0  0  0  0  0  0  0999 V3000
M  V30 BEGIN CTAB
M  V30 COUNTS 48 51 0 0 0
M  V30 BEGIN ATOM
M  V30 1 N 2.500396 -5.549339 1.417967 0
M  V30 2 C 3.564943 -4.785931 1.933478 0
M  V30 3 O 4.349893 -5.274313 2.760181 0
M  V30 4 C 3.684540 -3.417292 1.446211 0
M  V30 5 C 4.705969 -2.620911 1.921258 0
M  V30 6 C 4.900656 -1.296888 1.511862 0
M  V30 7 C 4.026881 -0.749664 0.581324 0
M  V30 8 C 3.012758 -1.561727 0.118632 0
M  V30 9 C 2.103383 -1.092827 -0.809156 0
M  V30 10 N 2.183951 0.245960 -1.314138 0
M  V30 11 C 1.456221 1.313905 -0.672229 0
M  V30 12 C 1.516379 2.626119 -1.099131 0
M  V30 13 C 0.800936 3.597205 -0.452874 0
M  V30 14 C 0.008380 3.251778 0.643014 0
M  V30 15 C -0.088039 1.955003 1.111497 0
M  V30 16 C -0.943106 1.646580 2.277334 0
M  V30 17 N -2.297368 1.331382 1.925330 0
M  V30 18 C -2.814232 0.139965 1.375579 0
M  V30 19 O -1.962150 -0.788100 1.161647 0
M  V30 20 C -4.222421 -0.058784 1.057809 0
M  V30 21 C -5.264244 0.856182 1.233665 0
M  V30 22 C -6.538943 0.507410 0.878260 0
M  V30 23 C -6.892539 -0.709768 0.343909 0
M  V30 24 N -5.874343 -1.585967 0.178771 0
M  V30 25 C -4.610714 -1.274430 0.517963 0
M  V30 26 C 0.658504 1.029184 0.414071 0
M  V30 27 N 1.091223 -1.833636 -1.302447 0
M  V30 28 C 0.941576 -3.113388 -0.875472 0
M  V30 29 N 1.816143 -3.621911 0.041323 0
M  V30 30 C 2.821490 -2.867969 0.523487 0
M  V30 31 H 1.701792 -6.107626 1.058097 0
M  V30 32 H 1.678410 -5.562965 2.092874 0
M  V30 33 H 5.347513 -3.111377 2.642445 0
M  V30 34 H 5.722486 -0.725843 1.923391 0
M  V30 35 H 4.140371 0.275562 0.234475 0
M  V30 36 H 2.753498 0.515471 -2.145978 0
M  V30 37 H 2.152723 2.856645 -1.966974 0
M  V30 38 H 0.859629 4.619024 -0.800168 0
M  V30 39 H -0.533992 4.058996 1.114094 0
M  V30 40 H -0.539156 0.744485 2.815397 0
M  V30 41 H -0.900273 2.461215 3.025158 0
M  V30 42 H -3.006423 2.079725 2.094719 0
M  V30 43 H -4.968584 1.805036 1.653923 0
M  V30 44 H -7.280693 1.291018 1.055155 0
M  V30 45 H -7.895632 -0.947781 0.078675 0
M  V30 46 H -3.859874 -2.048755 0.346578 0
M  V30 47 H 0.628300 -0.012227 0.734309 0
M  V30 48 H 0.107803 -3.655643 -1.310570 0
M  V30 END ATOM
M  V30 BEGIN BOND
M  V30 1 1 1 2
M  V30 2 2 2 3
M  V30 3 1 2 4
M  V30 4 2 4 5
M  V30 5 1 5 6
M  V30 6 2 6 7
M  V30 7 1 7 8
M  V30 8 2 8 9
M  V30 9 1 9 10
M  V30 10 1 10 11
M  V30 11 2 11 12
M  V30 12 1 12 13
M  V30 13 2 13 14
M  V30 14 1 14 15
M  V30 15 1 15 16
M  V30 16 1 16 17
M  V30 17 1 17 18
M  V30 18 2 18 19
M  V30 19 1 18 20
M  V30 20 2 20 21
M  V30 21 1 21 22
M  V30 22 2 22 23
M  V30 23 1 23 24
M  V30 24 2 24 25
M  V30 25 2 15 26
M  V30 26 1 9 27
M  V30 27 2 27 28
M  V30 28 1 28 29
M  V30 29 2 29 30
M  V30 30 1 30 4
M  V30 31 1 30 8
M  V30 32 1 26 11
M  V30 33 1 25 20
M  V30 34 1 1 31
M  V30 35 1 1 32
M  V30 36 1 5 33
M  V30 37 1 6 34
M  V30 38 1 7 35
M  V30 39 1 10 36
M  V30 40 1 12 37
M  V30 41 1 13 38
M  V30 42 1 14 39
M  V30 43 1 16 40
M  V30 44 1 16 41
M  V30 45 1 17 42
M  V30 46 1 21 43
M  V30 47 1 22 44
M  V30 48 1 23 45
M  V30 49 1 25 46
M  V30 50 1 26 47
M  V30 51 1 28 48
M  V30 END BOND
M  V30 END CTAB
M  END
>  <Dataset>  (3) 
ChEMBL_Kinases

>  <Ligand_Instance>  (3) 
nan

>  <PDB_ID>  (3) 
nan

>  <Standardized_SMILES>  (3) 
NC(=O)c1cccc2c(Nc3cccc(CNC(=O)c4cccnc4)c3)ncnc12

>  <Name>  (3) 
nan

>  <Pocket>  (3) 
nan

>  <ATP_Site>  (3) 
nan

>  <Peripheral>  (3) 
nan

>  <Num_H_Atoms_ProtBoundConf>  (3) 
nan

>  <Num_Resolved_Atoms>  (3) 
nan

>  <Num_Not_Resolved_Atoms>  (3) 
nan

$$$$
CHEMBL3685212
     RDKit          3D

  0  0  0  0  0  0  0  0  0  0999 V3000
M  V30 BEGIN CTAB
M  V30 COUNTS 45 48 0 0 0
M  V30 BEGIN ATOM
M  V30 1 N -1.209618 -4.206501 -5.919649 0
M  V30 2 C -1.969465 -4.590888 -4.779100 0
M  V30 3 O -2.600632 -5.679968 -4.800367 0
M  V30 4 C -2.051858 -3.772131 -3.572702 0
M  V30 5 C -2.822757 -4.257015 -2.535070 0
M  V30 6 C -2.883908 -3.453584 -1.393345 0
M  V30 7 C -2.215736 -2.253747 -1.311726 0
M  V30 8 C -1.461799 -1.788398 -2.337688 0
M  V30 9 C -0.805850 -0.580723 -2.220042 0
M  V30 10 N -0.863244 0.242309 -1.061869 0
M  V30 11 C -0.120774 1.497181 -1.069746 0
M  V30 12 C -0.258096 2.262603 0.185748 0
M  V30 13 C -1.326862 3.149145 0.181043 0
M  V30 14 C -1.565190 3.931420 1.307159 0
M  V30 15 C -0.771466 3.856314 2.435335 0
M  V30 16 C 0.282939 2.958414 2.395116 0
M  V30 17 N 1.118395 2.858308 3.542182 0
M  V30 18 C 2.255281 2.039134 3.785879 0
M  V30 19 N 1.970165 0.827360 4.341665 0
M  V30 20 C 2.974730 -0.026146 4.613470 0
M  V30 21 C 4.289825 0.339801 4.323624 0
M  V30 22 C 4.563002 1.567413 3.762130 0
M  V30 23 N 3.537572 2.392928 3.504581 0
M  V30 24 C 0.545721 2.173483 1.303090 0
M  V30 25 N -0.086201 -0.211939 -3.294190 0
M  V30 26 C -0.007519 -0.963200 -4.407736 0
M  V30 27 N -0.651692 -2.148323 -4.522177 0
M  V30 28 C -1.386895 -2.565679 -3.475901 0
M  V30 29 H -1.222332 -3.341014 -6.501072 0
M  V30 30 H -0.464310 -4.721017 -6.424365 0
M  V30 31 H -3.360296 -5.197856 -2.570005 0
M  V30 32 H -3.483856 -3.832997 -0.588407 0
M  V30 33 H -2.319838 -1.702050 -0.394936 0
M  V30 34 H -1.375767 0.061220 -0.194394 0
M  V30 35 H -0.373127 2.087408 -1.959766 0
M  V30 36 H 0.956908 1.207586 -1.156849 0
M  V30 37 H -2.023812 3.313477 -0.619876 0
M  V30 38 H -2.386522 4.640236 1.356609 0
M  V30 39 H -0.980499 4.480434 3.303470 0
M  V30 40 H 0.966036 3.423681 4.388231 0
M  V30 41 H 2.735198 -0.978605 5.051849 0
M  V30 42 H 5.034815 -0.385083 4.565220 0
M  V30 43 H 5.582118 1.850357 3.537814 0
M  V30 44 H 1.358677 1.462593 1.236165 0
M  V30 45 H 0.620195 -0.510558 -5.179873 0
M  V30 END ATOM
M  V30 BEGIN BOND
M  V30 1 1 1 2
M  V30 2 2 2 3
M  V30 3 1 2 4
M  V30 4 2 4 5
M  V30 5 1 5 6
M  V30 6 2 6 7
M  V30 7 1 7 8
M  V30 8 2 8 9
M  V30 9 1 9 10
M  V30 10 1 10 11
M  V30 11 1 11 12
M  V30 12 2 12 13
M  V30 13 1 13 14
M  V30 14 2 14 15
M  V30 15 1 15 16
M  V30 16 1 16 17
M  V30 17 1 17 18
M  V30 18 2 18 19
M  V30 19 1 19 20
M  V30 20 2 20 21
M  V30 21 1 21 22
M  V30 22 2 22 23
M  V30 23 2 16 24
M  V30 24 1 9 25
M  V30 25 2 25 26
M  V30 26 1 26 27
M  V30 27 2 27 28
M  V30 28 1 28 4
M  V30 29 1 28 8
M  V30 30 1 24 12
M  V30 31 1 23 18
M  V30 32 1 1 29
M  V30 33 1 1 30
M  V30 34 1 5 31
M  V30 35 1 6 32
M  V30 36 1 7 33
M  V30 37 1 10 34
M  V30 38 1 11 35
M  V30 39 1 11 36
M  V30 40 1 13 37
M  V30 41 1 14 38
M  V30 42 1 15 39
M  V30 43 1 17 40
M  V30 44 1 20 41
M  V30 45 1 21 42
M  V30 46 1 22 43
M  V30 47 1 24 44
M  V30 48 1 26 45
M  V30 END BOND
M  V30 END CTAB
M  END
>  <Dataset>  (4) 
ChEMBL_Kinases

>  <Ligand_Instance>  (4) 
nan

>  <PDB_ID>  (4) 
nan

>  <Standardized_SMILES>  (4) 
NC(=O)c1cccc2c(NCc3cccc(Nc4ncccn4)c3)ncnc12

>  <Name>  (4) 
nan

>  <Pocket>  (4) 
nan

>  <ATP_Site>  (4) 
nan

>  <Peripheral>  (4) 
nan

>  <Num_H_Atoms_ProtBoundConf>  (4) 
nan

>  <Num_Resolved_Atoms>  (4) 
nan

>  <Num_Not_Resolved_Atoms>  (4) 
nan

$$$$
CHEMBL3685210
     RDKit          3D

  0  0  0  0  0  0  0  0  0  0999 V3000
M  V30 BEGIN CTAB
M  V30 COUNTS 55 59 0 0 0
M  V30 BEGIN ATOM
M  V30 1 N 4.652380 1.195439 5.662518 0
M  V30 2 C 5.022962 -0.094496 5.219525 0
M  V30 3 O 5.636207 -0.821096 6.044031 0
M  V30 4 C 4.697743 -0.523880 3.881266 0
M  V30 5 C 5.069577 -1.780030 3.482584 0
M  V30 6 C 4.750849 -2.173247 2.195962 0
M  V30 7 C 4.071235 -1.360416 1.281459 0
M  V30 8 C 3.738295 -0.125992 1.757960 0
M  V30 9 C 3.062987 0.743051 0.913991 0
M  V30 10 N 2.684058 0.444291 -0.433064 0
M  V30 11 C 1.979895 1.303958 -1.365554 0
M  V30 12 C 0.633538 1.700473 -0.888181 0
M  V30 13 C 0.283156 2.837434 -0.219432 0
M  V30 14 C -0.980422 3.163285 0.220019 0
M  V30 15 C -1.996270 2.250605 -0.041579 0
M  V30 16 C -1.699196 1.075297 -0.719811 0
M  V30 17 N -2.791602 0.168757 -0.962154 0
M  V30 18 C -3.798247 -0.129127 -1.912214 0
M  V30 19 O -3.969621 0.492005 -2.984189 0
M  V30 20 C -4.660961 -1.263600 -1.534131 0
M  V30 21 C -5.989657 -1.215009 -1.167719 0
M  V30 22 N -6.397555 -2.475210 -0.900273 0
M  V30 23 N -5.373600 -3.313272 -1.085494 0
M  V30 24 C -4.305587 -2.596412 -1.471838 0
M  V30 25 C -2.986460 -3.229056 -1.764094 0
M  V30 26 N -3.143082 -4.658285 -1.921581 0
M  V30 27 C -3.962063 -5.235592 -0.878468 0
M  V30 28 C -5.386834 -4.763601 -0.905994 0
M  V30 29 C -0.413682 0.814872 -1.129013 0
M  V30 30 N 2.750181 1.938551 1.403036 0
M  V30 31 C 3.026933 2.385232 2.639178 0
M  V30 32 N 3.679349 1.540211 3.447400 0
M  V30 33 C 4.028931 0.315825 3.024328 0
M  V30 34 H 4.419266 2.147211 5.950537 0
M  V30 35 H 3.903387 1.059933 6.376625 0
M  V30 36 H 5.583229 -2.366589 4.204043 0
M  V30 37 H 5.052014 -3.179758 1.886121 0
M  V30 38 H 3.865607 -1.744753 0.307174 0
M  V30 39 H 2.935155 -0.492665 -0.806411 0
M  V30 40 H 2.602513 2.198995 -1.611829 0
M  V30 41 H 1.831231 0.739527 -2.305847 0
M  V30 42 H 1.060236 3.555360 -0.023734 0
M  V30 43 H -1.150322 4.093212 0.741301 0
M  V30 44 H -2.989576 2.531132 0.316113 0
M  V30 45 H -2.672011 -0.381644 -0.059009 0
M  V30 46 H -6.613703 -0.332081 -1.099501 0
M  V30 47 H -2.226795 -3.031522 -0.981536 0
M  V30 48 H -2.533321 -2.851086 -2.713267 0
M  V30 49 H -2.220676 -5.134534 -1.889097 0
M  V30 50 H -3.947512 -6.335919 -1.018737 0
M  V30 51 H -3.528737 -5.061197 0.142589 0
M  V30 52 H -6.022467 -5.272188 -1.645069 0
M  V30 53 H -5.832144 -4.934455 0.094938 0
M  V30 54 H -0.246537 -0.110751 -1.649460 0
M  V30 55 H 2.762808 3.351874 3.002827 0
M  V30 END ATOM
M  V30 BEGIN BOND
M  V30 1 1 1 2
M  V30 2 2 2 3
M  V30 3 1 2 4
M  V30 4 2 4 5
M  V30 5 1 5 6
M  V30 6 2 6 7
M  V30 7 1 7 8
M  V30 8 2 8 9
M  V30 9 1 9 10
M  V30 10 1 10 11
M  V30 11 1 11 12
M  V30 12 2 12 13
M  V30 13 1 13 14
M  V30 14 2 14 15
M  V30 15 1 15 16
M  V30 16 1 16 17
M  V30 17 1 17 18
M  V30 18 2 18 19
M  V30 19 1 18 20
M  V30 20 1 20 21
M  V30 21 2 21 22
M  V30 22 1 22 23
M  V30 23 1 23 24
M  V30 24 1 24 25
M  V30 25 1 25 26
M  V30 26 1 26 27
M  V30 27 1 27 28
M  V30 28 2 16 29
M  V30 29 1 9 30
M  V30 30 2 30 31
M  V30 31 1 31 32
M  V30 32 2 32 33
M  V30 33 1 33 4
M  V30 34 1 33 8
M  V30 35 1 29 12
M  V30 36 2 24 20
M  V30 37 1 28 23
M  V30 38 1 1 34
M  V30 39 1 1 35
M  V30 40 1 5 36
M  V30 41 1 6 37
M  V30 42 1 7 38
M  V30 43 1 10 39
M  V30 44 1 11 40
M  V30 45 1 11 41
M  V30 46 1 13 42
M  V30 47 1 14 43
M  V30 48 1 15 44
M  V30 49 1 17 45
M  V30 50 1 21 46
M  V30 51 1 25 47
M  V30 52 1 25 48
M  V30 53 1 26 49
M  V30 54 1 27 50
M  V30 55 1 27 51
M  V30 56 1 28 52
M  V30 57 1 28 53
M  V30 58 1 29 54
M  V30 59 1 31 55
M  V30 END BOND
M  V30 END CTAB
M  END
>  <Dataset>  (5) 
ChEMBL_Kinases

>  <Ligand_Instance>  (5) 
nan

>  <PDB_ID>  (5) 
nan

>  <Standardized_SMILES>  (5) 
NC(=O)c1cccc2c(NCc3cccc(NC(=O)c4cnn5c4CNCC5)c3)ncnc12

>  <Name>  (5) 
nan

>  <Pocket>  (5) 
nan

>  <ATP_Site>  (5) 
nan

>  <Peripheral>  (5) 
nan

>  <Num_H_Atoms_ProtBoundConf>  (5) 
nan

>  <Num_Resolved_Atoms>  (5) 
nan

>  <Num_Not_Resolved_Atoms>  (5) 
nan

$$$$
CHEMBL3675525
     RDKit          3D

  0  0  0  0  0  0  0  0  0  0999 V3000
M  V30 BEGIN CTAB
M  V30 COUNTS 54 57 0 0 0
M  V30 BEGIN ATOM
M  V30 1 N 2.519588 -2.548032 4.556984 0
M  V30 2 C 3.475011 -1.509372 4.576608 0
M  V30 3 O 3.898323 -1.860380 5.691659 0
M  V30 4 C 3.624515 -0.552731 3.496749 0
M  V30 5 C 4.598788 0.407545 3.636903 0
M  V30 6 C 4.690248 1.295156 2.564837 0
M  V30 7 C 3.849905 1.177308 1.477278 0
M  V30 8 C 2.903489 0.201058 1.400264 0
M  V30 9 C 2.056252 0.076152 0.314764 0
M  V30 10 N 2.136323 0.950336 -0.790707 0
M  V30 11 C 1.355756 0.998663 -2.005831 0
M  V30 12 C -0.075061 1.329860 -1.787331 0
M  V30 13 C -0.251465 2.705017 -1.681498 0
M  V30 14 C -1.485514 3.285145 -1.502819 0
M  V30 15 C -2.587685 2.469694 -1.426725 0
M  V30 16 C -2.453605 1.078870 -1.529422 0
M  V30 17 N -3.580273 0.215006 -1.484646 0
M  V30 18 C -3.713524 -1.216729 -1.571422 0
M  V30 19 O -3.083955 -1.654669 -2.745770 0
M  V30 20 C -3.236885 -1.958134 -0.385908 0
M  V30 21 C -2.491462 -3.098466 -0.611995 0
M  V30 22 C -2.084022 -3.784490 0.501377 0
M  V30 23 C -1.280427 -5.018186 0.315237 0
M  V30 24 F -0.669003 -5.299559 1.521983 0
M  V30 25 F -2.091273 -6.083454 -0.086849 0
M  V30 26 F -0.305273 -4.826843 -0.650784 0
M  V30 27 C -2.422251 -3.325921 1.777108 0
M  V30 28 C -3.170485 -2.177597 1.951176 0
M  V30 29 C -3.592961 -1.469024 0.845579 0
M  V30 30 F -4.318192 -0.357207 1.035730 0
M  V30 31 C -1.198165 0.540128 -1.706779 0
M  V30 32 N 1.128393 -0.898251 0.266127 0
M  V30 33 C 1.017954 -1.773195 1.292297 0
M  V30 34 N 1.840686 -1.654248 2.349383 0
M  V30 35 C 2.771127 -0.700933 2.431193 0
M  V30 36 H 1.822524 -3.306399 4.543247 0
M  V30 37 H 1.710144 -3.112020 4.221874 0
M  V30 38 H 5.171839 0.376346 4.529957 0
M  V30 39 H 5.463553 2.061370 2.670592 0
M  V30 40 H 3.999845 1.908570 0.705655 0
M  V30 41 H 2.839719 1.716572 -0.826041 0
M  V30 42 H 1.745718 1.660524 -2.785655 0
M  V30 43 H 1.394942 -0.054172 -2.430048 0
M  V30 44 H 0.538444 3.465839 -1.725701 0
M  V30 45 H -1.668376 4.347403 -1.415090 0
M  V30 46 H -3.584758 2.915545 -1.283638 0
M  V30 47 H -4.493330 0.758284 -1.359957 0
M  V30 48 H -4.828692 -1.437674 -1.654444 0
M  V30 49 H -3.680199 -1.427476 -3.503356 0
M  V30 50 H -2.232099 -3.449149 -1.601992 0
M  V30 51 H -2.087570 -3.887508 2.645687 0
M  V30 52 H -3.384009 -1.899333 2.989322 0
M  V30 53 H -0.969379 -0.510164 -1.797591 0
M  V30 54 H 0.357764 -2.612532 1.451130 0
M  V30 END ATOM
M  V30 BEGIN BOND
M  V30 1 1 1 2
M  V30 2 2 2 3
M  V30 3 1 2 4
M  V30 4 2 4 5
M  V30 5 1 5 6
M  V30 6 2 6 7
M  V30 7 1 7 8
M  V30 8 2 8 9
M  V30 9 1 9 10
M  V30 10 1 10 11
M  V30 11 1 11 12
M  V30 12 2 12 13
M  V30 13 1 13 14
M  V30 14 2 14 15
M  V30 15 1 15 16
M  V30 16 1 16 17
M  V30 17 1 17 18
M  V30 18 1 18 19
M  V30 19 1 18 20
M  V30 20 2 20 21
M  V30 21 1 21 22
M  V30 22 1 22 23
M  V30 23 1 23 24
M  V30 24 1 23 25
M  V30 25 1 23 26
M  V30 26 2 22 27
M  V30 27 1 27 28
M  V30 28 2 28 29
M  V30 29 1 29 30
M  V30 30 2 16 31
M  V30 31 1 9 32
M  V30 32 2 32 33
M  V30 33 1 33 34
M  V30 34 2 34 35
M  V30 35 1 35 4
M  V30 36 1 35 8
M  V30 37 1 31 12
M  V30 38 1 29 20
M  V30 39 1 1 36
M  V30 40 1 1 37
M  V30 41 1 5 38
M  V30 42 1 6 39
M  V30 43 1 7 40
M  V30 44 1 10 41
M  V30 45 1 11 42
M  V30 46 1 11 43
M  V30 47 1 13 44
M  V30 48 1 14 45
M  V30 49 1 15 46
M  V30 50 1 17 47
M  V30 51 1 18 48
M  V30 52 1 19 49
M  V30 53 1 21 50
M  V30 54 1 27 51
M  V30 55 1 28 52
M  V30 56 1 31 53
M  V30 57 1 33 54
M  V30 END BOND
M  V30 END CTAB
M  END
>  <Dataset>  (6) 
ChEMBL_Kinases

>  <Ligand_Instance>  (6) 
nan

>  <PDB_ID>  (6) 
nan

>  <Standardized_SMILES>  (6) 
NC(=O)c1cccc2c(NCc3cccc(NC(O)c4cc(C(F)(F)F)ccc4F)c3)ncnc12

>  <Name>  (6) 
nan

>  <Pocket>  (6) 
nan

>  <ATP_Site>  (6) 
nan

>  <Peripheral>  (6) 
nan

>  <Num_H_Atoms_ProtBoundConf>  (6) 
nan

>  <Num_Resolved_Atoms>  (6) 
nan

>  <Num_Not_Resolved_Atoms>  (6) 
nan

$$$$
CHEMBL3729044
     RDKit          3D

  0  0  0  0  0  0  0  0  0  0999 V3000
M  V30 BEGIN CTAB
M  V30 COUNTS 40 41 0 0 0
M  V30 BEGIN ATOM
M  V30 1 C -3.281746 -6.431153 -0.228123 0
M  V30 2 O -1.907424 -6.300619 -0.042332 0
M  V30 3 C -1.264758 -5.100730 -0.261418 0
M  V30 4 C 0.097241 -5.169856 -0.023776 0
M  V30 5 C 0.905245 -4.068537 -0.189610 0
M  V30 6 C 0.352425 -2.852390 -0.605156 0
M  V30 7 C -0.998633 -2.779562 -0.842044 0
M  V30 8 N -1.589517 -1.554830 -1.262430 0
M  V30 9 C -0.780115 -0.365600 -1.436633 0
M  V30 10 C -0.126835 0.059735 -0.146945 0
M  V30 11 O -0.027711 -0.259642 1.087132 0
M  V30 12 N 0.688137 1.240132 -0.296232 0
M  V30 13 N 1.302664 1.637351 0.922395 0
M  V30 14 C 1.422055 2.857511 1.256154 0
M  V30 15 C 0.959033 4.043686 0.464829 0
M  V30 16 C 2.070340 3.138796 2.531534 0
M  V30 17 C 2.541991 2.143254 3.358041 0
M  V30 18 C 3.165301 2.307712 4.575460 0
M  V30 19 N 3.331598 3.563877 5.002558 0
M  V30 20 C 2.893694 4.596264 4.244080 0
M  V30 21 C 2.269117 4.427497 3.023954 0
M  V30 22 C -1.779359 -3.890870 -0.669209 0
M  V30 23 H -3.426704 -6.778462 -1.288806 0
M  V30 24 H -3.699479 -7.220853 0.463015 0
M  V30 25 H -3.844486 -5.503461 -0.115575 0
M  V30 26 H 0.623687 -6.071129 0.303080 0
M  V30 27 H 1.978540 -4.116044 -0.004233 0
M  V30 28 H 1.025570 -2.033484 -0.718936 0
M  V30 29 H -2.633789 -1.524457 -1.447040 0
M  V30 30 H 0.027387 -0.592178 -2.154674 0
M  V30 31 H -1.433009 0.453980 -1.742507 0
M  V30 32 H 0.839799 1.781277 -1.200160 0
M  V30 33 H 0.394166 4.753486 1.108295 0
M  V30 34 H 1.817221 4.520371 -0.036599 0
M  V30 35 H 0.250258 3.695873 -0.314358 0
M  V30 36 H 2.412514 1.119224 3.021234 0
M  V30 37 H 3.500906 1.464308 5.152044 0
M  V30 38 H 3.051211 5.603200 4.633331 0
M  V30 39 H 1.922831 5.254940 2.425358 0
M  V30 40 H -2.845889 -3.897064 -0.839868 0
M  V30 END ATOM
M  V30 BEGIN BOND
M  V30 1 1 1 2
M  V30 2 1 2 3
M  V30 3 2 3 4
M  V30 4 1 4 5
M  V30 5 2 5 6
M  V30 6 1 6 7
M  V30 7 1 7 8
M  V30 8 1 8 9
M  V30 9 1 9 10
M  V30 10 2 10 11
M  V30 11 1 10 12
M  V30 12 1 12 13
M  V30 13 2 13 14
M  V30 14 1 14 15
M  V30 15 1 14 16
M  V30 16 2 16 17
M  V30 17 1 17 18
M  V30 18 2 18 19
M  V30 19 1 19 20
M  V30 20 2 20 21
M  V30 21 2 7 22
M  V30 22 1 22 3
M  V30 23 1 21 16
M  V30 24 1 1 23
M  V30 25 1 1 24
M  V30 26 1 1 25
M  V30 27 1 4 26
M  V30 28 1 5 27
M  V30 29 1 6 28
M  V30 30 1 8 29
M  V30 31 1 9 30
M  V30 32 1 9 31
M  V30 33 1 12 32
M  V30 34 1 15 33
M  V30 35 1 15 34
M  V30 36 1 15 35
M  V30 37 1 17 36
M  V30 38 1 18 37
M  V30 39 1 20 38
M  V30 40 1 21 39
M  V30 41 1 22 40
M  V30 END BOND
M  V30 END CTAB
M  END
>  <Dataset>  (7) 
ChEMBL_Kinases

>  <Ligand_Instance>  (7) 
nan

>  <PDB_ID>  (7) 
nan

>  <Standardized_SMILES>  (7) 
COc1cccc(NCC(=O)N/N=C(\C)c2ccncc2)c1

>  <Name>  (7) 
nan

>  <Pocket>  (7) 
nan

>  <ATP_Site>  (7) 
nan

>  <Peripheral>  (7) 
nan

>  <Num_H_Atoms_ProtBoundConf>  (7) 
nan

>  <Num_Resolved_Atoms>  (7) 
nan

>  <Num_Not_Resolved_Atoms>  (7) 
nan

$$$$
CHEMBL3729247
     RDKit          3D

  0  0  0  0  0  0  0  0  0  0999 V3000
M  V30 BEGIN CTAB
M  V30 COUNTS 40 41 0 0 0
M  V30 BEGIN ATOM
M  V30 1 C 0.590972 -5.533525 1.308530 0
M  V30 2 N 0.745949 -4.398607 0.432589 0
M  V30 3 C 1.640032 -4.278542 -0.658117 0
M  V30 4 O 2.393247 -5.234683 -0.924667 0
M  V30 5 C 1.753431 -3.125599 -1.498474 0
M  V30 6 C 2.609623 -3.024447 -2.553524 0
M  V30 7 C 2.756562 -1.943955 -3.392096 0
M  V30 8 C 1.904037 -0.863424 -3.070866 0
M  V30 9 C 1.007147 -0.938699 -1.983113 0
M  V30 10 N 0.392336 0.321448 -2.051615 0
M  V30 11 C -0.316521 1.537486 -1.985929 0
M  V30 12 C -0.367376 2.250293 -0.679568 0
M  V30 13 O -1.023204 3.332740 -0.754642 0
M  V30 14 N 0.272011 1.699212 0.463880 0
M  V30 15 N 0.145468 2.457076 1.645501 0
M  V30 16 C -0.516216 1.915865 2.626928 0
M  V30 17 C -0.980119 2.149777 4.016573 0
M  V30 18 C -2.119852 2.899809 4.105946 0
M  V30 19 Cl -2.955877 3.533444 2.696950 0
M  V30 20 C -2.523949 3.092803 5.407078 0
M  V30 21 N -1.856600 2.591936 6.478384 0
M  V30 22 C -0.755571 1.872711 6.292923 0
M  V30 23 C -0.229101 1.593402 5.034178 0
M  V30 24 Cl 1.186703 0.676863 4.649621 0
M  V30 25 C 0.950860 -2.061666 -1.224194 0
M  V30 26 H -0.483924 -5.834549 1.276128 0
M  V30 27 H 1.203427 -6.408298 0.996892 0
M  V30 28 H 0.809700 -5.192796 2.344700 0
M  V30 29 H 0.102933 -3.645502 0.697596 0
M  V30 30 H 3.216109 -3.893091 -2.711752 0
M  V30 31 H 3.479592 -2.023552 -4.188082 0
M  V30 32 H 2.120161 -0.064871 -3.811068 0
M  V30 33 H -0.245300 0.088094 -1.227317 0
M  V30 34 H -1.353883 1.480693 -2.405734 0
M  V30 35 H 0.208714 2.277107 -2.710843 0
M  V30 36 H 0.771844 0.777270 0.363720 0
M  V30 37 H -0.921220 0.901670 2.449784 0
M  V30 38 H -3.443983 3.687917 5.565601 0
M  V30 39 H -0.184602 1.441226 7.122356 0
M  V30 40 H 0.219921 -1.961481 -0.438432 0
M  V30 END ATOM
M  V30 BEGIN BOND
M  V30 1 1 1 2
M  V30 2 1 2 3
M  V30 3 2 3 4
M  V30 4 1 3 5
M  V30 5 2 5 6
M  V30 6 1 6 7
M  V30 7 2 7 8
M  V30 8 1 8 9
M  V30 9 1 9 10
M  V30 10 1 10 11
M  V30 11 1 11 12
M  V30 12 2 12 13
M  V30 13 1 12 14
M  V30 14 1 14 15
M  V30 15 2 15 16
M  V30 16 1 16 17
M  V30 17 2 17 18
M  V30 18 1 18 19
M  V30 19 1 18 20
M  V30 20 2 20 21
M  V30 21 1 21 22
M  V30 22 2 22 23
M  V30 23 1 23 24
M  V30 24 2 9 25
M  V30 25 1 25 5
M  V30 26 1 23 17
M  V30 27 1 1 26
M  V30 28 1 1 27
M  V30 29 1 1 28
M  V30 30 1 2 29
M  V30 31 1 6 30
M  V30 32 1 7 31
M  V30 33 1 8 32
M  V30 34 1 10 33
M  V30 35 1 11 34
M  V30 36 1 11 35
M  V30 37 1 14 36
M  V30 38 1 16 37
M  V30 39 1 20 38
M  V30 40 1 22 39
M  V30 41 1 25 40
M  V30 END BOND
M  V30 END CTAB
M  END
>  <Dataset>  (8) 
ChEMBL_Kinases

>  <Ligand_Instance>  (8) 
nan

>  <PDB_ID>  (8) 
nan

>  <Standardized_SMILES>  (8) 
CNC(=O)c1cccc(NCC(=O)N/N=C/c2c(Cl)cncc2Cl)c1

>  <Name>  (8) 
nan

>  <Pocket>  (8) 
nan

>  <ATP_Site>  (8) 
nan

>  <Peripheral>  (8) 
nan

>  <Num_H_Atoms_ProtBoundConf>  (8) 
nan

>  <Num_Resolved_Atoms>  (8) 
nan

>  <Num_Not_Resolved_Atoms>  (8) 
nan

$$$$
CHEMBL3729453
     RDKit          3D

  0  0  0  0  0  0  0  0  0  0999 V3000
M  V30 BEGIN CTAB
M  V30 COUNTS 37 38 0 0 0
M  V30 BEGIN ATOM
M  V30 1 N 4.710009 -4.318769 3.830290 0
M  V30 2 C 3.745256 -4.685351 2.853421 0
M  V30 3 O 3.435107 -5.889260 2.754728 0
M  V30 4 C 3.101911 -3.725528 1.963196 0
M  V30 5 C 2.184561 -4.208296 1.060937 0
M  V30 6 C 1.539723 -3.349716 0.189071 0
M  V30 7 C 1.854533 -2.009872 0.265781 0
M  V30 8 C 2.761766 -1.467472 1.145330 0
M  V30 9 N 3.069767 -0.082496 1.209070 0
M  V30 10 C 2.429146 0.878334 0.338042 0
M  V30 11 C 0.963538 0.834200 0.630803 0
M  V30 12 O 0.061589 0.317078 1.312305 0
M  V30 13 N 0.308838 1.785544 -0.232011 0
M  V30 14 N -1.090537 2.017333 -0.232769 0
M  V30 15 C -1.919778 1.247904 -0.807104 0
M  V30 16 C -3.349304 1.542635 -0.771207 0
M  V30 17 C -3.766972 2.672851 -0.099935 0
M  V30 18 C -5.123431 2.912269 -0.091363 0
M  V30 19 N -6.049869 2.117770 -0.691815 0
M  V30 20 C -5.636547 0.999137 -1.356214 0
M  V30 21 C -4.277309 0.729320 -1.383732 0
M  V30 22 C 3.362241 -2.379599 1.979491 0
M  V30 23 H 5.772921 -4.318266 3.850866 0
M  V30 24 H 3.947081 -4.052209 4.514095 0
M  V30 25 H 1.910980 -5.268297 0.973564 0
M  V30 26 H 0.806427 -3.715499 -0.536153 0
M  V30 27 H 1.333300 -1.370144 -0.431205 0
M  V30 28 H 3.778146 0.228753 1.908154 0
M  V30 29 H 2.849155 1.882328 0.531172 0
M  V30 30 H 2.646006 0.598293 -0.691191 0
M  V30 31 H 0.594495 2.476010 -0.986753 0
M  V30 32 H -1.545965 0.369276 -1.323776 0
M  V30 33 H -3.109981 3.349261 0.397386 0
M  V30 34 H -5.504093 3.797879 0.429008 0
M  V30 35 H -6.353431 0.336714 -1.850992 0
M  V30 36 H -3.932544 -0.164662 -1.913173 0
M  V30 37 H 4.090913 -2.043878 2.705654 0
M  V30 END ATOM
M  V30 BEGIN BOND
M  V30 1 1 1 2
M  V30 2 2 2 3
M  V30 3 1 2 4
M  V30 4 2 4 5
M  V30 5 1 5 6
M  V30 6 2 6 7
M  V30 7 1 7 8
M  V30 8 1 8 9
M  V30 9 1 9 10
M  V30 10 1 10 11
M  V30 11 2 11 12
M  V30 12 1 11 13
M  V30 13 1 13 14
M  V30 14 2 14 15
M  V30 15 1 15 16
M  V30 16 2 16 17
M  V30 17 1 17 18
M  V30 18 2 18 19
M  V30 19 1 19 20
M  V30 20 2 20 21
M  V30 21 2 8 22
M  V30 22 1 22 4
M  V30 23 1 21 16
M  V30 24 1 1 23
M  V30 25 1 1 24
M  V30 26 1 5 25
M  V30 27 1 6 26
M  V30 28 1 7 27
M  V30 29 1 9 28
M  V30 30 1 10 29
M  V30 31 1 10 30
M  V30 32 1 13 31
M  V30 33 1 15 32
M  V30 34 1 17 33
M  V30 35 1 18 34
M  V30 36 1 20 35
M  V30 37 1 21 36
M  V30 38 1 22 37
M  V30 END BOND
M  V30 END CTAB
M  END
>  <Dataset>  (9) 
ChEMBL_Kinases

>  <Ligand_Instance>  (9) 
nan

>  <PDB_ID>  (9) 
nan

>  <Standardized_SMILES>  (9) 
NC(=O)c1cccc(NCC(=O)N/N=C/c2ccncc2)c1

>  <Name>  (9) 
nan

>  <Pocket>  (9) 
nan

>  <ATP_Site>  (9) 
nan

>  <Peripheral>  (9) 
nan

>  <Num_H_Atoms_ProtBoundConf>  (9) 
nan

>  <Num_Resolved_Atoms>  (9) 
nan

>  <Num_Not_Resolved_Atoms>  (9) 
nan

$$$$
CHEMBL3685216
     RDKit          3D

  0  0  0  0  0  0  0  0  0  0999 V3000
M  V30 BEGIN CTAB
M  V30 COUNTS 57 61 0 0 0
M  V30 BEGIN ATOM
M  V30 1 C 7.174728 -2.956981 5.226084 0
M  V30 2 O 6.296804 -3.397027 4.218436 0
M  V30 3 C 5.456267 -2.561767 3.521182 0
M  V30 4 C 5.412437 -1.194073 3.767734 0
M  V30 5 C 4.552907 -0.361369 3.050538 0
M  V30 6 C 3.754522 -0.956419 2.091766 0
M  V30 7 C 2.791978 -0.222641 1.241496 0
M  V30 8 O 2.043486 -0.765665 0.358946 0
M  V30 9 N 2.578483 1.185908 1.300049 0
M  V30 10 C 1.569650 1.494804 0.315952 0
M  V30 11 C 2.108348 1.779294 -0.920881 0
M  V30 12 C 1.270510 2.097110 -1.979924 0
M  V30 13 C -0.084627 2.112205 -1.735039 0
M  V30 14 C -0.618745 1.826745 -0.495004 0
M  V30 15 C 0.216079 1.504993 0.579842 0
M  V30 16 C -2.084181 1.851683 -0.254524 0
M  V30 17 N -2.686919 1.041601 -1.320138 0
M  V30 18 C -3.659179 0.008162 -1.399853 0
M  V30 19 N -4.779028 0.309114 -2.110253 0
M  V30 20 C -5.780011 -0.583587 -2.251390 0
M  V30 21 N -5.692407 -1.801426 -1.688203 0
M  V30 22 C -4.600625 -2.115257 -0.987164 0
M  V30 23 C -4.420363 -3.338590 -0.373842 0
M  V30 24 C -5.497192 -4.299690 -0.528317 0
M  V30 25 N -6.675438 -4.053048 -1.269579 0
M  V30 26 O -5.834671 -5.460720 -0.198086 0
M  V30 27 C -3.317156 -3.713103 0.358162 0
M  V30 28 C -2.297275 -2.766754 0.485770 0
M  V30 29 C -2.431991 -1.528049 -0.110294 0
M  V30 30 C -3.554145 -1.236083 -0.816808 0
M  V30 31 C -2.207460 1.318264 -2.681341 0
M  V30 32 C -1.172362 2.419433 -2.706781 0
M  V30 33 C 3.798470 -2.318999 1.846497 0
M  V30 34 C 4.636747 -3.129643 2.546270 0
M  V30 35 H 6.577152 -2.269208 5.885984 0
M  V30 36 H 8.025396 -2.345654 4.851293 0
M  V30 37 H 7.578052 -3.814930 5.802931 0
M  V30 38 H 6.038105 -0.738038 4.517016 0
M  V30 39 H 4.460787 0.705456 3.182934 0
M  V30 40 H 3.154102 1.733983 2.004310 0
M  V30 41 H 3.165396 1.777803 -1.151001 0
M  V30 42 H 1.554039 2.335894 -2.980199 0
M  V30 43 H -0.118434 1.269118 1.580287 0
M  V30 44 H -2.322716 1.345638 0.699638 0
M  V30 45 H -2.488220 2.886406 -0.282031 0
M  V30 46 H -6.685201 -0.338198 -2.826386 0
M  V30 47 H -7.665673 -3.704814 -1.182563 0
M  V30 48 H -7.662459 -3.705395 -1.180124 0
M  V30 49 H -3.281886 -4.703404 0.796806 0
M  V30 50 H -1.449518 -3.090090 1.063336 0
M  V30 51 H -1.646106 -0.826166 -0.003590 0
M  V30 52 H -1.739448 0.384957 -3.037904 0
M  V30 53 H -3.072412 1.549033 -3.324941 0
M  V30 54 H -0.794281 2.450875 -3.749089 0
M  V30 55 H -1.679702 3.384034 -2.508298 0
M  V30 56 H 3.166662 -2.799298 1.085911 0
M  V30 57 H 4.680739 -4.190180 2.365467 0
M  V30 END ATOM
M  V30 BEGIN BOND
M  V30 1 1 1 2
M  V30 2 1 2 3
M  V30 3 2 3 4
M  V30 4 1 4 5
M  V30 5 2 5 6
M  V30 6 1 6 7
M  V30 7 2 7 8
M  V30 8 1 7 9
M  V30 9 1 9 10
M  V30 10 2 10 11
M  V30 11 1 11 12
M  V30 12 2 12 13
M  V30 13 1 13 14
M  V30 14 2 14 15
M  V30 15 1 14 16
M  V30 16 1 16 17
M  V30 17 1 17 18
M  V30 18 2 18 19
M  V30 19 1 19 20
M  V30 20 2 20 21
M  V30 21 1 21 22
M  V30 22 2 22 23
M  V30 23 1 23 24
M  V30 24 1 24 25
M  V30 25 2 24 26
M  V30 26 1 23 27
M  V30 27 2 27 28
M  V30 28 1 28 29
M  V30 29 2 29 30
M  V30 30 1 17 31
M  V30 31 1 31 32
M  V30 32 1 6 33
M  V30 33 2 33 34
M  V30 34 1 34 3
M  V30 35 1 15 10
M  V30 36 1 30 18
M  V30 37 1 32 13
M  V30 38 1 30 22
M  V30 39 1 1 35
M  V30 40 1 1 36
M  V30 41 1 1 37
M  V30 42 1 4 38
M  V30 43 1 5 39
M  V30 44 1 9 40
M  V30 45 1 11 41
M  V30 46 1 12 42
M  V30 47 1 15 43
M  V30 48 1 16 44
M  V30 49 1 16 45
M  V30 50 1 20 46
M  V30 51 1 25 47
M  V30 52 1 25 48
M  V30 53 1 27 49
M  V30 54 1 28 50
M  V30 55 1 29 51
M  V30 56 1 31 52
M  V30 57 1 31 53
M  V30 58 1 32 54
M  V30 59 1 32 55
M  V30 60 1 33 56
M  V30 61 1 34 57
M  V30 END BOND
M  V30 END CTAB
M  END
>  <Dataset>  (10) 
ChEMBL_Kinases

>  <Ligand_Instance>  (10) 
nan

>  <PDB_ID>  (10) 
nan

>  <Standardized_SMILES>  (10) 
COc1ccc(C(=O)Nc2ccc3c(c2)CN(c2ncnc4c(C(N)=O)cccc24)CC3)cc1

>  <Name>  (10) 
nan

>  <Pocket>  (10) 
nan

>  <ATP_Site>  (10) 
nan

>  <Peripheral>  (10) 
nan

>  <Num_H_Atoms_ProtBoundConf>  (10) 
nan

>  <Num_Resolved_Atoms>  (10) 
nan

>  <Num_Not_Resolved_Atoms>  (10) 
nan

$$$$
CHEMBL3675480
     RDKit          3D

  0  0  0  0  0  0  0  0  0  0999 V3000
M  V30 BEGIN CTAB
M  V30 COUNTS 62 65 0 0 0
M  V30 BEGIN ATOM
M  V30 1 C 0.898276 0.751119 6.283092 0
M  V30 2 O 0.467994 0.057683 5.146918 0
M  V30 3 C -0.250607 -1.081029 5.485954 0
M  V30 4 C -0.682091 -1.777001 4.232835 0
M  V30 5 C -1.547619 -0.858038 3.411554 0
M  V30 6 N -0.892183 0.360289 3.004140 0
M  V30 7 C 0.394989 0.377408 2.408851 0
M  V30 8 N 1.158538 -0.705271 2.183576 0
M  V30 9 C 2.380098 -0.692152 1.639198 0
M  V30 10 N 2.974658 0.450286 1.254480 0
M  V30 11 C 2.286621 1.590370 1.440103 0
M  V30 12 C 2.876666 2.758642 1.055010 0
M  V30 13 C 4.210154 2.742605 0.464189 0
M  V30 14 N 4.953495 1.550814 0.259851 0
M  V30 15 O 4.786911 3.792694 0.097085 0
M  V30 16 C 2.246124 3.965642 1.208442 0
M  V30 17 C 0.974309 3.957532 1.774628 0
M  V30 18 C 0.421876 2.756341 2.146524 0
M  V30 19 C 1.030633 1.532323 2.004547 0
M  V30 20 C -2.276994 -1.524349 2.320251 0
M  V30 21 C -3.525077 -2.113299 2.590179 0
M  V30 22 C -4.354185 -2.769570 1.704776 0
M  V30 23 C -3.904089 -2.856728 0.403792 0
M  V30 24 C -2.683724 -2.304785 0.042800 0
M  V30 25 N -2.249692 -2.407969 -1.291740 0
M  V30 26 C -1.492260 -3.315951 -2.072253 0
M  V30 27 O -1.085744 -4.298306 -1.437583 0
M  V30 28 C -1.275489 -3.017535 -3.484154 0
M  V30 29 C -1.732397 -1.922288 -4.188705 0
M  V30 30 C -1.450020 -1.767437 -5.528986 0
M  V30 31 C -0.690471 -2.734562 -6.179989 0
M  V30 32 C -0.393714 -2.559690 -7.615404 0
M  V30 33 F -1.405930 -3.061778 -8.409685 0
M  V30 34 F -0.233499 -1.236540 -7.984043 0
M  V30 35 F 0.800873 -3.212969 -7.855115 0
M  V30 36 C -0.212354 -3.856043 -5.495270 0
M  V30 37 C -0.517562 -3.981114 -4.136860 0
M  V30 38 C -1.937316 -1.675319 0.995063 0
M  V30 39 H 0.029841 1.065919 6.895989 0
M  V30 40 H 1.420149 1.667540 5.973771 0
M  V30 41 H 1.568661 0.089029 6.871142 0
M  V30 42 H -1.065909 -0.889060 6.189949 0
M  V30 43 H 0.476654 -1.725086 6.054657 0
M  V30 44 H -1.367733 -2.607425 4.557451 0
M  V30 45 H 0.141529 -2.242005 3.691037 0
M  V30 46 H -2.375018 -0.566352 4.165575 0
M  V30 47 H -1.422656 1.236949 3.171406 0
M  V30 48 H 2.916814 -1.626930 1.499153 0
M  V30 49 H 5.839650 1.328566 0.743594 0
M  V30 50 H 4.642792 0.808013 -0.407758 0
M  V30 51 H 2.724946 4.877331 0.899702 0
M  V30 52 H 0.492778 4.917006 1.887691 0
M  V30 53 H -0.561957 2.872209 2.571649 0
M  V30 54 H -3.895484 -2.052720 3.617189 0
M  V30 55 H -5.292763 -3.179926 2.038797 0
M  V30 56 H -4.542295 -3.367507 -0.300019 0
M  V30 57 H -2.679811 -1.521313 -1.637605 0
M  V30 58 H -2.315097 -1.214924 -3.615368 0
M  V30 59 H -1.837010 -0.886852 -6.025646 0
M  V30 60 H 0.371329 -4.578768 -6.039072 0
M  V30 61 H -0.116798 -4.871466 -3.669029 0
M  V30 62 H -1.022996 -1.268494 0.671397 0
M  V30 END ATOM
M  V30 BEGIN BOND
M  V30 1 1 1 2
M  V30 2 1 2 3
M  V30 3 1 3 4
M  V30 4 1 4 5
M  V30 5 1 5 6
M  V30 6 1 6 7
M  V30 7 2 7 8
M  V30 8 1 8 9
M  V30 9 2 9 10
M  V30 10 1 10 11
M  V30 11 2 11 12
M  V30 12 1 12 13
M  V30 13 1 13 14
M  V30 14 2 13 15
M  V30 15 1 12 16
M  V30 16 2 16 17
M  V30 17 1 17 18
M  V30 18 2 18 19
M  V30 19 1 5 20
M  V30 20 2 20 21
M  V30 21 1 21 22
M  V30 22 2 22 23
M  V30 23 1 23 24
M  V30 24 1 24 25
M  V30 25 1 25 26
M  V30 26 2 26 27
M  V30 27 1 26 28
M  V30 28 2 28 29
M  V30 29 1 29 30
M  V30 30 2 30 31
M  V30 31 1 31 32
M  V30 32 1 32 33
M  V30 33 1 32 34
M  V30 34 1 32 35
M  V30 35 1 31 36
M  V30 36 2 36 37
M  V30 37 2 24 38
M  V30 38 1 19 7
M  V30 39 1 38 20
M  V30 40 1 19 11
M  V30 41 1 37 28
M  V30 42 1 1 39
M  V30 43 1 1 40
M  V30 44 1 1 41
M  V30 45 1 3 42
M  V30 46 1 3 43
M  V30 47 1 4 44
M  V30 48 1 4 45
M  V30 49 1 5 46
M  V30 50 1 6 47
M  V30 51 1 9 48
M  V30 52 1 14 49
M  V30 53 1 14 50
M  V30 54 1 16 51
M  V30 55 1 17 52
M  V30 56 1 18 53
M  V30 57 1 21 54
M  V30 58 1 22 55
M  V30 59 1 23 56
M  V30 60 1 25 57
M  V30 61 1 29 58
M  V30 62 1 30 59
M  V30 63 1 36 60
M  V30 64 1 37 61
M  V30 65 1 38 62
M  V30 END BOND
M  V30 END CTAB
M  END
>  <Dataset>  (11) 
ChEMBL_Kinases

>  <Ligand_Instance>  (11) 
nan

>  <PDB_ID>  (11) 
nan

>  <Standardized_SMILES>  (11) 
COCCC(Nc1ncnc2c(C(N)=O)cccc12)c1cccc(NC(=O)c2ccc(C(F)(F)F)cc2)c1

>  <Name>  (11) 
nan

>  <Pocket>  (11) 
nan

>  <ATP_Site>  (11) 
nan

>  <Peripheral>  (11) 
nan

>  <Num_H_Atoms_ProtBoundConf>  (11) 
nan

>  <Num_Resolved_Atoms>  (11) 
nan

>  <Num_Not_Resolved_Atoms>  (11) 
nan

$$$$
CHEMBL540357
     RDKit          3D

  0  0  0  0  0  0  0  0  0  0999 V3000
M  V30 BEGIN CTAB
M  V30 COUNTS 51 54 0 0 0
M  V30 BEGIN ATOM
M  V30 1 N -5.405694 -2.919744 -0.174645 0
M  V30 2 C -4.688342 -2.687884 -1.217672 0
M  V30 3 N -3.709153 -3.690962 -1.270702 0
M  V30 4 S -4.997412 -1.323442 -2.293646 0
M  V30 5 C -3.856135 -1.235234 -3.668541 0
M  V30 6 C -2.440302 -0.935244 -3.301361 0
M  V30 7 C -2.247745 0.385725 -2.599685 0
M  V30 8 N -0.840386 0.552025 -2.309745 0
M  V30 9 C -0.037269 0.244593 -1.279871 0
M  V30 10 C 1.276092 0.627218 -1.492739 0
M  V30 11 C 2.353666 0.429964 -0.553287 0
M  V30 12 C 2.175842 0.641466 0.762946 0
M  V30 13 N 1.115267 1.056410 1.650622 0
M  V30 14 C 0.386714 -0.029410 2.265430 0
M  V30 15 C 0.734576 -1.341797 1.974550 0
M  V30 16 C 0.077736 -2.434842 2.523633 0
M  V30 17 C -0.958079 -2.187670 3.389868 0
M  V30 18 C -1.314931 -0.889127 3.688628 0
M  V30 19 C -0.656857 0.191173 3.138463 0
M  V30 20 C 3.422412 0.362351 1.486750 0
M  V30 21 O 3.804241 0.396924 2.696809 0
M  V30 22 N 4.418888 -0.047238 0.527102 0
M  V30 23 C 3.735652 0.001402 -0.728147 0
M  V30 24 O 4.272858 -0.291392 -1.825709 0
M  V30 25 C 1.220321 1.200599 -2.745493 0
M  V30 26 C 2.213384 1.773513 -3.507753 0
M  V30 27 C 1.996476 2.307379 -4.747901 0
M  V30 28 C 0.712987 2.271676 -5.266329 0
M  V30 29 C -0.274321 1.707549 -4.519196 0
M  V30 30 C -0.060971 1.158989 -3.249135 0
M  V30 31 H -6.190110 -2.274273 0.031309 0
M  V30 32 H -2.991835 -3.893235 -0.520964 0
M  V30 33 H -3.704920 -4.266753 -2.117417 0
M  V30 34 H -4.195239 -0.422004 -4.356859 0
M  V30 35 H -3.849634 -2.192956 -4.227641 0
M  V30 36 H -1.866879 -0.874020 -4.250244 0
M  V30 37 H -1.972116 -1.750071 -2.727491 0
M  V30 38 H -2.797961 0.369247 -1.628015 0
M  V30 39 H -2.657344 1.233065 -3.154882 0
M  V30 40 H -0.525885 -0.244631 -0.459534 0
M  V30 41 H 0.807508 2.028172 1.905374 0
M  V30 42 H 1.554667 -1.587991 1.288760 0
M  V30 43 H 0.388397 -3.452717 2.264249 0
M  V30 44 H -1.472030 -3.033944 3.820436 0
M  V30 45 H -2.128652 -0.777861 4.369654 0
M  V30 46 H -0.943493 1.206050 3.377843 0
M  V30 47 H 5.426163 -0.329903 0.639045 0
M  V30 48 H 3.220622 1.825519 -3.143305 0
M  V30 49 H 2.794368 2.753589 -5.331790 0
M  V30 50 H 0.488317 2.678350 -6.239037 0
M  V30 51 H -1.266053 1.683801 -4.926971 0
M  V30 END ATOM
M  V30 BEGIN BOND
M  V30 1 2 1 2 CFG=2
M  V30 2 1 2 3
M  V30 3 1 2 4
M  V30 4 1 4 5
M  V30 5 1 5 6
M  V30 6 1 6 7
M  V30 7 1 7 8
M  V30 8 1 8 9
M  V30 9 2 9 10
M  V30 10 1 10 11
M  V30 11 2 11 12
M  V30 12 1 12 13
M  V30 13 1 13 14
M  V30 14 2 14 15
M  V30 15 1 15 16
M  V30 16 2 16 17
M  V30 17 1 17 18
M  V30 18 2 18 19
M  V30 19 1 12 20
M  V30 20 2 20 21
M  V30 21 1 20 22
M  V30 22 1 22 23
M  V30 23 2 23 24
M  V30 24 1 10 25
M  V30 25 2 25 26
M  V30 26 1 26 27
M  V30 27 2 27 28
M  V30 28 1 28 29
M  V30 29 2 29 30
M  V30 30 1 30 8
M  V30 31 1 23 11
M  V30 32 1 30 25
M  V30 33 1 19 14
M  V30 34 1 1 31
M  V30 35 1 3 32
M  V30 36 1 3 33
M  V30 37 1 5 34
M  V30 38 1 5 35
M  V30 39 1 6 36
M  V30 40 1 6 37
M  V30 41 1 7 38
M  V30 42 1 7 39
M  V30 43 1 9 40
M  V30 44 1 13 41
M  V30 45 1 15 42
M  V30 46 1 16 43
M  V30 47 1 17 44
M  V30 48 1 18 45
M  V30 49 1 19 46
M  V30 50 1 22 47
M  V30 51 1 26 48
M  V30 52 1 27 49
M  V30 53 1 28 50
M  V30 54 1 29 51
M  V30 END BOND
M  V30 END CTAB
M  END
>  <Dataset>  (12) 
ChEMBL_Kinases

>  <Ligand_Instance>  (12) 
nan

>  <PDB_ID>  (12) 
nan

>  <Standardized_SMILES>  (12) 
N=C(N)SCCCn1cc(C2=C(Nc3ccccc3)C(=O)NC2=O)c2ccccc21

>  <Name>  (12) 
nan

>  <Pocket>  (12) 
nan

>  <ATP_Site>  (12) 
nan

>  <Peripheral>  (12) 
nan

>  <Num_H_Atoms_ProtBoundConf>  (12) 
nan

>  <Num_Resolved_Atoms>  (12) 
nan

>  <Num_Not_Resolved_Atoms>  (12) 
nan

$$$$
CHEMBL5091688
     RDKit          3D

  0  0  0  0  0  0  0  0  0  0999 V3000
M  V30 BEGIN CTAB
M  V30 COUNTS 60 64 0 0 0
M  V30 BEGIN ATOM
M  V30 1 C 2.256371 -0.260661 -0.822225 0
M  V30 2 C 2.874695 0.995446 -0.719790 0
M  V30 3 C 2.191864 2.106555 -0.331688 0
M  V30 4 C 3.012601 3.342861 -0.287665 0
M  V30 5 N 3.712811 3.526244 0.925943 0
M  V30 6 C 2.931325 3.648357 2.087013 0
M  V30 7 C 2.554760 5.051711 2.497580 0
M  V30 8 O 3.552491 5.987255 2.337858 0
M  V30 9 C 4.221182 5.884329 1.128130 0
M  V30 10 C 4.731452 4.504770 0.850459 0
M  V30 11 C 0.862212 2.059972 -0.020644 0
M  V30 12 C 0.167079 0.862948 -0.093037 0
M  V30 13 N -1.212560 0.832541 0.232874 0
M  V30 14 C -2.138879 -0.236291 0.269113 0
M  V30 15 N -3.410991 -0.091009 0.594930 0
M  V30 16 C -4.264389 -1.112303 0.625734 0
M  V30 17 C -3.874851 -2.402510 0.318163 0
M  V30 18 C -4.726071 -3.588529 0.324386 0
M  V30 19 C -5.476482 -4.124090 -0.785206 0
M  V30 20 C -6.234633 -3.239578 0.180885 0
M  V30 21 C -2.565554 -2.555928 -0.017520 0
M  V30 22 N -1.943264 -3.792918 -0.373357 0
M  V30 23 C -0.557443 -3.991028 -0.733051 0
M  V30 24 C -0.225817 -5.423437 -1.066325 0
M  V30 25 C -0.492599 -6.325774 0.096321 0
M  V30 26 C 0.438694 -6.646950 1.084981 0
M  V30 27 N -0.107614 -7.492648 2.006661 0
M  V30 28 C -1.363789 -7.691131 1.590369 0
M  V30 29 N -1.603773 -7.008701 0.465094 0
M  V30 30 N -1.784013 -1.471137 -0.021371 0
M  V30 31 C 0.913730 -0.220223 -0.490345 0
M  V30 32 H 2.760472 -1.149272 -1.121591 0
M  V30 33 H 3.947157 0.996304 -0.977394 0
M  V30 34 H 2.265320 4.179660 -0.421122 0
M  V30 35 H 3.720802 3.339733 -1.145204 0
M  V30 36 H 1.981635 3.079326 1.975801 0
M  V30 37 H 3.459815 3.116352 2.939578 0
M  V30 38 H 2.401252 4.986507 3.615292 0
M  V30 39 H 1.564252 5.343697 2.092568 0
M  V30 40 H 3.684406 6.347798 0.274368 0
M  V30 41 H 5.142087 6.522254 1.258718 0
M  V30 42 H 5.560656 4.316478 1.581405 0
M  V30 43 H 5.141242 4.492774 -0.184726 0
M  V30 44 H 0.341586 2.974661 0.280147 0
M  V30 45 H -1.646288 1.765324 0.498492 0
M  V30 46 H -5.308008 -0.957736 0.900718 0
M  V30 47 H -4.542081 -4.241279 1.203312 0
M  V30 48 H -5.790589 -5.189466 -0.720498 0
M  V30 49 H -5.369804 -3.830814 -1.843329 0
M  V30 50 H -6.508702 -2.233121 -0.140222 0
M  V30 51 H -6.941511 -3.685237 0.887001 0
M  V30 52 H -2.587836 -4.630484 -0.364311 0
M  V30 53 H -0.210201 -3.364337 -1.580031 0
M  V30 54 H 0.131905 -3.710574 0.113351 0
M  V30 55 H 0.846988 -5.467639 -1.290267 0
M  V30 56 H -0.759635 -5.761758 -1.987083 0
M  V30 57 H 1.464609 -6.304361 1.161493 0
M  V30 58 H 0.391718 -7.877472 2.843897 0
M  V30 59 H -2.058540 -8.332458 2.131161 0
M  V30 60 H 0.435420 -1.197965 -0.570925 0
M  V30 END ATOM
M  V30 BEGIN BOND
M  V30 1 2 1 2
M  V30 2 1 2 3
M  V30 3 1 3 4
M  V30 4 1 4 5
M  V30 5 1 5 6
M  V30 6 1 6 7
M  V30 7 1 7 8
M  V30 8 1 8 9
M  V30 9 1 9 10
M  V30 10 2 3 11
M  V30 11 1 11 12
M  V30 12 1 12 13
M  V30 13 1 13 14
M  V30 14 2 14 15
M  V30 15 1 15 16
M  V30 16 2 16 17
M  V30 17 1 17 18
M  V30 18 1 18 19
M  V30 19 1 19 20
M  V30 20 1 17 21
M  V30 21 1 21 22
M  V30 22 1 22 23
M  V30 23 1 23 24
M  V30 24 1 24 25
M  V30 25 2 25 26
M  V30 26 1 26 27
M  V30 27 1 27 28
M  V30 28 2 28 29
M  V30 29 2 21 30
M  V30 30 2 12 31
M  V30 31 1 31 1
M  V30 32 1 10 5
M  V30 33 1 30 14
M  V30 34 1 20 18
M  V30 35 1 29 25
M  V30 36 1 1 32
M  V30 37 1 2 33
M  V30 38 1 4 34
M  V30 39 1 4 35
M  V30 40 1 6 36
M  V30 41 1 6 37
M  V30 42 1 7 38
M  V30 43 1 7 39
M  V30 44 1 9 40
M  V30 45 1 9 41
M  V30 46 1 10 42
M  V30 47 1 10 43
M  V30 48 1 11 44
M  V30 49 1 13 45
M  V30 50 1 16 46
M  V30 51 1 18 47
M  V30 52 1 19 48
M  V30 53 1 19 49
M  V30 54 1 20 50
M  V30 55 1 20 51
M  V30 56 1 22 52
M  V30 57 1 23 53
M  V30 58 1 23 54
M  V30 59 1 24 55
M  V30 60 1 24 56
M  V30 61 1 26 57
M  V30 62 1 27 58
M  V30 63 1 28 59
M  V30 64 1 31 60
M  V30 END BOND
M  V30 END CTAB
M  END
>  <Dataset>  (13) 
ChEMBL_Kinases

>  <Ligand_Instance>  (13) 
nan

>  <PDB_ID>  (13) 
nan

>  <Standardized_SMILES>  (13) 
c1cc(CN2CCOCC2)cc(Nc2ncc(C3CC3)c(NCCc3c[nH]cn3)n2)c1

>  <Name>  (13) 
nan

>  <Pocket>  (13) 
nan

>  <ATP_Site>  (13) 
nan

>  <Peripheral>  (13) 
nan

>  <Num_H_Atoms_ProtBoundConf>  (13) 
nan

>  <Num_Resolved_Atoms>  (13) 
nan

>  <Num_Not_Resolved_Atoms>  (13) 
nan

$$$$
CHEMBL3728662
     RDKit          3D

  0  0  0  0  0  0  0  0  0  0999 V3000
M  V30 BEGIN CTAB
M  V30 COUNTS 47 49 0 0 0
M  V30 BEGIN ATOM
M  V30 1 O -0.809354 -2.529884 -0.256224 0
M  V30 2 C -1.682499 -1.866796 -0.872021 0
M  V30 3 C -1.962177 -1.268547 -2.224759 0
M  V30 4 N -0.871671 -1.530613 -3.143312 0
M  V30 5 C 0.451467 -1.063405 -2.915501 0
M  V30 6 C 1.495283 -1.320140 -3.791766 0
M  V30 7 C 2.787595 -0.881971 -3.604636 0
M  V30 8 C 3.077157 -0.133956 -2.469370 0
M  V30 9 C 2.074825 0.149419 -1.566014 0
M  V30 10 C 2.446639 0.938177 -0.397558 0
M  V30 11 O 3.637960 1.310688 -0.280284 0
M  V30 12 N 1.564994 1.330089 0.639143 0
M  V30 13 C 1.963655 2.098979 1.762483 0
M  V30 14 C 1.862251 3.485228 1.606642 0
M  V30 15 C 2.234810 4.290776 2.663891 0
M  V30 16 C 2.700424 3.760800 3.858908 0
M  V30 17 C 2.797073 2.389662 4.003338 0
M  V30 18 C 2.429068 1.569419 2.957008 0
M  V30 19 C 0.809076 -0.316782 -1.811627 0
M  V30 20 N -2.754335 -1.616310 0.059651 0
M  V30 21 N -2.569856 -2.146887 1.359227 0
M  V30 22 C -3.462368 -2.135411 2.269842 0
M  V30 23 C -2.747902 -2.794385 3.371003 0
M  V30 24 C -2.846771 -4.173125 3.460280 0
M  V30 25 Cl -3.803280 -5.077966 2.279636 0
M  V30 26 C -2.163179 -4.776320 4.509584 0
M  V30 27 N -1.456195 -4.057289 5.374003 0
M  V30 28 C -1.380609 -2.725589 5.260086 0
M  V30 29 C -2.021629 -2.008654 4.251259 0
M  V30 30 Cl -1.924639 -0.272340 4.100556 0
M  V30 31 H -2.093545 -0.165652 -2.138864 0
M  V30 32 H -2.889852 -1.694885 -2.655237 0
M  V30 33 H -1.026127 -2.082720 -4.020558 0
M  V30 34 H 1.272944 -1.903995 -4.679483 0
M  V30 35 H 3.568378 -1.106974 -4.315549 0
M  V30 36 H 4.101016 0.187108 -2.365047 0
M  V30 37 H 0.566287 1.035196 0.570160 0
M  V30 38 H 1.497777 3.921912 0.672891 0
M  V30 39 H 2.151038 5.360879 2.528976 0
M  V30 40 H 2.996023 4.396720 4.697473 0
M  V30 41 H 3.154981 1.892740 4.914606 0
M  V30 42 H 2.474871 0.472050 2.988579 0
M  V30 43 H 0.065529 -0.062118 -1.069765 0
M  V30 44 H -3.666633 -1.093476 -0.074389 0
M  V30 45 H -4.425956 -1.694676 2.046614 0
M  V30 46 H -2.245860 -5.867372 4.574048 0
M  V30 47 H -0.786598 -2.165877 5.993674 0
M  V30 END ATOM
M  V30 BEGIN BOND
M  V30 1 2 1 2
M  V30 2 1 2 3
M  V30 3 1 3 4
M  V30 4 1 4 5
M  V30 5 2 5 6
M  V30 6 1 6 7
M  V30 7 2 7 8
M  V30 8 1 8 9
M  V30 9 1 9 10
M  V30 10 2 10 11
M  V30 11 1 10 12
M  V30 12 1 12 13
M  V30 13 2 13 14
M  V30 14 1 14 15
M  V30 15 2 15 16
M  V30 16 1 16 17
M  V30 17 2 17 18
M  V30 18 2 9 19
M  V30 19 1 2 20
M  V30 20 1 20 21
M  V30 21 2 21 22
M  V30 22 1 22 23
M  V30 23 2 23 24
M  V30 24 1 24 25
M  V30 25 1 24 26
M  V30 26 2 26 27
M  V30 27 1 27 28
M  V30 28 2 28 29
M  V30 29 1 29 30
M  V30 30 1 19 5
M  V30 31 1 29 23
M  V30 32 1 18 13
M  V30 33 1 3 31
M  V30 34 1 3 32
M  V30 35 1 4 33
M  V30 36 1 6 34
M  V30 37 1 7 35
M  V30 38 1 8 36
M  V30 39 1 12 37
M  V30 40 1 14 38
M  V30 41 1 15 39
M  V30 42 1 16 40
M  V30 43 1 17 41
M  V30 44 1 18 42
M  V30 45 1 19 43
M  V30 46 1 20 44
M  V30 47 1 22 45
M  V30 48 1 26 46
M  V30 49 1 28 47
M  V30 END BOND
M  V30 END CTAB
M  END
>  <Dataset>  (14) 
ChEMBL_Kinases

>  <Ligand_Instance>  (14) 
nan

>  <PDB_ID>  (14) 
nan

>  <Standardized_SMILES>  (14) 
O=C(CNc1cccc(C(=O)Nc2ccccc2)c1)N/N=C/c1c(Cl)cncc1Cl

>  <Name>  (14) 
nan

>  <Pocket>  (14) 
nan

>  <ATP_Site>  (14) 
nan

>  <Peripheral>  (14) 
nan

>  <Num_H_Atoms_ProtBoundConf>  (14) 
nan

>  <Num_Resolved_Atoms>  (14) 
nan

>  <Num_Not_Resolved_Atoms>  (14) 
nan

$$$$
CHEMBL3685274
     RDKit          3D

  0  0  0  0  0  0  0  0  0  0999 V3000
M  V30 BEGIN CTAB
M  V30 COUNTS 63 66 0 0 0
M  V30 BEGIN ATOM
M  V30 1 C 4.327173 -3.014204 3.941682 0
M  V30 2 O 4.930541 -3.469481 2.782700 0
M  V30 3 C 4.361383 -2.943068 1.646727 0
M  V30 4 C 2.902332 -3.258858 1.437652 0
M  V30 5 C 2.441646 -2.616505 0.140972 0 CFG=2
M  V30 6 N 2.566601 -1.203362 0.088000 0
M  V30 7 C 2.192200 -0.479158 -1.070555 0
M  V30 8 N 1.714543 -1.156415 -2.130008 0
M  V30 9 C 1.374340 -0.425163 -3.206406 0
M  V30 10 N 1.471207 0.933696 -3.315623 0
M  V30 11 C 1.951284 1.633615 -2.255966 0
M  V30 12 C 2.076525 2.998446 -2.291668 0
M  V30 13 C 1.682422 3.717894 -3.506534 0
M  V30 14 N 1.798974 5.141461 -3.568443 0
M  V30 15 O 1.243786 3.003589 -4.468181 0
M  V30 16 C 2.563728 3.712799 -1.216229 0
M  V30 17 C 2.935232 3.008109 -0.065473 0
M  V30 18 C 2.786397 1.637244 -0.089599 0
M  V30 19 C 2.303553 0.894753 -1.146267 0
M  V30 20 C 1.102282 -3.155139 -0.180565 0
M  V30 21 C 0.908686 -4.265427 -1.014227 0
M  V30 22 C -0.361302 -4.753697 -1.301499 0
M  V30 23 C -1.482298 -4.149429 -0.765782 0
M  V30 24 C -1.346063 -3.049352 0.063803 0
M  V30 25 N -2.430342 -2.356518 0.665484 0
M  V30 26 C -3.163349 -2.423289 1.868449 0
M  V30 27 O -2.916966 -3.265389 2.751589 0
M  V30 28 C -4.243820 -1.465456 2.069214 0
M  V30 29 C -4.925524 -1.582479 3.258288 0
M  V30 30 C -5.989155 -0.734267 3.593650 0
M  V30 31 C -6.357747 0.255784 2.683638 0
M  V30 32 O -7.418170 1.080380 3.049361 0
M  V30 33 C -7.915768 2.132058 2.241808 0
M  V30 34 C -5.667235 0.365522 1.492038 0
M  V30 35 C -4.621072 -0.481326 1.180665 0
M  V30 36 C -0.059287 -2.598406 0.321640 0
M  V30 37 H 4.886802 -3.488802 4.782053 0
M  V30 38 H 3.268596 -3.346533 3.928879 0
M  V30 39 H 4.386727 -1.913425 4.061077 0
M  V30 40 H 4.552131 -1.847906 1.681033 0
M  V30 41 H 4.918683 -3.390423 0.767316 0
M  V30 42 H 2.244074 -3.015751 2.273591 0
M  V30 43 H 2.845149 -4.360264 1.318303 0
M  V30 44 H 3.123948 -3.064620 -0.641675 0
M  V30 45 H 2.949493 -0.811713 0.973275 0
M  V30 46 H 0.978053 -0.895141 -4.110045 0
M  V30 47 H 0.930929 5.689371 -3.377436 0
M  V30 48 H 2.636611 5.742418 -3.780238 0
M  V30 49 H 2.669615 4.787684 -1.225289 0
M  V30 50 H 3.314542 3.555656 0.774035 0
M  V30 51 H 3.093680 1.166346 0.832056 0
M  V30 52 H 1.793934 -4.750116 -1.442636 0
M  V30 53 H -0.495082 -5.612158 -1.946625 0
M  V30 54 H -2.498379 -4.473742 -0.945213 0
M  V30 55 H -2.561726 -1.691537 -0.126433 0
M  V30 56 H -4.704915 -2.314934 4.009815 0
M  V30 57 H -6.517832 -0.825816 4.516155 0
M  V30 58 H -9.023880 2.259463 2.383049 0
M  V30 59 H -7.801086 1.913587 1.161049 0
M  V30 60 H -7.412131 3.097122 2.451316 0
M  V30 61 H -5.954364 1.128228 0.795895 0
M  V30 62 H -4.075978 -0.402262 0.251620 0
M  V30 63 H 0.060203 -1.736263 0.971030 0
M  V30 END ATOM
M  V30 BEGIN BOND
M  V30 1 1 1 2
M  V30 2 1 2 3
M  V30 3 1 3 4
M  V30 4 1 4 5
M  V30 5 1 5 6
M  V30 6 1 6 7
M  V30 7 2 7 8
M  V30 8 1 8 9
M  V30 9 2 9 10
M  V30 10 1 10 11
M  V30 11 2 11 12
M  V30 12 1 12 13
M  V30 13 1 13 14
M  V30 14 2 13 15
M  V30 15 1 12 16
M  V30 16 2 16 17
M  V30 17 1 17 18
M  V30 18 2 18 19
M  V30 19 1 5 20
M  V30 20 2 20 21
M  V30 21 1 21 22
M  V30 22 2 22 23
M  V30 23 1 23 24
M  V30 24 1 24 25
M  V30 25 1 25 26
M  V30 26 2 26 27
M  V30 27 1 26 28
M  V30 28 2 28 29
M  V30 29 1 29 30
M  V30 30 2 30 31
M  V30 31 1 31 32
M  V30 32 1 32 33
M  V30 33 1 31 34
M  V30 34 2 34 35
M  V30 35 2 24 36
M  V30 36 1 19 7
M  V30 37 1 36 20
M  V30 38 1 19 11
M  V30 39 1 35 28
M  V30 40 1 1 37
M  V30 41 1 1 38
M  V30 42 1 1 39
M  V30 43 1 3 40
M  V30 44 1 3 41
M  V30 45 1 4 42
M  V30 46 1 4 43
M  V30 47 1 5 44 CFG=3
M  V30 48 1 6 45
M  V30 49 1 9 46
M  V30 50 1 14 47
M  V30 51 1 14 48
M  V30 52 1 16 49
M  V30 53 1 17 50
M  V30 54 1 18 51
M  V30 55 1 21 52
M  V30 56 1 22 53
M  V30 57 1 23 54
M  V30 58 1 25 55
M  V30 59 1 29 56
M  V30 60 1 30 57
M  V30 61 1 33 58
M  V30 62 1 33 59
M  V30 63 1 33 60
M  V30 64 1 34 61
M  V30 65 1 35 62
M  V30 66 1 36 63
M  V30 END BOND
M  V30 END CTAB
M  END
>  <Dataset>  (15) 
ChEMBL_Kinases

>  <Ligand_Instance>  (15) 
nan

>  <PDB_ID>  (15) 
nan

>  <Standardized_SMILES>  (15) 
COCC[C@H](Nc1ncnc2c(C(N)=O)cccc12)c1cccc(NC(=O)c2ccc(OC)cc2)c1

>  <Name>  (15) 
nan

>  <Pocket>  (15) 
nan

>  <ATP_Site>  (15) 
nan

>  <Peripheral>  (15) 
nan

>  <Num_H_Atoms_ProtBoundConf>  (15) 
nan

>  <Num_Resolved_Atoms>  (15) 
nan

>  <Num_Not_Resolved_Atoms>  (15) 
nan

$$$$
CHEMBL3685270
     RDKit          3D

  0  0  0  0  0  0  0  0  0  0999 V3000
M  V30 BEGIN CTAB
M  V30 COUNTS 69 73 0 0 0
M  V30 BEGIN ATOM
M  V30 1 C 5.596679 -0.587265 7.067893 0
M  V30 2 N 5.454813 -1.289234 5.810372 0
M  V30 3 C 6.541502 -0.985253 4.897687 0
M  V30 4 C 6.231467 -1.500115 3.510306 0
M  V30 5 N 5.171372 -0.713006 2.960700 0
M  V30 6 C 4.577694 -1.406653 1.863071 0
M  V30 7 C 3.459215 -0.726030 1.205910 0
M  V30 8 C 2.126053 -0.903119 1.563719 0
M  V30 9 C 1.051971 -0.267018 0.958059 0
M  V30 10 C 1.333426 0.602441 -0.072789 0
M  V30 11 C 0.208053 1.259135 -0.695499 0
M  V30 12 O -0.970873 1.001413 -0.268796 0
M  V30 13 N 0.223525 2.193721 -1.763657 0
M  V30 14 C -1.138896 2.581756 -2.052997 0
M  V30 15 C -1.801023 3.643075 -1.472592 0
M  V30 16 C -3.108796 3.863795 -1.872577 0
M  V30 17 C -3.677641 3.028451 -2.814155 0
M  V30 18 C -3.010022 1.948048 -3.407497 0
M  V30 19 C -3.837065 1.215229 -4.393795 0
M  V30 20 N -4.649883 0.199557 -3.743752 0
M  V30 21 C -4.180766 -0.914587 -3.007984 0
M  V30 22 N -2.887356 -1.177462 -2.819741 0
M  V30 23 C -2.412208 -2.218331 -2.134587 0
M  V30 24 N -3.259166 -3.098309 -1.571656 0
M  V30 25 C -4.578924 -2.902700 -1.716453 0
M  V30 26 C -5.433327 -3.804049 -1.139261 0
M  V30 27 C -4.885875 -4.932211 -0.396656 0
M  V30 28 N -5.709198 -5.902728 0.228659 0
M  V30 29 O -3.626303 -5.072100 -0.292071 0
M  V30 30 C -6.801395 -3.675066 -1.240724 0
M  V30 31 C -7.287346 -2.588934 -1.955388 0
M  V30 32 C -6.390274 -1.702330 -2.522550 0
M  V30 33 C -5.023982 -1.829988 -2.421934 0
M  V30 34 C -1.714332 1.752398 -2.992899 0
M  V30 35 C 2.625464 0.836864 -0.491736 0
M  V30 36 C 3.673792 0.169430 0.152931 0
M  V30 37 C 4.289024 -0.204536 3.947342 0
M  V30 38 C 4.164864 -1.049565 5.195578 0
M  V30 39 H 5.023204 -1.166430 7.828440 0
M  V30 40 H 5.055990 0.379087 6.945658 0
M  V30 41 H 6.648346 -0.483871 7.358404 0
M  V30 42 H 6.752993 0.082532 4.800015 0
M  V30 43 H 7.439107 -1.502932 5.310195 0
M  V30 44 H 7.179106 -1.342300 2.923347 0
M  V30 45 H 5.988197 -2.580020 3.590022 0
M  V30 46 H 5.314927 -1.668087 1.075541 0
M  V30 47 H 4.201657 -2.385423 2.258449 0
M  V30 48 H 1.881643 -1.592694 2.380314 0
M  V30 49 H 0.048987 -0.470641 1.308043 0
M  V30 50 H 1.190596 2.426699 -2.136873 0
M  V30 51 H -1.257698 4.217013 -0.757661 0
M  V30 52 H -3.639580 4.685454 -1.431951 0
M  V30 53 H -4.719202 3.294100 -3.058957 0
M  V30 54 H -3.130996 0.730931 -5.133623 0
M  V30 55 H -4.421540 1.934320 -4.985747 0
M  V30 56 H -5.656422 0.383989 -3.880914 0
M  V30 57 H -1.336108 -2.253510 -2.097527 0
M  V30 58 H -5.338663 -6.530918 0.964689 0
M  V30 59 H -6.715398 -6.058019 0.008364 0
M  V30 60 H -7.519110 -4.366311 -0.798385 0
M  V30 61 H -8.364118 -2.487269 -2.035330 0
M  V30 62 H -6.862242 -0.906196 -3.048032 0
M  V30 63 H -1.231633 0.917782 -3.477877 0
M  V30 64 H 2.851757 1.518571 -1.300984 0
M  V30 65 H 4.694834 0.335221 -0.156180 0
M  V30 66 H 4.719959 0.773911 4.305302 0
M  V30 67 H 3.262061 -0.041118 3.560430 0
M  V30 68 H 3.541752 -0.487771 5.919475 0
M  V30 69 H 3.662168 -2.006600 4.967198 0
M  V30 END ATOM
M  V30 BEGIN BOND
M  V30 1 1 1 2
M  V30 2 1 2 3
M  V30 3 1 3 4
M  V30 4 1 4 5
M  V30 5 1 5 6
M  V30 6 1 6 7
M  V30 7 2 7 8
M  V30 8 1 8 9
M  V30 9 2 9 10
M  V30 10 1 10 11
M  V30 11 2 11 12
M  V30 12 1 11 13
M  V30 13 1 13 14
M  V30 14 2 14 15
M  V30 15 1 15 16
M  V30 16 2 16 17
M  V30 17 1 17 18
M  V30 18 1 18 19
M  V30 19 1 19 20
M  V30 20 1 20 21
M  V30 21 2 21 22
M  V30 22 1 22 23
M  V30 23 2 23 24
M  V30 24 1 24 25
M  V30 25 2 25 26
M  V30 26 1 26 27
M  V30 27 1 27 28
M  V30 28 2 27 29
M  V30 29 1 26 30
M  V30 30 2 30 31
M  V30 31 1 31 32
M  V30 32 2 32 33
M  V30 33 2 18 34
M  V30 34 1 10 35
M  V30 35 2 35 36
M  V30 36 1 5 37
M  V30 37 1 37 38
M  V30 38 1 38 2
M  V30 39 1 36 7
M  V30 40 1 34 14
M  V30 41 1 33 21
M  V30 42 1 33 25
M  V30 43 1 1 39
M  V30 44 1 1 40
M  V30 45 1 1 41
M  V30 46 1 3 42
M  V30 47 1 3 43
M  V30 48 1 4 44
M  V30 49 1 4 45
M  V30 50 1 6 46
M  V30 51 1 6 47
M  V30 52 1 8 48
M  V30 53 1 9 49
M  V30 54 1 13 50
M  V30 55 1 15 51
M  V30 56 1 16 52
M  V30 57 1 17 53
M  V30 58 1 19 54
M  V30 59 1 19 55
M  V30 60 1 20 56
M  V30 61 1 23 57
M  V30 62 1 28 58
M  V30 63 1 28 59
M  V30 64 1 30 60
M  V30 65 1 31 61
M  V30 66 1 32 62
M  V30 67 1 34 63
M  V30 68 1 35 64
M  V30 69 1 36 65
M  V30 70 1 37 66
M  V30 71 1 37 67
M  V30 72 1 38 68
M  V30 73 1 38 69
M  V30 END BOND
M  V30 END CTAB
M  END
>  <Dataset>  (16) 
ChEMBL_Kinases

>  <Ligand_Instance>  (16) 
nan

>  <PDB_ID>  (16) 
nan

>  <Standardized_SMILES>  (16) 
CN1CCN(Cc2ccc(C(=O)Nc3cccc(CNc4ncnc5c(C(N)=O)cccc45)c3)cc2)CC1

>  <Name>  (16) 
nan

>  <Pocket>  (16) 
nan

>  <ATP_Site>  (16) 
nan

>  <Peripheral>  (16) 
nan

>  <Num_H_Atoms_ProtBoundConf>  (16) 
nan

>  <Num_Resolved_Atoms>  (16) 
nan

>  <Num_Not_Resolved_Atoms>  (16) 
nan

$$$$
CHEMBL3685268
     RDKit          3D

  0  0  0  0  0  0  0  0  0  0999 V3000
M  V30 BEGIN CTAB
M  V30 COUNTS 63 66 0 0 0
M  V30 BEGIN ATOM
M  V30 1 C 0.046982 -3.083390 2.964557 0
M  V30 2 C -0.131638 -2.030467 4.096182 0
M  V30 3 N 0.927054 -1.117743 3.908510 0
M  V30 4 C 2.115345 -0.432637 3.685450 0
M  V30 5 N 3.028277 -1.392374 3.487318 0
M  V30 6 C 4.327826 -1.171768 3.243011 0
M  V30 7 N 4.691203 0.139624 3.208459 0
M  V30 8 C 3.813154 1.123061 3.399730 0
M  V30 9 C 4.103247 2.493435 3.373917 0
M  V30 10 C 5.487843 2.875524 3.119232 0
M  V30 11 N 6.476472 1.903926 2.920574 0
M  V30 12 O 5.806388 4.087539 3.077480 0
M  V30 13 C 3.116233 3.437080 3.582238 0
M  V30 14 C 1.803147 3.096404 3.823595 0
M  V30 15 C 1.466422 1.745004 3.859098 0
M  V30 16 C 2.503680 0.882187 3.643435 0
M  V30 17 C -1.451846 -1.388356 3.731545 0
M  V30 18 C -2.630342 -1.296484 4.427774 0
M  V30 19 C -3.728783 -0.685733 3.886294 0
M  V30 20 C -3.739477 -0.130587 2.632004 0
M  V30 21 C -2.552969 -0.225909 1.937016 0
M  V30 22 N -2.392130 0.286974 0.591741 0
M  V30 23 C -2.746000 -0.833856 -0.199619 0
M  V30 24 O -3.074823 -1.836274 0.531252 0
M  V30 25 C -2.789385 -1.005738 -1.647086 0
M  V30 26 C -3.227100 -2.221322 -2.100505 0
M  V30 27 C -3.290578 -2.483769 -3.442938 0
M  V30 28 C -2.933285 -1.585291 -4.420121 0
M  V30 29 C -3.010280 -1.891431 -5.873586 0
M  V30 30 N -1.806583 -2.503721 -6.376524 0
M  V30 31 C -0.650014 -1.633077 -6.149983 0
M  V30 32 C -1.545494 -3.802015 -5.798657 0
M  V30 33 C -2.493580 -0.359003 -3.910671 0
M  V30 34 C -2.419295 -0.064057 -2.563475 0
M  V30 35 C -1.393045 -0.843509 2.449722 0
M  V30 36 H 0.656051 -3.931058 3.349203 0
M  V30 37 H -0.963934 -3.390098 2.652024 0
M  V30 38 H 0.541143 -2.593422 2.120294 0
M  V30 39 H -0.155206 -2.521641 5.070925 0
M  V30 40 H 0.331214 -0.310119 4.141812 0
M  V30 41 H 5.187399 -1.776687 3.056251 0
M  V30 42 H 7.199602 1.172086 2.837273 0
M  V30 43 H 6.972295 1.689765 2.017780 0
M  V30 44 H 3.517100 4.460112 3.531262 0
M  V30 45 H 1.109407 3.902187 3.975412 0
M  V30 46 H 0.439044 1.523496 4.049642 0
M  V30 47 H -2.543248 -1.753036 5.403210 0
M  V30 48 H -4.610918 -0.672681 4.515515 0
M  V30 49 H -4.592781 0.345672 2.197882 0
M  V30 50 H -2.125769 1.131610 0.046787 0
M  V30 51 H -3.556135 -3.056435 -1.467399 0
M  V30 52 H -3.638975 -3.450026 -3.816326 0
M  V30 53 H -3.133591 -0.933930 -6.427180 0
M  V30 54 H -3.847803 -2.582870 -6.099647 0
M  V30 55 H 0.237268 -2.055293 -6.628363 0
M  V30 56 H -0.862094 -0.601640 -6.483088 0
M  V30 57 H -0.416407 -1.564601 -5.065374 0
M  V30 58 H -1.443582 -3.755413 -4.697744 0
M  V30 59 H -0.575481 -4.185341 -6.182237 0
M  V30 60 H -2.330272 -4.506251 -6.145285 0
M  V30 61 H -2.194633 0.400494 -4.624121 0
M  V30 62 H -2.072234 0.897574 -2.215854 0
M  V30 63 H -0.489554 -0.867270 1.810668 0
M  V30 END ATOM
M  V30 BEGIN BOND
M  V30 1 1 1 2
M  V30 2 1 2 3
M  V30 3 1 3 4
M  V30 4 2 4 5
M  V30 5 1 5 6
M  V30 6 2 6 7
M  V30 7 1 7 8
M  V30 8 2 8 9
M  V30 9 1 9 10
M  V30 10 1 10 11
M  V30 11 2 10 12
M  V30 12 1 9 13
M  V30 13 2 13 14
M  V30 14 1 14 15
M  V30 15 2 15 16
M  V30 16 1 2 17
M  V30 17 2 17 18
M  V30 18 1 18 19
M  V30 19 2 19 20
M  V30 20 1 20 21
M  V30 21 1 21 22
M  V30 22 1 22 23
M  V30 23 2 23 24
M  V30 24 1 23 25
M  V30 25 2 25 26
M  V30 26 1 26 27
M  V30 27 2 27 28
M  V30 28 1 28 29
M  V30 29 1 29 30
M  V30 30 1 30 31
M  V30 31 1 30 32
M  V30 32 1 28 33
M  V30 33 2 33 34
M  V30 34 2 21 35
M  V30 35 1 16 4
M  V30 36 1 35 17
M  V30 37 1 16 8
M  V30 38 1 34 25
M  V30 39 1 1 36
M  V30 40 1 1 37
M  V30 41 1 1 38
M  V30 42 1 2 39
M  V30 43 1 3 40
M  V30 44 1 6 41
M  V30 45 1 11 42
M  V30 46 1 11 43
M  V30 47 1 13 44
M  V30 48 1 14 45
M  V30 49 1 15 46
M  V30 50 1 18 47
M  V30 51 1 19 48
M  V30 52 1 20 49
M  V30 53 1 22 50
M  V30 54 1 26 51
M  V30 55 1 27 52
M  V30 56 1 29 53
M  V30 57 1 29 54
M  V30 58 1 31 55
M  V30 59 1 31 56
M  V30 60 1 31 57
M  V30 61 1 32 58
M  V30 62 1 32 59
M  V30 63 1 32 60
M  V30 64 1 33 61
M  V30 65 1 34 62
M  V30 66 1 35 63
M  V30 END BOND
M  V30 END CTAB
M  END
>  <Dataset>  (17) 
ChEMBL_Kinases

>  <Ligand_Instance>  (17) 
nan

>  <PDB_ID>  (17) 
nan

>  <Standardized_SMILES>  (17) 
CC(Nc1ncnc2c(C(N)=O)cccc12)c1cccc(NC(=O)c2ccc(CN(C)C)cc2)c1

>  <Name>  (17) 
nan

>  <Pocket>  (17) 
nan

>  <ATP_Site>  (17) 
nan

>  <Peripheral>  (17) 
nan

>  <Num_H_Atoms_ProtBoundConf>  (17) 
nan

>  <Num_Resolved_Atoms>  (17) 
nan

>  <Num_Not_Resolved_Atoms>  (17) 
nan

$$$$
CHEMBL3675487
     RDKit          3D

  0  0  0  0  0  0  0  0  0  0999 V3000
M  V30 BEGIN CTAB
M  V30 COUNTS 57 60 0 0 0
M  V30 BEGIN ATOM
M  V30 1 C 1.753397 -3.071933 4.031004 0
M  V30 2 C 2.401495 -2.467543 2.808275 0
M  V30 3 C 1.610544 -1.342417 2.226647 0
M  V30 4 N 1.410227 -0.230386 3.148592 0
M  V30 5 C 0.669367 0.896993 2.700779 0
M  V30 6 N 0.165177 0.936598 1.456376 0
M  V30 7 C -0.535368 1.946837 0.961480 0
M  V30 8 N -0.796101 3.048800 1.715225 0
M  V30 9 C -0.314934 3.059173 2.964958 0
M  V30 10 C -0.578831 4.176812 3.730244 0
M  V30 11 C -1.347705 5.347565 3.267235 0
M  V30 12 N -1.824835 5.248284 1.914358 0
M  V30 13 O -1.557859 6.339850 4.008379 0
M  V30 14 C -0.091337 4.210785 5.026144 0
M  V30 15 C 0.637392 3.164837 5.547202 0
M  V30 16 C 0.879371 2.065892 4.749744 0
M  V30 17 C 0.413452 2.005934 3.475805 0
M  V30 18 C 0.325234 -1.760124 1.614148 0
M  V30 19 C -0.848206 -1.921006 2.359248 0
M  V30 20 C -2.030191 -2.310533 1.764043 0
M  V30 21 C -2.107999 -2.558779 0.408046 0
M  V30 22 C -0.955213 -2.403136 -0.338179 0
M  V30 23 N -0.898354 -2.626657 -1.742211 0
M  V30 24 C -0.610500 -3.797953 -2.472900 0
M  V30 25 O -0.367796 -4.793918 -1.747224 0
M  V30 26 C -0.617682 -3.759969 -3.932983 0
M  V30 27 C -0.883320 -2.669354 -4.742138 0
M  V30 28 C -0.843670 -2.823834 -6.117100 0
M  V30 29 C -0.544981 -4.041922 -6.702069 0
M  V30 30 C -0.528676 -4.101266 -8.181877 0
M  V30 31 F -1.794121 -4.260834 -8.723781 0
M  V30 32 F 0.332941 -5.099599 -8.647340 0
M  V30 33 F -0.028168 -2.916448 -8.733653 0
M  V30 34 N -0.286610 -5.102687 -5.890896 0
M  V30 35 C -0.318965 -4.977912 -4.539606 0
M  V30 36 C 0.209438 -2.016753 0.263460 0
M  V30 37 H 1.181982 -2.318513 4.609255 0
M  V30 38 H 1.112487 -3.926136 3.724059 0
M  V30 39 H 2.524041 -3.512090 4.728853 0
M  V30 40 H 2.523329 -3.222099 2.024815 0
M  V30 41 H 3.412614 -2.077883 3.035876 0
M  V30 42 H 2.236384 -0.941500 1.375676 0
M  V30 43 H 1.836451 -0.366841 4.067764 0
M  V30 44 H -0.874943 1.828177 -0.064010 0
M  V30 45 H -1.571867 5.674158 1.000152 0
M  V30 46 H -1.591038 5.665077 0.968014 0
M  V30 47 H -0.269632 5.056417 5.659765 0
M  V30 48 H 1.026477 3.181591 6.568302 0
M  V30 49 H 1.442179 1.271198 5.168721 0
M  V30 50 H -0.822931 -1.734634 3.425283 0
M  V30 51 H -2.951905 -2.444049 2.306659 0
M  V30 52 H -2.987275 -2.866489 -0.139962 0
M  V30 53 H -1.124289 -1.701222 -2.172319 0
M  V30 54 H -1.107758 -1.754606 -4.211893 0
M  V30 55 H -1.070243 -1.894403 -6.639873 0
M  V30 56 H -0.085298 -5.935741 -4.074323 0
M  V30 57 H 1.126634 -1.887559 -0.299159 0
M  V30 END ATOM
M  V30 BEGIN BOND
M  V30 1 1 1 2
M  V30 2 1 2 3
M  V30 3 1 3 4
M  V30 4 1 4 5
M  V30 5 2 5 6
M  V30 6 1 6 7
M  V30 7 2 7 8
M  V30 8 1 8 9
M  V30 9 2 9 10
M  V30 10 1 10 11
M  V30 11 1 11 12
M  V30 12 2 11 13
M  V30 13 1 10 14
M  V30 14 2 14 15
M  V30 15 1 15 16
M  V30 16 2 16 17
M  V30 17 1 3 18
M  V30 18 2 18 19
M  V30 19 1 19 20
M  V30 20 2 20 21
M  V30 21 1 21 22
M  V30 22 1 22 23
M  V30 23 1 23 24
M  V30 24 2 24 25
M  V30 25 1 24 26
M  V30 26 2 26 27
M  V30 27 1 27 28
M  V30 28 2 28 29
M  V30 29 1 29 30
M  V30 30 1 30 31
M  V30 31 1 30 32
M  V30 32 1 30 33
M  V30 33 1 29 34
M  V30 34 2 34 35
M  V30 35 2 22 36
M  V30 36 1 17 5
M  V30 37 1 36 18
M  V30 38 1 17 9
M  V30 39 1 35 26
M  V30 40 1 1 37
M  V30 41 1 1 38
M  V30 42 1 1 39
M  V30 43 1 2 40
M  V30 44 1 2 41
M  V30 45 1 3 42
M  V30 46 1 4 43
M  V30 47 1 7 44
M  V30 48 1 12 45
M  V30 49 1 12 46
M  V30 50 1 14 47
M  V30 51 1 15 48
M  V30 52 1 16 49
M  V30 53 1 19 50
M  V30 54 1 20 51
M  V30 55 1 21 52
M  V30 56 1 23 53
M  V30 57 1 27 54
M  V30 58 1 28 55
M  V30 59 1 35 56
M  V30 60 1 36 57
M  V30 END BOND
M  V30 END CTAB
M  END
>  <Dataset>  (18) 
ChEMBL_Kinases

>  <Ligand_Instance>  (18) 
nan

>  <PDB_ID>  (18) 
nan

>  <Standardized_SMILES>  (18) 
CCC(Nc1ncnc2c(C(N)=O)cccc12)c1cccc(NC(=O)c2ccc(C(F)(F)F)nc2)c1

>  <Name>  (18) 
nan

>  <Pocket>  (18) 
nan

>  <ATP_Site>  (18) 
nan

>  <Peripheral>  (18) 
nan

>  <Num_H_Atoms_ProtBoundConf>  (18) 
nan

>  <Num_Resolved_Atoms>  (18) 
nan

>  <Num_Not_Resolved_Atoms>  (18) 
nan

$$$$
CHEMBL3685263
     RDKit          3D

  0  0  0  0  0  0  0  0  0  0999 V3000
M  V30 BEGIN CTAB
M  V30 COUNTS 53 56 0 0 0
M  V30 BEGIN ATOM
M  V30 1 C -0.375735 0.433109 4.723796 0
M  V30 2 C -1.070236 1.119497 3.567290 0
M  V30 3 N -0.177604 1.816815 2.682048 0
M  V30 4 C 1.038375 1.261543 2.177320 0
M  V30 5 N 1.509456 0.048269 2.493153 0
M  V30 6 C 2.659502 -0.466508 2.038512 0
M  V30 7 N 3.457827 0.218411 1.200780 0
M  V30 8 C 3.046065 1.459981 0.833971 0
M  V30 9 C 3.863891 2.162224 -0.024586 0
M  V30 10 C 5.106924 1.577809 -0.502613 0
M  V30 11 N 5.562281 0.280503 -0.137259 0
M  V30 12 O 5.879278 2.190785 -1.286674 0
M  V30 13 C 3.530399 3.416819 -0.446481 0
M  V30 14 C 2.330087 3.958360 0.025903 0
M  V30 15 C 1.557925 3.202830 0.882886 0
M  V30 16 C 1.861413 1.951408 1.321798 0
M  V30 17 C -2.007838 0.180434 2.937843 0
M  V30 18 C -3.331720 0.126000 3.413549 0
M  V30 19 C -4.345826 -0.681991 2.945269 0
M  V30 20 C -4.038302 -1.528205 1.901452 0
M  V30 21 C -2.759748 -1.536126 1.376178 0
M  V30 22 N -2.473253 -2.406513 0.315431 0
M  V30 23 C -2.523896 -2.342633 -1.098162 0
M  V30 24 O -2.898977 -1.313945 -1.670080 0
M  V30 25 C -2.132650 -3.492833 -1.881640 0
M  V30 26 C -2.207510 -3.358607 -3.253399 0
M  V30 27 C -1.867109 -4.371295 -4.157871 0
M  V30 28 C -1.430085 -5.577088 -3.642952 0
M  V30 29 O -1.073806 -6.631165 -4.483958 0
M  V30 30 C -1.349888 -5.726221 -2.267479 0
M  V30 31 F -0.919067 -6.913703 -1.738774 0
M  V30 32 C -1.696720 -4.696621 -1.386310 0
M  V30 33 C -1.823485 -0.695068 1.911670 0
M  V30 34 H -1.214398 0.084909 5.389120 0
M  V30 35 H 0.331622 1.072604 5.258534 0
M  V30 36 H 0.072311 -0.501673 4.307261 0
M  V30 37 H -1.732586 1.902737 4.098033 0
M  V30 38 H -0.471060 2.759686 2.424492 0
M  V30 39 H 2.978625 -1.452818 2.334958 0
M  V30 40 H 6.191909 -0.130601 0.591440 0
M  V30 41 H 5.018648 -0.212843 -0.903557 0
M  V30 42 H 4.158560 3.970197 -1.112975 0
M  V30 43 H 2.086384 4.952649 -0.321275 0
M  V30 44 H 0.666119 3.723791 1.174185 0
M  V30 45 H -3.617971 0.787557 4.248395 0
M  V30 46 H -5.325203 -0.645798 3.380326 0
M  V30 47 H -4.837917 -2.156767 1.541515 0
M  V30 48 H -2.167901 -3.239777 0.866190 0
M  V30 49 H -2.544357 -2.434979 -3.749375 0
M  V30 50 H -1.937254 -4.232880 -5.222502 0
M  V30 51 H -0.464739 -7.373801 -4.147580 0
M  V30 52 H -1.636613 -4.806891 -0.322491 0
M  V30 53 H -0.868085 -0.745558 1.462294 0
M  V30 END ATOM
M  V30 BEGIN BOND
M  V30 1 1 1 2
M  V30 2 1 2 3
M  V30 3 1 3 4
M  V30 4 2 4 5
M  V30 5 1 5 6
M  V30 6 2 6 7
M  V30 7 1 7 8
M  V30 8 2 8 9
M  V30 9 1 9 10
M  V30 10 1 10 11
M  V30 11 2 10 12
M  V30 12 1 9 13
M  V30 13 2 13 14
M  V30 14 1 14 15
M  V30 15 2 15 16
M  V30 16 1 2 17
M  V30 17 2 17 18
M  V30 18 1 18 19
M  V30 19 2 19 20
M  V30 20 1 20 21
M  V30 21 1 21 22
M  V30 22 1 22 23
M  V30 23 2 23 24
M  V30 24 1 23 25
M  V30 25 2 25 26
M  V30 26 1 26 27
M  V30 27 2 27 28
M  V30 28 1 28 29
M  V30 29 1 28 30
M  V30 30 1 30 31
M  V30 31 2 30 32
M  V30 32 2 21 33
M  V30 33 1 16 4
M  V30 34 1 33 17
M  V30 35 1 16 8
M  V30 36 1 32 25
M  V30 37 1 1 34
M  V30 38 1 1 35
M  V30 39 1 1 36
M  V30 40 1 2 37
M  V30 41 1 3 38
M  V30 42 1 6 39
M  V30 43 1 11 40
M  V30 44 1 11 41
M  V30 45 1 13 42
M  V30 46 1 14 43
M  V30 47 1 15 44
M  V30 48 1 18 45
M  V30 49 1 19 46
M  V30 50 1 20 47
M  V30 51 1 22 48
M  V30 52 1 26 49
M  V30 53 1 27 50
M  V30 54 1 29 51
M  V30 55 1 32 52
M  V30 56 1 33 53
M  V30 END BOND
M  V30 END CTAB
M  END
>  <Dataset>  (19) 
ChEMBL_Kinases

>  <Ligand_Instance>  (19) 
nan

>  <PDB_ID>  (19) 
nan

>  <Standardized_SMILES>  (19) 
CC(Nc1ncnc2c(C(N)=O)cccc12)c1cccc(NC(=O)c2ccc(O)c(F)c2)c1

>  <Name>  (19) 
nan

>  <Pocket>  (19) 
nan

>  <ATP_Site>  (19) 
nan

>  <Peripheral>  (19) 
nan

>  <Num_H_Atoms_ProtBoundConf>  (19) 
nan

>  <Num_Resolved_Atoms>  (19) 
nan

>  <Num_Not_Resolved_Atoms>  (19) 
nan

$$$$
CHEMBL3675491
     RDKit          3D

  0  0  0  0  0  0  0  0  0  0999 V3000
M  V30 BEGIN CTAB
M  V30 COUNTS 52 55 0 0 0
M  V30 BEGIN ATOM
M  V30 1 C -0.562050 -0.027542 4.800641 0
M  V30 2 C -1.273910 0.670392 3.672986 0
M  V30 3 N -0.339754 1.413907 2.844723 0
M  V30 4 C 0.916237 0.841172 2.431769 0
M  V30 5 N 1.267967 -0.385763 2.840270 0
M  V30 6 C 2.428159 -0.972323 2.514491 0
M  V30 7 N 3.322167 -0.316940 1.727293 0
M  V30 8 C 2.985440 0.908454 1.311347 0
M  V30 9 C 3.828469 1.650620 0.512579 0
M  V30 10 C 5.090684 1.051785 0.124150 0
M  V30 11 N 5.525157 -0.250605 0.455124 0
M  V30 12 O 6.178440 1.163384 -0.477268 0
M  V30 13 C 3.577711 2.921737 0.033133 0
M  V30 14 C 2.372626 3.507142 0.383275 0
M  V30 15 C 1.506175 2.800149 1.177165 0
M  V30 16 C 1.810302 1.544912 1.621317 0
M  V30 17 C -2.118936 -0.192022 2.845729 0
M  V30 18 C -3.460316 -0.343888 3.247751 0
M  V30 19 C -4.422165 -1.092041 2.610632 0
M  V30 20 C -4.068122 -1.770736 1.465604 0
M  V30 21 C -2.779375 -1.681808 0.996871 0
M  V30 22 N -2.326652 -2.346617 -0.177405 0
M  V30 23 C -2.293958 -1.931761 -1.526073 0
M  V30 24 O -2.709398 -0.796421 -1.888944 0
M  V30 25 C -1.773620 -2.807964 -2.567866 0
M  V30 26 C -1.773159 -2.312715 -3.869875 0
M  V30 27 C -1.277315 -3.128331 -4.899874 0
M  V30 28 C -0.805819 -4.384970 -4.616596 0
M  V30 29 Cl -0.162686 -5.473837 -5.856604 0
M  V30 30 C -0.792383 -4.912225 -3.319706 0
M  V30 31 F -0.327861 -6.154595 -3.035089 0
M  V30 32 C -1.289770 -4.074611 -2.337540 0
M  V30 33 C -1.888114 -0.911171 1.698298 0
M  V30 34 H -1.104921 0.065721 5.757264 0
M  V30 35 H 0.418096 0.472887 4.960736 0
M  V30 36 H -0.305389 -1.093781 4.582463 0
M  V30 37 H -1.968454 1.407692 4.197053 0
M  V30 38 H -0.663336 2.366500 2.589523 0
M  V30 39 H 2.537624 -1.968989 2.939541 0
M  V30 40 H 5.267141 -1.237300 0.635537 0
M  V30 41 H 5.277078 -1.236616 0.636524 0
M  V30 42 H 4.306455 3.425690 -0.590250 0
M  V30 43 H 2.174784 4.493037 0.013512 0
M  V30 44 H 0.596303 3.306516 1.409369 0
M  V30 45 H -3.807305 0.173742 4.155959 0
M  V30 46 H -5.417438 -1.158860 2.976247 0
M  V30 47 H -4.764798 -2.377085 0.911299 0
M  V30 48 H -1.989997 -3.279447 0.151078 0
M  V30 49 H -2.132686 -1.333439 -4.142234 0
M  V30 50 H -1.246131 -2.816421 -5.918813 0
M  V30 51 H -1.286089 -4.466094 -1.336353 0
M  V30 52 H -0.890767 -0.845060 1.312926 0
M  V30 END ATOM
M  V30 BEGIN BOND
M  V30 1 1 1 2
M  V30 2 1 2 3
M  V30 3 1 3 4
M  V30 4 2 4 5
M  V30 5 1 5 6
M  V30 6 2 6 7
M  V30 7 1 7 8
M  V30 8 2 8 9
M  V30 9 1 9 10
M  V30 10 1 10 11
M  V30 11 2 10 12
M  V30 12 1 9 13
M  V30 13 2 13 14
M  V30 14 1 14 15
M  V30 15 2 15 16
M  V30 16 1 2 17
M  V30 17 2 17 18
M  V30 18 1 18 19
M  V30 19 2 19 20
M  V30 20 1 20 21
M  V30 21 1 21 22
M  V30 22 1 22 23
M  V30 23 2 23 24
M  V30 24 1 23 25
M  V30 25 2 25 26
M  V30 26 1 26 27
M  V30 27 2 27 28
M  V30 28 1 28 29
M  V30 29 1 28 30
M  V30 30 1 30 31
M  V30 31 2 30 32
M  V30 32 2 21 33
M  V30 33 1 16 4
M  V30 34 1 33 17
M  V30 35 1 16 8
M  V30 36 1 32 25
M  V30 37 1 1 34
M  V30 38 1 1 35
M  V30 39 1 1 36
M  V30 40 1 2 37
M  V30 41 1 3 38
M  V30 42 1 6 39
M  V30 43 1 11 40
M  V30 44 1 11 41
M  V30 45 1 13 42
M  V30 46 1 14 43
M  V30 47 1 15 44
M  V30 48 1 18 45
M  V30 49 1 19 46
M  V30 50 1 20 47
M  V30 51 1 22 48
M  V30 52 1 26 49
M  V30 53 1 27 50
M  V30 54 1 32 51
M  V30 55 1 33 52
M  V30 END BOND
M  V30 END CTAB
M  END
>  <Dataset>  (20) 
ChEMBL_Kinases

>  <Ligand_Instance>  (20) 
nan

>  <PDB_ID>  (20) 
nan

>  <Standardized_SMILES>  (20) 
CC(Nc1ncnc2c(C(N)=O)cccc12)c1cccc(NC(=O)c2ccc(Cl)c(F)c2)c1

>  <Name>  (20) 
nan

>  <Pocket>  (20) 
nan

>  <ATP_Site>  (20) 
nan

>  <Peripheral>  (20) 
nan

>  <Num_H_Atoms_ProtBoundConf>  (20) 
nan

>  <Num_Resolved_Atoms>  (20) 
nan

>  <Num_Not_Resolved_Atoms>  (20) 
nan

$$$$
CHEMBL3675510
     RDKit          3D

  0  0  0  0  0  0  0  0  0  0999 V3000
M  V30 BEGIN CTAB
M  V30 COUNTS 51 54 0 0 0
M  V30 BEGIN ATOM
M  V30 1 N 2.205846 -4.585061 3.921149 0
M  V30 2 C 3.495434 -4.061981 4.247437 0
M  V30 3 O 4.137259 -4.611396 5.179040 0
M  V30 4 C 4.046877 -2.924703 3.519105 0
M  V30 5 C 5.281094 -2.441232 3.847666 0
M  V30 6 C 5.750540 -1.360283 3.120519 0
M  V30 7 C 4.980021 -0.832696 2.127532 0
M  V30 8 C 3.744733 -1.281592 1.765442 0
M  V30 9 C 2.990377 -0.725764 0.755993 0
M  V30 10 N 3.481032 0.375327 0.019256 0
M  V30 11 C 2.797003 1.059532 -1.065379 0
M  V30 12 C 1.518266 1.666161 -0.613665 0
M  V30 13 C 1.613973 2.940609 -0.039613 0
M  V30 14 C 0.461220 3.559456 0.387386 0
M  V30 15 C -0.740123 2.931736 0.247314 0
M  V30 16 C -0.881167 1.677063 -0.312283 0
M  V30 17 N -2.176744 1.119866 -0.408323 0
M  V30 18 C -2.612577 -0.108974 -0.918758 0
M  V30 19 O -1.734419 -0.879093 -1.380590 0
M  V30 20 C -3.991540 -0.567302 -0.959168 0
M  V30 21 C -5.051103 0.092428 -0.525635 0
M  V30 22 C -6.489587 -0.284469 -0.521322 0
M  V30 23 F -7.138289 0.658048 -1.330611 0
M  V30 24 C -6.769211 -1.631080 -1.105065 0
M  V30 25 Cl -7.514461 -2.637950 0.172897 0
M  V30 26 C -5.561861 -2.318407 -1.569494 0
M  V30 27 C -4.332527 -1.872038 -1.516141 0
M  V30 28 C 0.279169 1.111501 -0.715950 0
M  V30 29 N 1.821972 -1.308691 0.563969 0
M  V30 30 C 1.321118 -2.353140 1.236407 0
M  V30 31 N 2.080790 -2.889886 2.231116 0
M  V30 32 C 3.306643 -2.355591 2.506004 0
M  V30 33 H 1.337580 -4.184683 4.329852 0
M  V30 34 H 1.860655 -5.358269 3.305100 0
M  V30 35 H 5.815498 -2.919339 4.642935 0
M  V30 36 H 6.728803 -0.990321 3.393513 0
M  V30 37 H 5.439621 0.001971 1.628118 0
M  V30 38 H 4.390590 0.798271 0.193393 0
M  V30 39 H 3.379541 1.889978 -1.509477 0
M  V30 40 H 2.607957 0.350649 -1.914000 0
M  V30 41 H 2.538117 3.472130 0.090486 0
M  V30 42 H 0.506710 4.542369 0.833632 0
M  V30 43 H -1.626675 3.477456 0.607991 0
M  V30 44 H -2.988497 1.689221 -0.046845 0
M  V30 45 H -4.904207 1.072585 -0.093736 0
M  V30 46 H -6.948046 -0.150405 0.478288 0
M  V30 47 H -7.483989 -1.597052 -1.961553 0
M  V30 48 H -5.778744 -3.293049 -1.990221 0
M  V30 49 H -3.559818 -2.530119 -1.913544 0
M  V30 50 H 0.271727 0.153322 -1.167134 0
M  V30 51 H 0.341123 -2.711817 0.951624 0
M  V30 END ATOM
M  V30 BEGIN BOND
M  V30 1 1 1 2
M  V30 2 2 2 3
M  V30 3 1 2 4
M  V30 4 2 4 5
M  V30 5 1 5 6
M  V30 6 2 6 7
M  V30 7 1 7 8
M  V30 8 2 8 9
M  V30 9 1 9 10
M  V30 10 1 10 11
M  V30 11 1 11 12
M  V30 12 2 12 13
M  V30 13 1 13 14
M  V30 14 2 14 15
M  V30 15 1 15 16
M  V30 16 1 16 17
M  V30 17 1 17 18
M  V30 18 2 18 19
M  V30 19 1 18 20
M  V30 20 2 20 21
M  V30 21 1 21 22
M  V30 22 1 22 23
M  V30 23 1 22 24
M  V30 24 1 24 25
M  V30 25 1 24 26
M  V30 26 2 26 27
M  V30 27 2 16 28
M  V30 28 1 9 29
M  V30 29 2 29 30
M  V30 30 1 30 31
M  V30 31 2 31 32
M  V30 32 1 32 4
M  V30 33 1 32 8
M  V30 34 1 28 12
M  V30 35 1 27 20
M  V30 36 1 1 33
M  V30 37 1 1 34
M  V30 38 1 5 35
M  V30 39 1 6 36
M  V30 40 1 7 37
M  V30 41 1 10 38
M  V30 42 1 11 39
M  V30 43 1 11 40
M  V30 44 1 13 41
M  V30 45 1 14 42
M  V30 46 1 15 43
M  V30 47 1 17 44
M  V30 48 1 21 45
M  V30 49 1 22 46
M  V30 50 1 24 47
M  V30 51 1 26 48
M  V30 52 1 27 49
M  V30 53 1 28 50
M  V30 54 1 30 51
M  V30 END BOND
M  V30 END CTAB
M  END
>  <Dataset>  (21) 
ChEMBL_Kinases

>  <Ligand_Instance>  (21) 
nan

>  <PDB_ID>  (21) 
nan

>  <Standardized_SMILES>  (21) 
NC(=O)c1cccc2c(NCc3cccc(NC(=O)C4=CC(F)C(Cl)C=C4)c3)ncnc12

>  <Name>  (21) 
nan

>  <Pocket>  (21) 
nan

>  <ATP_Site>  (21) 
nan

>  <Peripheral>  (21) 
nan

>  <Num_H_Atoms_ProtBoundConf>  (21) 
nan

>  <Num_Resolved_Atoms>  (21) 
nan

>  <Num_Not_Resolved_Atoms>  (21) 
nan

$$$$
CHEMBL3685255
     RDKit          3D

  0  0  0  0  0  0  0  0  0  0999 V3000
M  V30 BEGIN CTAB
M  V30 COUNTS 63 66 0 0 0
M  V30 BEGIN ATOM
M  V30 1 C 2.883892 -1.375605 4.683462 0
M  V30 2 N 2.603731 -2.174974 3.514455 0
M  V30 3 C 2.950331 -3.533517 3.791874 0
M  V30 4 C 3.228703 -1.661709 2.303323 0
M  V30 5 C 2.617674 -0.356388 1.879545 0
M  V30 6 C 1.172256 -0.439541 1.580681 0
M  V30 7 N 0.562644 0.835992 1.221074 0
M  V30 8 C 1.002886 1.563355 0.066949 0
M  V30 9 N 1.980051 1.080562 -0.708399 0
M  V30 10 C 2.424475 1.722779 -1.801880 0
M  V30 11 N 1.894570 2.920100 -2.185502 0
M  V30 12 C 0.903556 3.466846 -1.448448 0
M  V30 13 C 0.332864 4.672283 -1.788603 0
M  V30 14 C 0.788721 5.394804 -2.963232 0
M  V30 15 N 0.239567 6.640600 -3.366711 0
M  V30 16 O 1.642860 5.205726 -3.838203 0
M  V30 17 C -0.676727 5.250385 -1.055306 0
M  V30 18 C -1.106734 4.551371 0.069173 0
M  V30 19 C -0.519225 3.341913 0.392626 0
M  V30 20 C 0.482568 2.772513 -0.338654 0
M  V30 21 C 0.834495 -1.421978 0.483980 0
M  V30 22 C 1.662751 -1.952578 -0.475006 0
M  V30 23 C 1.242887 -2.864065 -1.414160 0
M  V30 24 C -0.068227 -3.290024 -1.425630 0
M  V30 25 C -0.920396 -2.772909 -0.475141 0
M  V30 26 N -2.280545 -3.192748 -0.464506 0
M  V30 27 C -2.887396 -4.284814 0.209814 0
M  V30 28 O -2.075649 -4.963347 0.890042 0
M  V30 29 C -4.321792 -4.455790 0.020610 0
M  V30 30 C -5.196437 -3.677737 -0.709590 0
M  V30 31 C -6.524370 -4.050549 -0.739915 0
M  V30 32 C -7.004388 -5.159856 -0.074517 0
M  V30 33 C -6.118729 -5.944373 0.662763 0
M  V30 34 C -4.781057 -5.573447 0.696507 0
M  V30 35 C -0.479491 -1.857406 0.461502 0
M  V30 36 H 3.845011 -0.807154 4.555494 0
M  V30 37 H 2.948501 -1.983107 5.614902 0
M  V30 38 H 2.034381 -0.676661 4.845706 0
M  V30 39 H 2.199763 -3.904460 4.546113 0
M  V30 40 H 2.900189 -4.220723 2.939838 0
M  V30 41 H 3.933503 -3.667525 4.302121 0
M  V30 42 H 4.299733 -1.471459 2.591636 0
M  V30 43 H 3.215145 -2.452383 1.559724 0
M  V30 44 H 3.217000 0.109708 1.054884 0
M  V30 45 H 2.737881 0.380894 2.727298 0
M  V30 46 H 0.633263 -0.830269 2.471900 0
M  V30 47 H -0.192639 1.182062 1.834438 0
M  V30 48 H 3.222602 1.249011 -2.367355 0
M  V30 49 H 0.528114 7.599489 -3.041638 0
M  V30 50 H 0.641240 7.521945 -2.946264 0
M  V30 51 H -1.111816 6.199643 -1.340024 0
M  V30 52 H -1.900163 5.007842 0.643820 0
M  V30 53 H -0.928750 2.902741 1.269601 0
M  V30 54 H 2.682742 -1.608108 -0.485155 0
M  V30 55 H 1.980755 -3.215937 -2.122628 0
M  V30 56 H -0.378303 -4.007889 -2.172151 0
M  V30 57 H -2.735062 -2.486410 -1.086456 0
M  V30 58 H -4.734879 -2.837352 -1.189809 0
M  V30 59 H -7.158479 -3.408397 -1.321606 0
M  V30 60 H -8.079158 -5.365203 -0.165855 0
M  V30 61 H -6.530754 -6.804077 1.168456 0
M  V30 62 H -4.198947 -6.258176 1.299060 0
M  V30 63 H -1.216657 -1.496488 1.179265 0
M  V30 END ATOM
M  V30 BEGIN BOND
M  V30 1 1 1 2
M  V30 2 1 2 3
M  V30 3 1 2 4
M  V30 4 1 4 5
M  V30 5 1 5 6
M  V30 6 1 6 7
M  V30 7 1 7 8
M  V30 8 2 8 9
M  V30 9 1 9 10
M  V30 10 2 10 11
M  V30 11 1 11 12
M  V30 12 2 12 13
M  V30 13 1 13 14
M  V30 14 1 14 15
M  V30 15 2 14 16
M  V30 16 1 13 17
M  V30 17 2 17 18
M  V30 18 1 18 19
M  V30 19 2 19 20
M  V30 20 1 6 21
M  V30 21 2 21 22
M  V30 22 1 22 23
M  V30 23 2 23 24
M  V30 24 1 24 25
M  V30 25 1 25 26
M  V30 26 1 26 27
M  V30 27 2 27 28
M  V30 28 1 27 29
M  V30 29 2 29 30
M  V30 30 1 30 31
M  V30 31 2 31 32
M  V30 32 1 32 33
M  V30 33 2 33 34
M  V30 34 2 25 35
M  V30 35 1 20 8
M  V30 36 1 35 21
M  V30 37 1 20 12
M  V30 38 1 34 29
M  V30 39 1 1 36
M  V30 40 1 1 37
M  V30 41 1 1 38
M  V30 42 1 3 39
M  V30 43 1 3 40
M  V30 44 1 3 41
M  V30 45 1 4 42
M  V30 46 1 4 43
M  V30 47 1 5 44
M  V30 48 1 5 45
M  V30 49 1 6 46
M  V30 50 1 7 47
M  V30 51 1 10 48
M  V30 52 1 15 49
M  V30 53 1 15 50
M  V30 54 1 17 51
M  V30 55 1 18 52
M  V30 56 1 19 53
M  V30 57 1 22 54
M  V30 58 1 23 55
M  V30 59 1 24 56
M  V30 60 1 26 57
M  V30 61 1 30 58
M  V30 62 1 31 59
M  V30 63 1 32 60
M  V30 64 1 33 61
M  V30 65 1 34 62
M  V30 66 1 35 63
M  V30 END BOND
M  V30 END CTAB
M  END
>  <Dataset>  (22) 
ChEMBL_Kinases

>  <Ligand_Instance>  (22) 
nan

>  <PDB_ID>  (22) 
nan

>  <Standardized_SMILES>  (22) 
CN(C)CCC(Nc1ncnc2c(C(N)=O)cccc12)c1cccc(NC(=O)c2ccccc2)c1

>  <Name>  (22) 
nan

>  <Pocket>  (22) 
nan

>  <ATP_Site>  (22) 
nan

>  <Peripheral>  (22) 
nan

>  <Num_H_Atoms_ProtBoundConf>  (22) 
nan

>  <Num_Resolved_Atoms>  (22) 
nan

>  <Num_Not_Resolved_Atoms>  (22) 
nan

$$$$
CHEMBL3675493
     RDKit          3D

  0  0  0  0  0  0  0  0  0  0999 V3000
M  V30 BEGIN CTAB
M  V30 COUNTS 53 56 0 0 0
M  V30 BEGIN ATOM
M  V30 1 C -1.858004 2.468481 2.936677 0
M  V30 2 C -1.065280 2.021717 1.710925 0
M  V30 3 N 0.147385 1.388169 1.995901 0
M  V30 4 C 1.354783 0.727982 2.297987 0
M  V30 5 N 1.607449 -0.393082 2.993703 0
M  V30 6 C 2.832433 -0.873568 3.193402 0
M  V30 7 N 3.865193 -0.220021 2.683369 0
M  V30 8 C 3.717968 0.894736 1.982015 0
M  V30 9 C 4.880257 1.467322 1.509993 0
M  V30 10 C 6.216135 0.939193 1.727043 0
M  V30 11 N 6.475380 -0.240672 2.459576 0
M  V30 12 O 7.267321 1.472941 1.290152 0
M  V30 13 C 4.796160 2.625064 0.772937 0
M  V30 14 C 3.554908 3.166667 0.535715 0
M  V30 15 C 2.432325 2.551519 1.031470 0
M  V30 16 C 2.467494 1.384228 1.779057 0
M  V30 17 C -1.987305 1.349687 0.757530 0
M  V30 18 C -2.686666 2.049460 -0.235704 0
M  V30 19 C -3.542525 1.426844 -1.122513 0
M  V30 20 C -3.709817 0.059994 -1.019013 0
M  V30 21 C -3.016133 -0.638159 -0.033608 0
M  V30 22 N -3.331819 -2.045998 -0.104348 0
M  V30 23 C -2.464065 -2.719580 -0.972693 0
M  V30 24 O -1.523961 -2.184629 -1.616117 0
M  V30 25 C -2.620016 -4.145574 -1.180805 0
M  V30 26 C -1.876419 -4.899750 -1.968076 0
M  V30 27 C -1.884583 -6.333484 -2.299352 0
M  V30 28 C -2.966806 -7.079672 -1.591664 0
M  V30 29 Cl -4.097656 -7.664099 -2.885357 0
M  V30 30 N -3.745769 -6.246220 -0.755485 0
M  V30 31 C -3.611288 -5.016634 -0.574667 0
M  V30 32 C -2.165704 -0.013553 0.845963 0
M  V30 33 H -1.605724 3.517139 3.202218 0
M  V30 34 H -1.564720 1.782619 3.749282 0
M  V30 35 H -2.931421 2.332562 2.714210 0
M  V30 36 H -0.801684 2.999320 1.162587 0
M  V30 37 H -0.503615 0.681427 2.471159 0
M  V30 38 H 2.877879 -1.787890 3.774948 0
M  V30 39 H 6.872336 -0.288370 3.427285 0
M  V30 40 H 6.644337 -1.123376 2.946593 0
M  V30 41 H 5.716470 3.061990 0.409889 0
M  V30 42 H 3.470519 4.082265 -0.045329 0
M  V30 43 H 1.500487 3.013015 0.816191 0
M  V30 44 H -2.523985 3.116844 -0.279135 0
M  V30 45 H -4.032062 2.059950 -1.847916 0
M  V30 46 H -4.395195 -0.352473 -1.747692 0
M  V30 47 H -4.116349 -2.512812 0.429204 0
M  V30 48 H -1.055513 -4.407919 -2.524511 0
M  V30 49 H -0.905001 -6.800084 -1.951746 0
M  V30 50 H -1.932471 -6.451211 -3.410727 0
M  V30 51 H -2.568331 -7.985587 -1.052276 0
M  V30 52 H -4.327508 -4.558017 0.121752 0
M  V30 53 H -1.693756 -0.672686 1.557606 0
M  V30 END ATOM
M  V30 BEGIN BOND
M  V30 1 1 1 2
M  V30 2 1 2 3
M  V30 3 1 3 4
M  V30 4 2 4 5
M  V30 5 1 5 6
M  V30 6 2 6 7
M  V30 7 1 7 8
M  V30 8 2 8 9
M  V30 9 1 9 10
M  V30 10 1 10 11
M  V30 11 2 10 12
M  V30 12 1 9 13
M  V30 13 2 13 14
M  V30 14 1 14 15
M  V30 15 2 15 16
M  V30 16 1 2 17
M  V30 17 2 17 18
M  V30 18 1 18 19
M  V30 19 2 19 20
M  V30 20 1 20 21
M  V30 21 1 21 22
M  V30 22 1 22 23
M  V30 23 2 23 24
M  V30 24 1 23 25
M  V30 25 2 25 26
M  V30 26 1 26 27
M  V30 27 1 27 28
M  V30 28 1 28 29
M  V30 29 1 28 30
M  V30 30 2 30 31
M  V30 31 2 21 32
M  V30 32 1 16 4
M  V30 33 1 32 17
M  V30 34 1 16 8
M  V30 35 1 31 25
M  V30 36 1 1 33
M  V30 37 1 1 34
M  V30 38 1 1 35
M  V30 39 1 2 36
M  V30 40 1 3 37
M  V30 41 1 6 38
M  V30 42 1 11 39
M  V30 43 1 11 40
M  V30 44 1 13 41
M  V30 45 1 14 42
M  V30 46 1 15 43
M  V30 47 1 18 44
M  V30 48 1 19 45
M  V30 49 1 20 46
M  V30 50 1 22 47
M  V30 51 1 26 48
M  V30 52 1 27 49
M  V30 53 1 27 50
M  V30 54 1 28 51
M  V30 55 1 31 52
M  V30 56 1 32 53
M  V30 END BOND
M  V30 END CTAB
M  END
>  <Dataset>  (23) 
ChEMBL_Kinases

>  <Ligand_Instance>  (23) 
nan

>  <PDB_ID>  (23) 
nan

>  <Standardized_SMILES>  (23) 
CC(Nc1ncnc2c(C(N)=O)cccc12)c1cccc(NC(=O)C2=CCC(Cl)N=C2)c1

>  <Name>  (23) 
nan

>  <Pocket>  (23) 
nan

>  <ATP_Site>  (23) 
nan

>  <Peripheral>  (23) 
nan

>  <Num_H_Atoms_ProtBoundConf>  (23) 
nan

>  <Num_Resolved_Atoms>  (23) 
nan

>  <Num_Not_Resolved_Atoms>  (23) 
nan

$$$$
CHEMBL3685246
     RDKit          3D

  0  0  0  0  0  0  0  0  0  0999 V3000
M  V30 BEGIN CTAB
M  V30 COUNTS 66 69 0 0 0
M  V30 BEGIN ATOM
M  V30 1 C 7.398553 -1.581294 5.755341 0
M  V30 2 O 6.668535 -2.063221 4.645494 0
M  V30 3 C 5.885170 -1.245673 3.837371 0
M  V30 4 C 5.748481 0.105413 4.043171 0
M  V30 5 C 4.959350 0.881755 3.215509 0
M  V30 6 C 4.299532 0.295366 2.168880 0
M  V30 7 C 3.420350 0.954969 1.187762 0
M  V30 8 O 2.825243 0.367836 0.225336 0
M  V30 9 N 3.126843 2.361923 1.202771 0
M  V30 10 C 2.240599 2.620253 0.096251 0
M  V30 11 C 2.718348 2.950911 -1.154863 0
M  V30 12 C 1.799689 3.181596 -2.157861 0
M  V30 13 C 0.444657 3.092361 -1.947707 0
M  V30 14 C -0.073026 2.764943 -0.715388 0
M  V30 15 C -1.501888 2.613454 -0.331176 0
M  V30 16 N -1.866577 1.238132 -0.424022 0
M  V30 17 C -1.853478 0.424983 -1.583824 0
M  V30 18 N -1.491826 0.832558 -2.806918 0
M  V30 19 C -1.461715 0.126094 -3.920159 0
M  V30 20 N -1.831652 -1.165511 -3.863862 0
M  V30 21 C -2.222462 -1.707329 -2.680634 0
M  V30 22 C -2.593966 -3.029105 -2.658020 0
M  V30 23 C -2.560688 -3.801406 -3.876568 0
M  V30 24 N -2.923464 -5.165230 -3.951126 0
M  V30 25 O -2.190512 -3.261021 -4.962854 0
M  V30 26 C -2.996756 -3.614935 -1.476458 0
M  V30 27 C -3.020277 -2.849653 -0.315707 0
M  V30 28 C -3.457712 -3.508276 0.945165 0
M  V30 29 C -4.912225 -3.450085 1.209069 0
M  V30 30 C -5.554568 -2.131900 1.346939 0
M  V30 31 C -5.089573 -1.242515 2.431972 0
M  V30 32 O -5.798105 -0.018515 2.431952 0
M  V30 33 C -2.633642 -1.531068 -0.416667 0
M  V30 34 C -2.225049 -0.902378 -1.568281 0
M  V30 35 C 0.873954 2.541014 0.265000 0
M  V30 36 C 4.443411 -1.065210 1.969942 0
M  V30 37 C 5.224020 -1.844057 2.785533 0
M  V30 38 H 7.531216 -2.444072 6.468980 0
M  V30 39 H 8.359242 -1.146768 5.440763 0
M  V30 40 H 6.826688 -0.815504 6.281150 0
M  V30 41 H 6.259762 0.576517 4.859075 0
M  V30 42 H 4.808441 1.941291 3.318563 0
M  V30 43 H 3.566176 2.945154 1.956460 0
M  V30 44 H 3.790059 3.010871 -1.279260 0
M  V30 45 H 2.159481 3.443513 -3.150530 0
M  V30 46 H -0.261776 3.283207 -2.731327 0
M  V30 47 H -2.132283 3.275978 -0.971416 0
M  V30 48 H -1.587146 2.966012 0.711680 0
M  V30 49 H -2.169154 0.820890 0.472526 0
M  V30 50 H -1.129105 0.706690 -4.763837 0
M  V30 51 H -2.398659 -5.818967 -4.582971 0
M  V30 52 H -3.719695 -5.534789 -3.375860 0
M  V30 53 H -3.291733 -4.660704 -1.453543 0
M  V30 54 H -3.191615 -4.582551 0.852801 0
M  V30 55 H -2.830488 -3.159481 1.806239 0
M  V30 56 H -5.414112 -3.982962 0.353415 0
M  V30 57 H -5.110759 -4.110559 2.080880 0
M  V30 58 H -5.472696 -1.553366 0.380614 0
M  V30 59 H -6.646921 -2.294407 1.460065 0
M  V30 60 H -4.034801 -1.001406 2.483561 0
M  V30 61 H -5.352413 -1.685922 3.438844 0
M  V30 62 H -5.955251 0.333573 3.332245 0
M  V30 63 H -2.682034 -1.024334 0.521431 0
M  V30 64 H 0.542518 2.274181 1.280434 0
M  V30 65 H 3.946785 -1.600179 1.155374 0
M  V30 66 H 5.329480 -2.911384 2.619520 0
M  V30 END ATOM
M  V30 BEGIN BOND
M  V30 1 1 1 2
M  V30 2 1 2 3
M  V30 3 2 3 4
M  V30 4 1 4 5
M  V30 5 2 5 6
M  V30 6 1 6 7
M  V30 7 2 7 8
M  V30 8 1 7 9
M  V30 9 1 9 10
M  V30 10 2 10 11
M  V30 11 1 11 12
M  V30 12 2 12 13
M  V30 13 1 13 14
M  V30 14 1 14 15
M  V30 15 1 15 16
M  V30 16 1 16 17
M  V30 17 2 17 18
M  V30 18 1 18 19
M  V30 19 2 19 20
M  V30 20 1 20 21
M  V30 21 2 21 22
M  V30 22 1 22 23
M  V30 23 1 23 24
M  V30 24 2 23 25
M  V30 25 1 22 26
M  V30 26 2 26 27
M  V30 27 1 27 28
M  V30 28 1 28 29
M  V30 29 1 29 30
M  V30 30 1 30 31
M  V30 31 1 31 32
M  V30 32 1 27 33
M  V30 33 2 33 34
M  V30 34 2 14 35
M  V30 35 1 6 36
M  V30 36 2 36 37
M  V30 37 1 37 3
M  V30 38 1 35 10
M  V30 39 1 34 17
M  V30 40 1 34 21
M  V30 41 1 1 38
M  V30 42 1 1 39
M  V30 43 1 1 40
M  V30 44 1 4 41
M  V30 45 1 5 42
M  V30 46 1 9 43
M  V30 47 1 11 44
M  V30 48 1 12 45
M  V30 49 1 13 46
M  V30 50 1 15 47
M  V30 51 1 15 48
M  V30 52 1 16 49
M  V30 53 1 19 50
M  V30 54 1 24 51
M  V30 55 1 24 52
M  V30 56 1 26 53
M  V30 57 1 28 54
M  V30 58 1 28 55
M  V30 59 1 29 56
M  V30 60 1 29 57
M  V30 61 1 30 58
M  V30 62 1 30 59
M  V30 63 1 31 60
M  V30 64 1 31 61
M  V30 65 1 32 62
M  V30 66 1 33 63
M  V30 67 1 35 64
M  V30 68 1 36 65
M  V30 69 1 37 66
M  V30 END BOND
M  V30 END CTAB
M  END
>  <Dataset>  (24) 
ChEMBL_Kinases

>  <Ligand_Instance>  (24) 
nan

>  <PDB_ID>  (24) 
nan

>  <Standardized_SMILES>  (24) 
COc1ccc(C(=O)Nc2cccc(CNc3ncnc4c(C(N)=O)cc(CCCCO)cc34)c2)cc1

>  <Name>  (24) 
nan

>  <Pocket>  (24) 
nan

>  <ATP_Site>  (24) 
nan

>  <Peripheral>  (24) 
nan

>  <Num_H_Atoms_ProtBoundConf>  (24) 
nan

>  <Num_Resolved_Atoms>  (24) 
nan

>  <Num_Not_Resolved_Atoms>  (24) 
nan

$$$$
CHEMBL3685244
     RDKit          3D

  0  0  0  0  0  0  0  0  0  0999 V3000
M  V30 BEGIN CTAB
M  V30 COUNTS 64 67 0 0 0
M  V30 BEGIN ATOM
M  V30 1 C 5.286837 3.271394 3.737610 0
M  V30 2 O 4.272062 2.333343 3.905982 0
M  V30 3 C 4.674149 1.047378 3.736340 0
M  V30 4 C 5.183099 0.650099 2.387349 0
M  V30 5 O 4.302717 0.772468 1.393769 0
M  V30 6 C 3.499883 1.479675 0.655571 0
M  V30 7 C 3.195958 2.818171 0.678201 0
M  V30 8 C 2.321462 3.459657 -0.161614 0
M  V30 9 C 2.085876 4.873743 -0.035193 0
M  V30 10 N 1.143117 5.475530 -0.903999 0
M  V30 11 O 2.639189 5.647297 0.779155 0
M  V30 12 C 1.701041 2.678091 -1.107246 0
M  V30 13 N 0.855558 3.293367 -1.927262 0
M  V30 14 C 0.220969 2.589551 -2.874047 0
M  V30 15 N 0.450753 1.273987 -2.977551 0
M  V30 16 C 1.282751 0.592806 -2.191641 0
M  V30 17 N 1.469926 -0.783617 -2.364256 0
M  V30 18 C 0.838134 -1.628331 -3.352794 0
M  V30 19 C -0.635850 -1.669611 -3.239145 0
M  V30 20 C -1.572494 -0.909426 -3.903732 0
M  V30 21 C -2.926837 -1.033038 -3.709702 0
M  V30 22 C -3.428155 -1.954615 -2.811347 0
M  V30 23 C -2.514322 -2.730381 -2.131482 0
M  V30 24 N -3.084753 -3.664290 -1.222009 0
M  V30 25 C -3.327643 -3.261052 0.113717 0
M  V30 26 O -2.961986 -2.042150 0.267070 0
M  V30 27 C -3.904305 -4.109792 1.144638 0
M  V30 28 C -4.285386 -5.428334 1.032504 0
M  V30 29 C -4.821455 -6.074500 2.126858 0
M  V30 30 C -5.007566 -5.477882 3.356123 0
M  V30 31 O -5.548584 -6.215126 4.372440 0
M  V30 32 C -5.788128 -5.716168 5.671280 0
M  V30 33 C -4.616224 -4.136812 3.458008 0
M  V30 34 C -4.078257 -3.487320 2.361471 0
M  V30 35 C -1.155268 -2.600471 -2.331028 0
M  V30 36 C 1.924595 1.322582 -1.228953 0
M  V30 37 C 2.815228 0.768316 -0.344728 0
M  V30 38 H 4.835612 4.270593 3.891566 0
M  V30 39 H 6.071627 3.185834 4.516898 0
M  V30 40 H 5.660438 3.208234 2.720792 0
M  V30 41 H 5.438308 0.834212 4.534302 0
M  V30 42 H 3.811459 0.392924 4.009971 0
M  V30 43 H 6.209272 1.075526 2.194406 0
M  V30 44 H 5.429133 -0.463060 2.501197 0
M  V30 45 H 3.678855 3.436417 1.415534 0
M  V30 46 H 0.903816 6.294517 -1.491610 0
M  V30 47 H 0.257361 5.538879 -1.442861 0
M  V30 48 H -0.488118 3.048841 -3.576898 0
M  V30 49 H 2.108523 -1.297684 -1.757391 0
M  V30 50 H 1.150907 -1.322079 -4.393108 0
M  V30 51 H 1.208616 -2.667833 -3.242948 0
M  V30 52 H -1.191811 -0.201424 -4.606942 0
M  V30 53 H -3.584147 -0.371702 -4.297554 0
M  V30 54 H -4.506044 -1.969511 -2.736116 0
M  V30 55 H -3.335496 -4.656380 -1.511135 0
M  V30 56 H -4.124627 -5.863571 0.057789 0
M  V30 57 H -5.111632 -7.111572 2.008396 0
M  V30 58 H -5.688027 -6.494374 6.451469 0
M  V30 59 H -6.834678 -5.302778 5.758354 0
M  V30 60 H -5.066146 -4.921433 5.958062 0
M  V30 61 H -4.749393 -3.642067 4.407497 0
M  V30 62 H -3.805467 -2.445998 2.546932 0
M  V30 63 H -0.576488 -3.280123 -1.722262 0
M  V30 64 H 3.002522 -0.284304 -0.420983 0
M  V30 END ATOM
M  V30 BEGIN BOND
M  V30 1 1 1 2
M  V30 2 1 2 3
M  V30 3 1 3 4
M  V30 4 1 4 5
M  V30 5 1 5 6
M  V30 6 2 6 7
M  V30 7 1 7 8
M  V30 8 1 8 9
M  V30 9 1 9 10
M  V30 10 2 9 11
M  V30 11 2 8 12
M  V30 12 1 12 13
M  V30 13 2 13 14
M  V30 14 1 14 15
M  V30 15 2 15 16
M  V30 16 1 16 17
M  V30 17 1 17 18
M  V30 18 1 18 19
M  V30 19 2 19 20
M  V30 20 1 20 21
M  V30 21 2 21 22
M  V30 22 1 22 23
M  V30 23 1 23 24
M  V30 24 1 24 25
M  V30 25 2 25 26
M  V30 26 1 25 27
M  V30 27 2 27 28
M  V30 28 1 28 29
M  V30 29 2 29 30
M  V30 30 1 30 31
M  V30 31 1 31 32
M  V30 32 1 30 33
M  V30 33 2 33 34
M  V30 34 2 23 35
M  V30 35 1 16 36
M  V30 36 2 36 37
M  V30 37 1 37 6
M  V30 38 1 36 12
M  V30 39 1 35 19
M  V30 40 1 34 27
M  V30 41 1 1 38
M  V30 42 1 1 39
M  V30 43 1 1 40
M  V30 44 1 3 41
M  V30 45 1 3 42
M  V30 46 1 4 43
M  V30 47 1 4 44
M  V30 48 1 7 45
M  V30 49 1 10 46
M  V30 50 1 10 47
M  V30 51 1 14 48
M  V30 52 1 17 49
M  V30 53 1 18 50
M  V30 54 1 18 51
M  V30 55 1 20 52
M  V30 56 1 21 53
M  V30 57 1 22 54
M  V30 58 1 24 55
M  V30 59 1 28 56
M  V30 60 1 29 57
M  V30 61 1 32 58
M  V30 62 1 32 59
M  V30 63 1 32 60
M  V30 64 1 33 61
M  V30 65 1 34 62
M  V30 66 1 35 63
M  V30 67 1 37 64
M  V30 END BOND
M  V30 END CTAB
M  END
>  <Dataset>  (25) 
ChEMBL_Kinases

>  <Ligand_Instance>  (25) 
nan

>  <PDB_ID>  (25) 
nan

>  <Standardized_SMILES>  (25) 
COCCOc1cc(C(N)=O)c2ncnc(NCc3cccc(NC(=O)c4ccc(OC)cc4)c3)c2c1

>  <Name>  (25) 
nan

>  <Pocket>  (25) 
nan

>  <ATP_Site>  (25) 
nan

>  <Peripheral>  (25) 
nan

>  <Num_H_Atoms_ProtBoundConf>  (25) 
nan

>  <Num_Resolved_Atoms>  (25) 
nan

>  <Num_Not_Resolved_Atoms>  (25) 
nan

$$$$
CHEMBL5092052
     RDKit          3D

  0  0  0  0  0  0  0  0  0  0999 V3000
M  V30 BEGIN CTAB
M  V30 COUNTS 42 44 0 0 0
M  V30 BEGIN ATOM
M  V30 1 C -0.820780 -3.684308 -0.141546 0
M  V30 2 C 0.556786 -2.995946 -0.183246 0
M  V30 3 C 1.462944 -3.919903 0.615387 0
M  V30 4 O 1.469130 -5.177070 -0.001718 0
M  V30 5 C 0.411015 -1.631706 0.436892 0
M  V30 6 N 1.603656 -0.845191 0.477216 0
M  V30 7 C 2.811102 -1.014081 1.259489 0
M  V30 8 C 1.647376 0.296033 -0.404812 0
M  V30 9 N 2.545707 0.178219 -1.424670 0
M  V30 10 C 2.654355 1.161722 -2.346877 0
M  V30 11 N 1.896817 2.265884 -2.291507 0
M  V30 12 C 0.989043 2.441589 -1.306700 0
M  V30 13 N 0.082186 3.350909 -0.909950 0
M  V30 14 C -0.566275 2.967275 0.204166 0
M  V30 15 C -0.063696 1.727260 0.578044 0
M  V30 16 C -0.552984 1.088245 1.792290 0
M  V30 17 C 0.252241 0.691641 2.858119 0
M  V30 18 C -0.330729 0.084309 3.956006 0
M  V30 19 C -1.697136 -0.118308 3.975596 0
M  V30 20 C -2.505797 0.275689 2.913891 0
M  V30 21 Cl -4.235898 -0.003952 2.985655 0
M  V30 22 C -1.916836 0.882604 1.820018 0
M  V30 23 C 0.884597 1.439349 -0.372911 0
M  V30 24 H -0.690454 -4.791908 -0.035601 0
M  V30 25 H -1.292345 -3.354033 0.810315 0
M  V30 26 H -1.439044 -3.417204 -0.996570 0
M  V30 27 H 0.840760 -2.941191 -1.249621 0
M  V30 28 H 2.483630 -3.536700 0.748011 0
M  V30 29 H 1.015111 -4.045606 1.619560 0
M  V30 30 H 2.247496 -5.256342 -0.601356 0
M  V30 31 H -0.403142 -1.101648 -0.072574 0
M  V30 32 H 0.135485 -1.836620 1.516711 0
M  V30 33 H 3.187180 0.004816 1.546816 0
M  V30 34 H 2.668061 -1.647373 2.159701 0
M  V30 35 H 3.627583 -1.445711 0.643957 0
M  V30 36 H 3.385887 1.031029 -3.151085 0
M  V30 37 H -0.070096 4.255303 -1.444734 0
M  V30 38 H -1.318773 3.569431 0.656201 0
M  V30 39 H 1.293152 0.883244 2.779014 0
M  V30 40 H 0.338353 -0.204879 4.760497 0
M  V30 41 H -2.142523 -0.597870 4.850482 0
M  V30 42 H -2.578251 1.180453 1.003158 0
M  V30 END ATOM
M  V30 BEGIN BOND
M  V30 1 1 1 2
M  V30 2 1 2 3
M  V30 3 1 3 4
M  V30 4 1 2 5
M  V30 5 1 5 6
M  V30 6 1 6 7
M  V30 7 1 6 8
M  V30 8 2 8 9
M  V30 9 1 9 10
M  V30 10 2 10 11
M  V30 11 1 11 12
M  V30 12 1 12 13
M  V30 13 1 13 14
M  V30 14 2 14 15
M  V30 15 1 15 16
M  V30 16 2 16 17
M  V30 17 1 17 18
M  V30 18 2 18 19
M  V30 19 1 19 20
M  V30 20 1 20 21
M  V30 21 2 20 22
M  V30 22 1 15 23
M  V30 23 1 23 8
M  V30 24 2 23 12
M  V30 25 1 22 16
M  V30 26 1 1 24
M  V30 27 1 1 25
M  V30 28 1 1 26
M  V30 29 1 2 27
M  V30 30 1 3 28
M  V30 31 1 3 29
M  V30 32 1 4 30
M  V30 33 1 5 31
M  V30 34 1 5 32
M  V30 35 1 7 33
M  V30 36 1 7 34
M  V30 37 1 7 35
M  V30 38 1 10 36
M  V30 39 1 13 37
M  V30 40 1 14 38
M  V30 41 1 17 39
M  V30 42 1 18 40
M  V30 43 1 19 41
M  V30 44 1 22 42
M  V30 END BOND
M  V30 END CTAB
M  END
>  <Dataset>  (26) 
ChEMBL_Kinases

>  <Ligand_Instance>  (26) 
nan

>  <PDB_ID>  (26) 
nan

>  <Standardized_SMILES>  (26) 
CC(CO)CN(C)c1ncnc2[nH]cc(-c3cccc(Cl)c3)c12

>  <Name>  (26) 
nan

>  <Pocket>  (26) 
nan

>  <ATP_Site>  (26) 
nan

>  <Peripheral>  (26) 
nan

>  <Num_H_Atoms_ProtBoundConf>  (26) 
nan

>  <Num_Resolved_Atoms>  (26) 
nan

>  <Num_Not_Resolved_Atoms>  (26) 
nan

$$$$
CHEMBL5092087
     RDKit          3D

  0  0  0  0  0  0  0  0  0  0999 V3000
M  V30 BEGIN CTAB
M  V30 COUNTS 58 62 0 0 0
M  V30 BEGIN ATOM
M  V30 1 C -0.979738 -6.064780 1.615995 0
M  V30 2 C -0.811094 -5.181674 0.442457 0
M  V30 3 C -0.118463 -3.990004 0.468376 0
M  V30 4 N 0.556227 -3.373101 1.575314 0
M  V30 5 C 1.209682 -2.127713 1.359565 0
M  V30 6 N 2.503252 -1.931712 0.968775 0
M  V30 7 C 2.944777 -0.662484 0.816265 0
M  V30 8 N 4.307362 -0.510635 0.405490 0
M  V30 9 C 2.105163 0.427971 1.050548 0
M  V30 10 C 2.351086 1.788780 0.955222 0
M  V30 11 C 3.578361 2.396776 0.577743 0
M  V30 12 N 4.555907 2.901209 0.282837 0
M  V30 13 C 1.125517 2.359013 1.313462 0
M  V30 14 N 1.000588 3.792124 1.328090 0
M  V30 15 C 1.200231 4.849135 2.305305 0
M  V30 16 C -0.048470 5.672607 2.253378 0
M  V30 17 C -0.456616 5.548648 0.798977 0
M  V30 18 C 0.591112 4.646700 0.227563 0 CFG=1
M  V30 19 C 1.717596 5.523012 -0.275073 0
M  V30 20 N 0.212385 1.413945 1.602137 0
M  V30 21 C -1.138671 1.662232 2.003139 0
M  V30 22 C 0.788592 0.207073 1.448629 0
M  V30 23 N 0.379437 -1.081022 1.591733 0
M  V30 24 C -0.210321 -3.497961 -0.828366 0
M  V30 25 N -0.921198 -4.364618 -1.564023 0
M  V30 26 N -1.287226 -5.383199 -0.804164 0
M  V30 27 C -2.074815 -6.557794 -1.192621 0 CFG=1
M  V30 28 C -3.540516 -6.339463 -0.930688 0
M  V30 29 C -4.145039 -6.252893 -2.299019 0
M  V30 30 O -3.105422 -5.854758 -3.108739 0
M  V30 31 C -2.038051 -6.685889 -2.715176 0
M  V30 32 H -1.423876 -5.554956 2.489811 0
M  V30 33 H -1.655309 -6.918207 1.389157 0
M  V30 34 H -0.019562 -6.527686 1.924937 0
M  V30 35 H 0.527188 -3.880668 2.483811 0
M  V30 36 H 4.604985 -1.086415 -0.436273 0
M  V30 37 H 5.079375 0.062325 0.774100 0
M  V30 38 H 1.260685 4.319281 3.298568 0
M  V30 39 H 2.113447 5.446690 2.121168 0
M  V30 40 H 0.218112 6.727928 2.482747 0
M  V30 41 H -0.843406 5.293589 2.953062 0
M  V30 42 H -1.474133 5.098378 0.786118 0
M  V30 43 H -0.447332 6.560048 0.323447 0
M  V30 44 H 0.158385 4.053180 -0.605274 0
M  V30 45 H 1.662853 6.557605 0.107110 0
M  V30 46 H 2.717651 5.116477 -0.102532 0
M  V30 47 H 1.606235 5.617000 -1.387187 0
M  V30 48 H -1.827140 0.868088 1.591812 0
M  V30 49 H -1.221507 1.693087 3.118383 0
M  V30 50 H -1.554045 2.614525 1.572239 0
M  V30 51 H 0.220542 -2.567439 -1.188647 0
M  V30 52 H -1.676077 -7.440979 -0.683434 0
M  V30 53 H -3.959910 -7.213570 -0.369112 0
M  V30 54 H -3.735409 -5.434131 -0.299414 0
M  V30 55 H -4.981720 -5.526952 -2.356189 0
M  V30 56 H -4.517685 -7.250941 -2.631776 0
M  V30 57 H -2.213473 -7.733355 -3.000578 0
M  V30 58 H -1.125899 -6.260284 -3.141925 0
M  V30 END ATOM
M  V30 BEGIN BOND
M  V30 1 1 1 2
M  V30 2 2 2 3
M  V30 3 1 3 4
M  V30 4 1 4 5
M  V30 5 2 5 6
M  V30 6 1 6 7
M  V30 7 1 7 8
M  V30 8 2 7 9
M  V30 9 1 9 10
M  V30 10 1 10 11
M  V30 11 3 11 12
M  V30 12 2 10 13
M  V30 13 1 13 14
M  V30 14 1 14 15
M  V30 15 1 15 16
M  V30 16 1 16 17
M  V30 17 1 17 18
M  V30 18 1 18 19
M  V30 19 1 13 20
M  V30 20 1 20 21
M  V30 21 1 20 22
M  V30 22 2 22 23
M  V30 23 1 3 24
M  V30 24 2 24 25
M  V30 25 1 25 26
M  V30 26 1 26 27
M  V30 27 1 27 28
M  V30 28 1 28 29
M  V30 29 1 29 30
M  V30 30 1 30 31
M  V30 31 1 26 2
M  V30 32 1 31 27
M  V30 33 1 23 5
M  V30 34 1 22 9
M  V30 35 1 18 14
M  V30 36 1 1 32
M  V30 37 1 1 33
M  V30 38 1 1 34
M  V30 39 1 4 35
M  V30 40 1 8 36
M  V30 41 1 8 37
M  V30 42 1 15 38
M  V30 43 1 15 39
M  V30 44 1 16 40
M  V30 45 1 16 41
M  V30 46 1 17 42
M  V30 47 1 17 43
M  V30 48 1 18 44 CFG=3
M  V30 49 1 19 45
M  V30 50 1 19 46
M  V30 51 1 19 47
M  V30 52 1 21 48
M  V30 53 1 21 49
M  V30 54 1 21 50
M  V30 55 1 24 51
M  V30 56 1 27 52 CFG=1
M  V30 57 1 28 53
M  V30 58 1 28 54
M  V30 59 1 29 55
M  V30 60 1 29 56
M  V30 61 1 31 57
M  V30 62 1 31 58
M  V30 END BOND
M  V30 END CTAB
M  END
>  <Dataset>  (27) 
ChEMBL_Kinases

>  <Ligand_Instance>  (27) 
nan

>  <PDB_ID>  (27) 
nan

>  <Standardized_SMILES>  (27) 
Cc1c(Nc2nc(N)c3c(C#N)c(N4CCC[C@H]4C)n(C)c3n2)cnn1[C@H]1CCOC1

>  <Name>  (27) 
nan

>  <Pocket>  (27) 
nan

>  <ATP_Site>  (27) 
nan

>  <Peripheral>  (27) 
nan

>  <Num_H_Atoms_ProtBoundConf>  (27) 
nan

>  <Num_Resolved_Atoms>  (27) 
nan

>  <Num_Not_Resolved_Atoms>  (27) 
nan

$$$$
CHEMBL3675501
     RDKit          3D

  0  0  0  0  0  0  0  0  0  0999 V3000
M  V30 BEGIN CTAB
M  V30 COUNTS 54 57 0 0 0
M  V30 BEGIN ATOM
M  V30 1 C 0.773217 -1.512932 8.556378 0
M  V30 2 C 1.178646 -1.308867 7.149214 0
M  V30 3 C 1.008900 -0.013163 6.652256 0
M  V30 4 C 1.364455 0.252232 5.346072 0
M  V30 5 C 1.882829 -0.753408 4.540227 0
M  V30 6 C 2.297059 -0.631197 3.148313 0
M  V30 7 O 2.801229 -1.559174 2.442263 0
M  V30 8 N 2.136390 0.619518 2.495641 0
M  V30 9 C 2.409079 1.117579 1.192790 0
M  V30 10 C 3.621577 1.705317 0.886407 0
M  V30 11 C 3.842504 2.174318 -0.384552 0
M  V30 12 C 2.898791 2.087184 -1.388624 0
M  V30 13 C 1.683800 1.506161 -1.107227 0
M  V30 14 C 0.504006 1.291047 -2.010935 0
M  V30 15 C -0.564804 2.282510 -1.566877 0
M  V30 16 N -0.012666 -0.059842 -1.839738 0
M  V30 17 C -1.148904 -0.459565 -2.589437 0
M  V30 18 N -1.744772 0.396452 -3.435019 0
M  V30 19 C -2.844580 0.039935 -4.163241 0
M  V30 20 N -3.386179 -1.189174 -4.070013 0
M  V30 21 C -2.819082 -2.084670 -3.230726 0
M  V30 22 C -3.346918 -3.348986 -3.110931 0
M  V30 23 C -4.515959 -3.597178 -3.937233 0
M  V30 24 N -5.136077 -4.855370 -3.871487 0
M  V30 25 O -5.092247 -2.844423 -4.737051 0
M  V30 26 C -2.824756 -4.310214 -2.280470 0
M  V30 27 C -1.697372 -3.938831 -1.536537 0
M  V30 28 C -1.180509 -2.652852 -1.673745 0
M  V30 29 C -1.712808 -1.714556 -2.502457 0
M  V30 30 C 1.457775 1.031819 0.173263 0
M  V30 31 C 2.034872 -2.021554 5.070329 0
M  V30 32 N 1.682336 -2.265874 6.349527 0
M  V30 33 H 1.097965 -2.495648 8.962342 0
M  V30 34 H -0.336448 -1.507328 8.681358 0
M  V30 35 H 1.161825 -0.733930 9.250012 0
M  V30 36 H 0.610604 0.813867 7.229783 0
M  V30 37 H 1.271247 1.217991 4.880191 0
M  V30 38 H 1.740838 1.484671 2.921335 0
M  V30 39 H 4.405360 1.800996 1.644274 0
M  V30 40 H 4.762245 2.644795 -0.697837 0
M  V30 41 H 2.980266 2.425269 -2.411428 0
M  V30 42 H 0.775937 1.518213 -3.062190 0
M  V30 43 H -1.307061 2.472706 -2.357044 0
M  V30 44 H -0.089365 3.288578 -1.376898 0
M  V30 45 H -1.039046 1.999795 -0.617259 0
M  V30 46 H 0.497892 -0.659942 -1.161626 0
M  V30 47 H -3.288141 0.786098 -4.838887 0
M  V30 48 H -5.612111 -5.767339 -3.977943 0
M  V30 49 H -5.278536 -5.425918 -3.013357 0
M  V30 50 H -3.324707 -5.269172 -2.268898 0
M  V30 51 H -1.311492 -4.708786 -0.897131 0
M  V30 52 H -0.324178 -2.460244 -1.070286 0
M  V30 53 H 0.519052 0.552324 0.490427 0
M  V30 54 H 2.428977 -2.882689 4.533382 0
M  V30 END ATOM
M  V30 BEGIN BOND
M  V30 1 1 1 2
M  V30 2 2 2 3
M  V30 3 1 3 4
M  V30 4 2 4 5
M  V30 5 1 5 6
M  V30 6 2 6 7
M  V30 7 1 6 8
M  V30 8 1 8 9
M  V30 9 2 9 10
M  V30 10 1 10 11
M  V30 11 2 11 12
M  V30 12 1 12 13
M  V30 13 1 13 14
M  V30 14 1 14 15
M  V30 15 1 14 16
M  V30 16 1 16 17
M  V30 17 2 17 18
M  V30 18 1 18 19
M  V30 19 2 19 20
M  V30 20 1 20 21
M  V30 21 2 21 22
M  V30 22 1 22 23
M  V30 23 1 23 24
M  V30 24 2 23 25
M  V30 25 1 22 26
M  V30 26 2 26 27
M  V30 27 1 27 28
M  V30 28 2 28 29
M  V30 29 2 13 30
M  V30 30 1 5 31
M  V30 31 2 31 32
M  V30 32 1 32 2
M  V30 33 1 30 9
M  V30 34 1 29 17
M  V30 35 1 29 21
M  V30 36 1 1 33
M  V30 37 1 1 34
M  V30 38 1 1 35
M  V30 39 1 3 36
M  V30 40 1 4 37
M  V30 41 1 8 38
M  V30 42 1 10 39
M  V30 43 1 11 40
M  V30 44 1 12 41
M  V30 45 1 14 42
M  V30 46 1 15 43
M  V30 47 1 15 44
M  V30 48 1 15 45
M  V30 49 1 16 46
M  V30 50 1 19 47
M  V30 51 1 24 48
M  V30 52 1 24 49
M  V30 53 1 26 50
M  V30 54 1 27 51
M  V30 55 1 28 52
M  V30 56 1 30 53
M  V30 57 1 31 54
M  V30 END BOND
M  V30 END CTAB
M  END
>  <Dataset>  (28) 
ChEMBL_Kinases

>  <Ligand_Instance>  (28) 
nan

>  <PDB_ID>  (28) 
nan

>  <Standardized_SMILES>  (28) 
Cc1ccc(C(=O)Nc2cccc(C(C)Nc3ncnc4c(C(N)=O)cccc34)c2)cn1

>  <Name>  (28) 
nan

>  <Pocket>  (28) 
nan

>  <ATP_Site>  (28) 
nan

>  <Peripheral>  (28) 
nan

>  <Num_H_Atoms_ProtBoundConf>  (28) 
nan

>  <Num_Resolved_Atoms>  (28) 
nan

>  <Num_Not_Resolved_Atoms>  (28) 
nan

$$$$
CHEMBL52869
     RDKit          3D

  0  0  0  0  0  0  0  0  0  0999 V3000
M  V30 BEGIN CTAB
M  V30 COUNTS 66 69 0 0 0
M  V30 BEGIN ATOM
M  V30 1 O 1.833884 -1.271118 4.266829 0
M  V30 2 C 2.651890 -0.328980 4.324167 0
M  V30 3 N 3.780484 -0.339662 3.469432 0
M  V30 4 C 4.189077 -1.308971 2.473080 0 CFG=2
M  V30 5 C 5.526326 -1.896299 2.762286 0
M  V30 6 C 5.926384 -2.412037 1.379148 0
M  V30 7 C 5.372680 -1.394764 0.406736 0
M  V30 8 C 4.251599 -0.693424 1.095731 0 CFG=1
M  V30 9 O 3.003542 -0.888293 0.423042 0
M  V30 10 C 2.236588 0.180845 -0.057174 0
M  V30 11 O 2.623529 1.361346 0.088952 0
M  V30 12 C 0.978795 -0.112906 -0.730718 0
M  V30 13 C 0.248677 0.951845 -1.192051 0
M  V30 14 C -0.966055 0.724972 -1.848969 0
M  V30 15 O -1.616681 1.900968 -2.272312 0
M  V30 16 C -1.457348 -0.545291 -2.050290 0
M  V30 17 C -2.735629 -0.709435 -2.674807 0
M  V30 18 O -3.385076 0.376665 -2.478748 0
M  V30 19 C -3.512941 -1.649925 -3.423463 0
M  V30 20 C -3.043819 -2.657982 -4.211748 0
M  V30 21 O -1.711116 -2.927186 -4.358969 0
M  V30 22 C -3.814788 -3.519206 -4.957540 0
M  V30 23 C -5.177003 -3.329129 -4.891065 0
M  V30 24 C -5.722944 -2.334858 -4.122906 0
M  V30 25 C -4.902875 -1.478841 -3.376601 0
M  V30 26 N -5.648346 -0.505467 -2.671721 0
M  V30 27 S -6.672212 -0.574592 -1.294059 0
M  V30 28 O -5.844324 -1.160356 -0.170425 0
M  V30 29 O -7.101035 0.782091 -0.852110 0
M  V30 30 C -8.076178 -1.603753 -1.510808 0
M  V30 31 F -7.756849 -2.919742 -1.771310 0
M  V30 32 F -8.946136 -1.495836 -0.439718 0
M  V30 33 F -8.794166 -1.150476 -2.623926 0
M  V30 34 C -0.665582 -1.557548 -1.554847 0
M  V30 35 O -0.984548 -2.903291 -1.641165 0
M  V30 36 C 0.537057 -1.406336 -0.901199 0
M  V30 37 C 2.431719 0.759252 5.265119 0
M  V30 38 C 1.306921 0.709328 6.061854 0
M  V30 39 C 0.985518 1.680924 6.997267 0
M  V30 40 C 1.832441 2.760484 7.145429 0
M  V30 41 O 1.609136 3.777569 8.040977 0
M  V30 42 C 2.959551 2.795949 6.336664 0
M  V30 43 C 3.285757 1.830420 5.401882 0
M  V30 44 H 4.500177 0.407164 3.460527 0
M  V30 45 H 3.441515 -2.144182 2.438403 0
M  V30 46 H 5.411761 -2.810999 3.411878 0
M  V30 47 H 6.271210 -1.215795 3.191672 0
M  V30 48 H 7.021235 -2.504009 1.341055 0
M  V30 49 H 5.503689 -3.418037 1.207370 0
M  V30 50 H 6.218731 -0.678486 0.202157 0
M  V30 51 H 5.083034 -1.867426 -0.537955 0
M  V30 52 H 4.479947 0.392096 1.160577 0
M  V30 53 H 0.613836 1.954608 -1.046753 0
M  V30 54 H -1.809231 2.068152 -3.254303 0
M  V30 55 H -0.998895 -2.283087 -4.617553 0
M  V30 56 H -3.455324 -4.323291 -5.583952 0
M  V30 57 H -5.826836 -3.990182 -5.465493 0
M  V30 58 H -6.796917 -2.266377 -4.149342 0
M  V30 59 H -5.548530 0.453496 -3.114521 0
M  V30 60 H -1.376564 -3.435835 -0.865761 0
M  V30 61 H 1.172615 -2.156295 -0.509366 0
M  V30 62 H 0.577697 -0.094458 6.025317 0
M  V30 63 H 0.101857 1.637455 7.619801 0
M  V30 64 H 2.096814 4.656487 7.936270 0
M  V30 65 H 3.665886 3.626000 6.411007 0
M  V30 66 H 4.173172 1.901745 4.796260 0
M  V30 END ATOM
M  V30 BEGIN BOND
M  V30 1 2 1 2
M  V30 2 1 2 3
M  V30 3 1 3 4
M  V30 4 1 4 5
M  V30 5 1 5 6
M  V30 6 1 6 7
M  V30 7 1 7 8
M  V30 8 1 8 9
M  V30 9 1 9 10
M  V30 10 2 10 11
M  V30 11 1 10 12
M  V30 12 2 12 13
M  V30 13 1 13 14
M  V30 14 1 14 15
M  V30 15 2 14 16
M  V30 16 1 16 17
M  V30 17 2 17 18
M  V30 18 1 17 19
M  V30 19 2 19 20
M  V30 20 1 20 21
M  V30 21 1 20 22
M  V30 22 2 22 23
M  V30 23 1 23 24
M  V30 24 2 24 25
M  V30 25 1 25 26
M  V30 26 1 26 27
M  V30 27 2 27 28
M  V30 28 2 27 29
M  V30 29 1 27 30
M  V30 30 1 30 31
M  V30 31 1 30 32
M  V30 32 1 30 33
M  V30 33 1 16 34
M  V30 34 1 34 35
M  V30 35 2 34 36
M  V30 36 1 2 37
M  V30 37 2 37 38
M  V30 38 1 38 39
M  V30 39 2 39 40
M  V30 40 1 40 41
M  V30 41 1 40 42
M  V30 42 2 42 43
M  V30 43 1 8 4
M  V30 44 1 36 12
M  V30 45 1 43 37
M  V30 46 1 25 19
M  V30 47 1 3 44
M  V30 48 1 4 45 CFG=3
M  V30 49 1 5 46
M  V30 50 1 5 47
M  V30 51 1 6 48
M  V30 52 1 6 49
M  V30 53 1 7 50
M  V30 54 1 7 51
M  V30 55 1 8 52 CFG=1
M  V30 56 1 13 53
M  V30 57 1 15 54
M  V30 58 1 21 55
M  V30 59 1 22 56
M  V30 60 1 23 57
M  V30 61 1 24 58
M  V30 62 1 26 59
M  V30 63 1 35 60
M  V30 64 1 36 61
M  V30 65 1 38 62
M  V30 66 1 39 63
M  V30 67 1 41 64
M  V30 68 1 42 65
M  V30 69 1 43 66
M  V30 END BOND
M  V30 END CTAB
M  END
>  <Dataset>  (29) 
ChEMBL_Kinases

>  <Ligand_Instance>  (29) 
nan

>  <PDB_ID>  (29) 
nan

>  <Standardized_SMILES>  (29) 
O=C(N[C@@H]1CCC[C@H]1OC(=O)c1cc(O)c(C(=O)c2c(O)cccc2NS(=O)(=O)C(F)(F)F)c(O)c1)c1ccc(O)cc1

>  <Name>  (29) 
nan

>  <Pocket>  (29) 
nan

>  <ATP_Site>  (29) 
nan

>  <Peripheral>  (29) 
nan

>  <Num_H_Atoms_ProtBoundConf>  (29) 
nan

>  <Num_Resolved_Atoms>  (29) 
nan

>  <Num_Not_Resolved_Atoms>  (29) 
nan

$$$$
CHEMBL3675504
     RDKit          3D

  0  0  0  0  0  0  0  0  0  0999 V3000
M  V30 BEGIN CTAB
M  V30 COUNTS 65 68 0 0 0
M  V30 BEGIN ATOM
M  V30 1 C -2.019143 1.058184 5.622560 0
M  V30 2 N -1.457431 0.187563 4.636837 0
M  V30 3 C -0.195842 -0.350706 5.058251 0
M  V30 4 C -1.495009 0.672855 3.290799 0
M  V30 5 C -0.871599 -0.351788 2.381691 0
M  V30 6 C -0.875245 0.092124 0.932732 0
M  V30 7 N -2.204737 0.324839 0.439946 0
M  V30 8 C -2.358849 0.816264 -0.884940 0
M  V30 9 N -1.286871 1.063754 -1.655223 0
M  V30 10 C -1.388106 1.527391 -2.897586 0
M  V30 11 N -2.599476 1.771790 -3.442526 0
M  V30 12 C -3.742443 1.558447 -2.757927 0
M  V30 13 C -4.993911 1.799899 -3.290689 0
M  V30 14 C -5.065920 2.307163 -4.654514 0
M  V30 15 N -6.337509 2.569925 -5.245571 0
M  V30 16 O -4.003105 2.507923 -5.296399 0
M  V30 17 C -6.141411 1.570542 -2.561820 0
M  V30 18 C -6.001887 1.085681 -1.265674 0
M  V30 19 C -4.734231 0.855607 -0.765218 0
M  V30 20 C -3.581400 1.074804 -1.467054 0
M  V30 21 C -0.210892 -1.036509 0.186673 0
M  V30 22 C -0.817316 -1.767995 -0.731020 0
M  V30 23 C -0.200691 -2.864930 -1.469437 0
M  V30 24 C 1.193975 -3.214796 -1.155901 0
M  V30 25 C 1.853536 -2.371409 -0.115871 0
M  V30 26 N 3.195809 -2.721087 0.150701 0
M  V30 27 C 4.150774 -2.204596 1.028791 0
M  V30 28 O 3.740780 -1.222393 1.735913 0
M  V30 29 C 5.522089 -2.605477 1.260893 0
M  V30 30 C 6.288730 -1.949140 2.201928 0
M  V30 31 C 7.579211 -2.235327 2.505167 0
M  V30 32 C 8.208983 -3.244163 1.852743 0
M  V30 33 C 7.533740 -3.962208 0.894916 0
M  V30 34 F 8.152907 -4.955596 0.252214 0
M  V30 35 C 6.228311 -3.611356 0.644734 0
M  V30 36 F 5.616716 -4.348328 -0.303659 0
M  V30 37 C 1.171877 -1.400984 0.458333 0
M  V30 38 H -2.985373 1.472556 5.267328 0
M  V30 39 H -2.290300 0.434505 6.521877 0
M  V30 40 H -1.323783 1.838848 5.984521 0
M  V30 41 H 0.686612 0.157877 4.662708 0
M  V30 42 H -0.152415 -0.235600 6.177167 0
M  V30 43 H -0.144156 -1.469667 4.914635 0
M  V30 44 H -1.048225 1.681607 3.184446 0
M  V30 45 H -2.560796 0.786405 2.994549 0
M  V30 46 H 0.140049 -0.656006 2.714834 0
M  V30 47 H -1.488514 -1.268025 2.482622 0
M  V30 48 H -0.226301 0.973073 0.768813 0
M  V30 49 H -2.971350 0.110630 1.106191 0
M  V30 50 H -0.465083 1.705321 -3.465555 0
M  V30 51 H -6.642302 3.489859 -5.631891 0
M  V30 52 H -6.995247 1.778991 -5.286561 0
M  V30 53 H -7.079630 1.783800 -3.047796 0
M  V30 54 H -6.921203 0.923883 -0.740689 0
M  V30 55 H -4.722953 0.487291 0.228117 0
M  V30 56 H -1.850662 -1.575968 -0.981225 0
M  V30 57 H -0.864694 -3.762329 -1.303820 0
M  V30 58 H -0.240012 -2.575517 -2.560904 0
M  V30 59 H 1.851210 -3.217172 -2.078593 0
M  V30 60 H 1.257204 -4.295903 -0.822721 0
M  V30 61 H 3.616631 -3.513486 -0.379375 0
M  V30 62 H 5.869610 -1.113738 2.786961 0
M  V30 63 H 8.147326 -1.699407 3.248286 0
M  V30 64 H 9.231670 -3.489990 2.075561 0
M  V30 65 H 1.637211 -0.785610 1.210514 0
M  V30 END ATOM
M  V30 BEGIN BOND
M  V30 1 1 1 2
M  V30 2 1 2 3
M  V30 3 1 2 4
M  V30 4 1 4 5
M  V30 5 1 5 6
M  V30 6 1 6 7
M  V30 7 1 7 8
M  V30 8 2 8 9
M  V30 9 1 9 10
M  V30 10 2 10 11
M  V30 11 1 11 12
M  V30 12 2 12 13
M  V30 13 1 13 14
M  V30 14 1 14 15
M  V30 15 2 14 16
M  V30 16 1 13 17
M  V30 17 2 17 18
M  V30 18 1 18 19
M  V30 19 2 19 20
M  V30 20 1 6 21
M  V30 21 2 21 22
M  V30 22 1 22 23
M  V30 23 1 23 24
M  V30 24 1 24 25
M  V30 25 1 25 26
M  V30 26 1 26 27
M  V30 27 2 27 28
M  V30 28 1 27 29
M  V30 29 2 29 30
M  V30 30 1 30 31
M  V30 31 2 31 32
M  V30 32 1 32 33
M  V30 33 1 33 34
M  V30 34 2 33 35
M  V30 35 1 35 36
M  V30 36 2 25 37
M  V30 37 1 20 8
M  V30 38 1 37 21
M  V30 39 1 20 12
M  V30 40 1 35 29
M  V30 41 1 1 38
M  V30 42 1 1 39
M  V30 43 1 1 40
M  V30 44 1 3 41
M  V30 45 1 3 42
M  V30 46 1 3 43
M  V30 47 1 4 44
M  V30 48 1 4 45
M  V30 49 1 5 46
M  V30 50 1 5 47
M  V30 51 1 6 48
M  V30 52 1 7 49
M  V30 53 1 10 50
M  V30 54 1 15 51
M  V30 55 1 15 52
M  V30 56 1 17 53
M  V30 57 1 18 54
M  V30 58 1 19 55
M  V30 59 1 22 56
M  V30 60 1 23 57
M  V30 61 1 23 58
M  V30 62 1 24 59
M  V30 63 1 24 60
M  V30 64 1 26 61
M  V30 65 1 30 62
M  V30 66 1 31 63
M  V30 67 1 32 64
M  V30 68 1 37 65
M  V30 END BOND
M  V30 END CTAB
M  END
>  <Dataset>  (30) 
ChEMBL_Kinases

>  <Ligand_Instance>  (30) 
nan

>  <PDB_ID>  (30) 
nan

>  <Standardized_SMILES>  (30) 
CN(C)CCC(Nc1ncnc2c(C(N)=O)cccc12)C1=CCCC(NC(=O)c2cccc(F)c2F)=C1

>  <Name>  (30) 
nan

>  <Pocket>  (30) 
nan

>  <ATP_Site>  (30) 
nan

>  <Peripheral>  (30) 
nan

>  <Num_H_Atoms_ProtBoundConf>  (30) 
nan

>  <Num_Resolved_Atoms>  (30) 
nan

>  <Num_Not_Resolved_Atoms>  (30) 
nan

$$$$
CHEMBL3675506
     RDKit          3D

  0  0  0  0  0  0  0  0  0  0999 V3000
M  V30 BEGIN CTAB
M  V30 COUNTS 49 52 0 0 0
M  V30 BEGIN ATOM
M  V30 1 N 5.216768 -4.882301 4.360776 0
M  V30 2 C 4.263042 -4.282728 3.470831 0
M  V30 3 O 3.636987 -5.295292 3.801802 0
M  V30 4 C 4.459890 -3.033752 2.761046 0
M  V30 5 C 5.645263 -2.360697 2.949125 0
M  V30 6 C 5.758177 -1.188387 2.244768 0
M  V30 7 C 4.738912 -0.755645 1.423812 0
M  V30 8 C 3.555867 -1.434047 1.240441 0
M  V30 9 C 2.571897 -0.960282 0.411666 0
M  V30 10 N 2.691764 0.231381 -0.307594 0
M  V30 11 C 1.731968 0.836543 -1.206932 0
M  V30 12 C 0.506304 1.169467 -0.424843 0
M  V30 13 C 0.664967 2.428810 0.169838 0
M  V30 14 C -0.341591 2.996213 0.956884 0
M  V30 15 C -1.525503 2.311969 1.162331 0
M  V30 16 F -2.553339 2.785925 1.910111 0
M  V30 17 C -1.638923 1.074544 0.557209 0
M  V30 18 N -2.820797 0.255221 0.686825 0
M  V30 19 C -3.675068 0.639833 -0.406497 0
M  V30 20 O -3.175923 1.533208 -1.126018 0
M  V30 21 C -4.999084 0.089576 -0.708109 0
M  V30 22 C -5.598237 0.645345 -1.818443 0
M  V30 23 C -6.867292 0.180239 -2.183530 0
M  V30 24 C -7.473742 -0.813551 -1.424846 0
M  V30 25 Br -9.202668 -1.415519 -1.961011 0
M  V30 26 C -6.800781 -1.306139 -0.337001 0
M  V30 27 C -5.553759 -0.896008 0.078717 0
M  V30 28 C -0.667239 0.500564 -0.216629 0
M  V30 29 N 1.488158 -1.743456 0.349186 0
M  V30 30 C 1.329596 -2.895169 1.016194 0
M  V30 31 N 2.319817 -3.329616 1.822690 0
M  V30 32 C 3.456908 -2.603293 1.950245 0
M  V30 33 H 5.709297 -4.583416 5.209519 0
M  V30 34 H 5.750319 -4.623209 5.238964 0
M  V30 35 H 6.383700 -2.765719 3.603474 0
M  V30 36 H 6.678617 -0.631893 2.368966 0
M  V30 37 H 4.946192 0.178113 0.924490 0
M  V30 38 H 3.540828 0.829414 -0.253756 0
M  V30 39 H 2.107436 1.678422 -1.782934 0
M  V30 40 H 1.474090 0.019752 -1.945312 0
M  V30 41 H 1.538052 3.098027 0.105897 0
M  V30 42 H -0.268075 3.952794 1.431621 0
M  V30 43 H -3.216431 -0.503352 1.319190 0
M  V30 44 H -5.166747 1.413004 -2.431327 0
M  V30 45 H -7.342008 0.612813 -3.053732 0
M  V30 46 H -7.331467 -2.075789 0.205841 0
M  V30 47 H -5.051959 -1.300470 0.934869 0
M  V30 48 H -0.690477 -0.437982 -0.714865 0
M  V30 49 H 0.389193 -3.450919 0.881650 0
M  V30 END ATOM
M  V30 BEGIN BOND
M  V30 1 1 1 2
M  V30 2 2 2 3
M  V30 3 1 2 4
M  V30 4 2 4 5
M  V30 5 1 5 6
M  V30 6 2 6 7
M  V30 7 1 7 8
M  V30 8 2 8 9
M  V30 9 1 9 10
M  V30 10 1 10 11
M  V30 11 1 11 12
M  V30 12 2 12 13
M  V30 13 1 13 14
M  V30 14 2 14 15
M  V30 15 1 15 16
M  V30 16 1 15 17
M  V30 17 1 17 18
M  V30 18 1 18 19
M  V30 19 2 19 20
M  V30 20 1 19 21
M  V30 21 2 21 22
M  V30 22 1 22 23
M  V30 23 2 23 24
M  V30 24 1 24 25
M  V30 25 1 24 26
M  V30 26 2 26 27
M  V30 27 2 17 28
M  V30 28 1 9 29
M  V30 29 2 29 30
M  V30 30 1 30 31
M  V30 31 2 31 32
M  V30 32 1 32 4
M  V30 33 1 32 8
M  V30 34 1 28 12
M  V30 35 1 27 21
M  V30 36 1 1 33
M  V30 37 1 1 34
M  V30 38 1 5 35
M  V30 39 1 6 36
M  V30 40 1 7 37
M  V30 41 1 10 38
M  V30 42 1 11 39
M  V30 43 1 11 40
M  V30 44 1 13 41
M  V30 45 1 14 42
M  V30 46 1 18 43
M  V30 47 1 22 44
M  V30 48 1 23 45
M  V30 49 1 26 46
M  V30 50 1 27 47
M  V30 51 1 28 48
M  V30 52 1 30 49
M  V30 END BOND
M  V30 END CTAB
M  END
>  <Dataset>  (31) 
ChEMBL_Kinases

>  <Ligand_Instance>  (31) 
nan

>  <PDB_ID>  (31) 
nan

>  <Standardized_SMILES>  (31) 
NC(=O)c1cccc2c(NCc3ccc(F)c(NC(=O)c4ccc(Br)cc4)c3)ncnc12

>  <Name>  (31) 
nan

>  <Pocket>  (31) 
nan

>  <ATP_Site>  (31) 
nan

>  <Peripheral>  (31) 
nan

>  <Num_H_Atoms_ProtBoundConf>  (31) 
nan

>  <Num_Resolved_Atoms>  (31) 
nan

>  <Num_Not_Resolved_Atoms>  (31) 
nan

$$$$
CHEMBL3685239
     RDKit          3D

  0  0  0  0  0  0  0  0  0  0999 V3000
M  V30 BEGIN CTAB
M  V30 COUNTS 74 77 0 0 0
M  V30 BEGIN ATOM
M  V30 1 C -0.920086 -2.629371 -2.426177 0
M  V30 2 C -2.371040 -2.247234 -2.158357 0
M  V30 3 N -3.204337 -2.194824 -3.291509 0
M  V30 4 C -3.470871 -3.484186 -3.847876 0
M  V30 5 C -2.348168 -4.190163 -4.516098 0
M  V30 6 C -4.405663 -1.454000 -3.230546 0
M  V30 7 C -4.293840 0.046044 -3.171010 0
M  V30 8 O -3.599647 0.445086 -2.058650 0
M  V30 9 C -3.262001 1.681232 -1.604727 0
M  V30 10 C -3.616946 2.802405 -2.281995 0
M  V30 11 C -3.260618 4.041036 -1.798437 0
M  V30 12 C -3.597842 5.304683 -2.458219 0
M  V30 13 N -4.344230 5.204163 -3.685120 0
M  V30 14 O -3.257475 6.430145 -1.985900 0
M  V30 15 C -2.544196 4.106000 -0.625060 0
M  V30 16 N -2.181954 5.318774 -0.133497 0
M  V30 17 C -1.481198 5.390442 1.010230 0
M  V30 18 N -1.123493 4.293048 1.690098 0
M  V30 19 C -1.430847 3.065483 1.289256 0
M  V30 20 N -1.049353 1.893660 2.017013 0
M  V30 21 C -0.290368 2.140632 3.236312 0
M  V30 22 C 0.000683 0.819022 3.846663 0
M  V30 23 C -0.841952 0.223303 4.759559 0
M  V30 24 C -0.611329 -1.003508 5.349272 0
M  V30 25 C 0.550232 -1.672435 4.990957 0
M  V30 26 C 1.450656 -1.136443 4.076107 0
M  V30 27 N 2.644351 -1.811400 3.699723 0
M  V30 28 C 3.985823 -1.918045 4.082589 0
M  V30 29 O 4.313564 -1.217975 5.074491 0
M  V30 30 C 4.838680 -2.798293 3.321134 0
M  V30 31 C 4.523087 -3.580088 2.242007 0
M  V30 32 C 5.449035 -4.377500 1.607271 0
M  V30 33 C 6.758135 -4.435718 2.024546 0
M  V30 34 O 7.709195 -5.223191 1.410944 0
M  V30 35 C 7.438049 -6.043896 0.298897 0
M  V30 36 C 7.067997 -3.651871 3.104157 0
M  V30 37 C 6.162259 -2.832016 3.773985 0
M  V30 38 C 1.145827 0.105716 3.525963 0
M  V30 39 C -2.150244 2.985422 0.115953 0
M  V30 40 C -2.535377 1.784516 -0.417867 0
M  V30 41 H -0.818226 -3.715148 -2.535646 0
M  V30 42 H -0.510266 -2.077566 -3.269313 0
M  V30 43 H -0.321018 -2.375695 -1.513492 0
M  V30 44 H -2.331430 -1.291568 -1.581697 0
M  V30 45 H -2.747775 -2.993295 -1.381848 0
M  V30 46 H -3.846528 -4.197324 -3.042885 0
M  V30 47 H -4.353590 -3.395755 -4.535669 0
M  V30 48 H -2.741590 -4.610712 -5.504193 0
M  V30 49 H -2.020202 -5.128254 -3.974657 0
M  V30 50 H -1.505887 -3.543382 -4.810709 0
M  V30 51 H -4.966149 -1.842333 -2.315387 0
M  V30 52 H -5.120165 -1.761172 -4.062782 0
M  V30 53 H -5.329144 0.446970 -3.246152 0
M  V30 54 H -3.814524 0.349868 -4.142974 0
M  V30 55 H -4.178420 2.758038 -3.202798 0
M  V30 56 H -3.846881 5.213679 -4.623533 0
M  V30 57 H -5.340349 5.114728 -3.974415 0
M  V30 58 H -1.162284 6.324282 1.455173 0
M  V30 59 H -1.267293 0.924962 1.746763 0
M  V30 60 H -0.846344 2.760470 3.947185 0
M  V30 61 H 0.669634 2.639116 2.940866 0
M  V30 62 H -1.748273 0.728261 5.049484 0
M  V30 63 H -1.279743 -1.460851 6.065040 0
M  V30 64 H 0.827509 -2.648348 5.398174 0
M  V30 65 H 2.181444 -2.318462 2.896273 0
M  V30 66 H 3.496242 -3.526293 1.924329 0
M  V30 67 H 5.113482 -4.965998 0.759283 0
M  V30 68 H 6.932128 -7.006227 0.582825 0
M  V30 69 H 6.759338 -5.565793 -0.449856 0
M  V30 70 H 8.367127 -6.308216 -0.241011 0
M  V30 71 H 8.090844 -3.672895 3.459470 0
M  V30 72 H 6.513078 -2.244014 4.627378 0
M  V30 73 H 1.823118 0.531804 2.823729 0
M  V30 74 H -2.286150 0.863259 0.068428 0
M  V30 END ATOM
M  V30 BEGIN BOND
M  V30 1 1 1 2
M  V30 2 1 2 3
M  V30 3 1 3 4
M  V30 4 1 4 5
M  V30 5 1 3 6
M  V30 6 1 6 7
M  V30 7 1 7 8
M  V30 8 1 8 9
M  V30 9 2 9 10
M  V30 10 1 10 11
M  V30 11 1 11 12
M  V30 12 1 12 13
M  V30 13 2 12 14
M  V30 14 2 11 15
M  V30 15 1 15 16
M  V30 16 2 16 17
M  V30 17 1 17 18
M  V30 18 2 18 19
M  V30 19 1 19 20
M  V30 20 1 20 21
M  V30 21 1 21 22
M  V30 22 2 22 23
M  V30 23 1 23 24
M  V30 24 2 24 25
M  V30 25 1 25 26
M  V30 26 1 26 27
M  V30 27 1 27 28
M  V30 28 2 28 29
M  V30 29 1 28 30
M  V30 30 2 30 31
M  V30 31 1 31 32
M  V30 32 2 32 33
M  V30 33 1 33 34
M  V30 34 1 34 35
M  V30 35 1 33 36
M  V30 36 2 36 37
M  V30 37 2 26 38
M  V30 38 1 19 39
M  V30 39 2 39 40
M  V30 40 1 40 9
M  V30 41 1 39 15
M  V30 42 1 38 22
M  V30 43 1 37 30
M  V30 44 1 1 41
M  V30 45 1 1 42
M  V30 46 1 1 43
M  V30 47 1 2 44
M  V30 48 1 2 45
M  V30 49 1 4 46
M  V30 50 1 4 47
M  V30 51 1 5 48
M  V30 52 1 5 49
M  V30 53 1 5 50
M  V30 54 1 6 51
M  V30 55 1 6 52
M  V30 56 1 7 53
M  V30 57 1 7 54
M  V30 58 1 10 55
M  V30 59 1 13 56
M  V30 60 1 13 57
M  V30 61 1 17 58
M  V30 62 1 20 59
M  V30 63 1 21 60
M  V30 64 1 21 61
M  V30 65 1 23 62
M  V30 66 1 24 63
M  V30 67 1 25 64
M  V30 68 1 27 65
M  V30 69 1 31 66
M  V30 70 1 32 67
M  V30 71 1 35 68
M  V30 72 1 35 69
M  V30 73 1 35 70
M  V30 74 1 36 71
M  V30 75 1 37 72
M  V30 76 1 38 73
M  V30 77 1 40 74
M  V30 END BOND
M  V30 END CTAB
M  END
>  <Dataset>  (32) 
ChEMBL_Kinases

>  <Ligand_Instance>  (32) 
nan

>  <PDB_ID>  (32) 
nan

>  <Standardized_SMILES>  (32) 
CCN(CC)CCOc1cc(C(N)=O)c2ncnc(NCc3cccc(NC(=O)c4ccc(OC)cc4)c3)c2c1

>  <Name>  (32) 
nan

>  <Pocket>  (32) 
nan

>  <ATP_Site>  (32) 
nan

>  <Peripheral>  (32) 
nan

>  <Num_H_Atoms_ProtBoundConf>  (32) 
nan

>  <Num_Resolved_Atoms>  (32) 
nan

>  <Num_Not_Resolved_Atoms>  (32) 
nan

$$$$
CHEMBL53025
     RDKit          3D

  0  0  0  0  0  0  0  0  0  0999 V3000
M  V30 BEGIN CTAB
M  V30 COUNTS 66 70 0 0 0
M  V30 BEGIN ATOM
M  V30 1 C 2.165563 2.236924 1.836379 0
M  V30 2 N 2.993452 1.603086 2.830239 0
M  V30 3 N 2.387072 1.387008 4.006471 0
M  V30 4 N 3.310162 0.860509 4.795429 0
M  V30 5 N 4.411173 0.771287 4.109403 0
M  V30 6 C 4.265001 1.227227 2.854807 0
M  V30 7 C 5.357931 1.293478 1.923677 0
M  V30 8 C 6.549452 1.685125 2.535134 0
M  V30 9 C 7.733814 1.851609 1.866775 0
M  V30 10 C 7.824404 1.639736 0.528301 0
M  V30 11 C 6.639575 1.244898 -0.090762 0
M  V30 12 O 6.787155 1.040018 -1.462360 0
M  V30 13 C 5.424928 1.067923 0.578036 0
M  V30 14 C 4.336790 0.647439 -0.207386 0
M  V30 15 O 4.511111 1.084109 -1.394284 0
M  V30 16 C 3.095703 -0.063858 -0.298467 0
M  V30 17 C 2.202438 0.156180 -1.315037 0
M  V30 18 O 2.380370 1.099768 -2.295536 0
M  V30 19 C 1.030582 -0.604103 -1.390955 0
M  V30 20 C 0.758482 -1.573409 -0.458304 0
M  V30 21 C -0.488603 -2.312433 -0.622251 0
M  V30 22 O -0.893178 -3.228414 0.144048 0
M  V30 23 O -1.369625 -2.090512 -1.640326 0
M  V30 24 C -2.587164 -2.753885 -1.869495 0 CFG=2
M  V30 25 C -2.654712 -3.438506 -3.204490 0
M  V30 26 C -4.119065 -3.415106 -3.603838 0
M  V30 27 C -4.724593 -2.227355 -2.943866 0
M  V30 28 C -3.796033 -1.873675 -1.833878 0 CFG=1
M  V30 29 N -4.479864 -2.031879 -0.541142 0
M  V30 30 C -4.639400 -0.946626 0.340932 0
M  V30 31 O -4.169137 0.160972 -0.032418 0
M  V30 32 C -5.328984 -1.135850 1.630346 0
M  V30 33 C -5.864470 -2.317051 2.099090 0
M  V30 34 C -6.486360 -2.360150 3.329274 0
M  V30 35 C -6.576890 -1.216950 4.101817 0
M  V30 36 O -7.203482 -1.223524 5.359696 0
M  V30 37 C -6.051802 -0.003439 3.670843 0
M  V30 38 C -5.439910 -0.018078 2.430858 0
M  V30 39 C 1.637471 -1.813319 0.567918 0
M  V30 40 C 2.805362 -1.043159 0.627157 0
M  V30 41 O 3.530097 -1.455023 1.714141 0
M  V30 42 H 1.558843 3.082626 2.292453 0
M  V30 43 H 1.449143 1.464255 1.452577 0
M  V30 44 H 2.769537 2.634150 1.006248 0
M  V30 45 H 6.637317 1.893449 3.608300 0
M  V30 46 H 8.638974 2.154177 2.369379 0
M  V30 47 H 8.753107 1.772837 0.002205 0
M  V30 48 H 7.506645 0.361231 -1.731623 0
M  V30 49 H 2.007046 1.012773 -3.228622 0
M  V30 50 H 0.339784 -0.415834 -2.197371 0
M  V30 51 H -2.679328 -3.496597 -1.045575 0
M  V30 52 H -1.977034 -3.054265 -3.969643 0
M  V30 53 H -2.402625 -4.507757 -3.044952 0
M  V30 54 H -4.221352 -3.405029 -4.718736 0
M  V30 55 H -4.670654 -4.312635 -3.247494 0
M  V30 56 H -4.906190 -1.376937 -3.647883 0
M  V30 57 H -5.756312 -2.433734 -2.530610 0
M  V30 58 H -3.462166 -0.800624 -1.936701 0
M  V30 59 H -4.825497 -2.996365 -0.345991 0
M  V30 60 H -5.763791 -3.172482 1.454022 0
M  V30 61 H -6.892933 -3.285913 3.669427 0
M  V30 62 H -7.847732 -0.456772 5.547650 0
M  V30 63 H -6.126431 0.888935 4.281828 0
M  V30 64 H -5.032556 0.939801 2.105276 0
M  V30 65 H 1.310170 -2.596447 1.231259 0
M  V30 66 H 3.886002 -2.378136 1.865840 0
M  V30 END ATOM
M  V30 BEGIN BOND
M  V30 1 1 1 2
M  V30 2 1 2 3
M  V30 3 2 3 4
M  V30 4 1 4 5
M  V30 5 2 5 6
M  V30 6 1 6 7
M  V30 7 2 7 8
M  V30 8 1 8 9
M  V30 9 2 9 10
M  V30 10 1 10 11
M  V30 11 1 11 12
M  V30 12 2 11 13
M  V30 13 1 13 14
M  V30 14 2 14 15
M  V30 15 1 14 16
M  V30 16 2 16 17
M  V30 17 1 17 18
M  V30 18 1 17 19
M  V30 19 2 19 20
M  V30 20 1 20 21
M  V30 21 2 21 22
M  V30 22 1 21 23
M  V30 23 1 23 24
M  V30 24 1 24 25
M  V30 25 1 25 26
M  V30 26 1 26 27
M  V30 27 1 27 28
M  V30 28 1 28 29
M  V30 29 1 29 30
M  V30 30 2 30 31
M  V30 31 1 30 32
M  V30 32 2 32 33
M  V30 33 1 33 34
M  V30 34 2 34 35
M  V30 35 1 35 36
M  V30 36 1 35 37
M  V30 37 2 37 38
M  V30 38 1 20 39
M  V30 39 2 39 40
M  V30 40 1 40 41
M  V30 41 1 6 2
M  V30 42 1 13 7
M  V30 43 1 40 16
M  V30 44 1 28 24
M  V30 45 1 38 32
M  V30 46 1 1 42
M  V30 47 1 1 43
M  V30 48 1 1 44
M  V30 49 1 8 45
M  V30 50 1 9 46
M  V30 51 1 10 47
M  V30 52 1 12 48
M  V30 53 1 18 49
M  V30 54 1 19 50
M  V30 55 1 24 51 CFG=1
M  V30 56 1 25 52
M  V30 57 1 25 53
M  V30 58 1 26 54
M  V30 59 1 26 55
M  V30 60 1 27 56
M  V30 61 1 27 57
M  V30 62 1 28 58 CFG=3
M  V30 63 1 29 59
M  V30 64 1 33 60
M  V30 65 1 34 61
M  V30 66 1 36 62
M  V30 67 1 37 63
M  V30 68 1 38 64
M  V30 69 1 39 65
M  V30 70 1 41 66
M  V30 END BOND
M  V30 END CTAB
M  END
>  <Dataset>  (33) 
ChEMBL_Kinases

>  <Ligand_Instance>  (33) 
nan

>  <PDB_ID>  (33) 
nan

>  <Standardized_SMILES>  (33) 
Cn1nnnc1-c1cccc(O)c1C(=O)c1c(O)cc(C(=O)O[C@@H]2CCC[C@H]2NC(=O)c2ccc(O)cc2)cc1O

>  <Name>  (33) 
nan

>  <Pocket>  (33) 
nan

>  <ATP_Site>  (33) 
nan

>  <Peripheral>  (33) 
nan

>  <Num_H_Atoms_ProtBoundConf>  (33) 
nan

>  <Num_Resolved_Atoms>  (33) 
nan

>  <Num_Not_Resolved_Atoms>  (33) 
nan

$$$$
CHEMBL3942186
     RDKit          3D

  0  0  0  0  0  0  0  0  0  0999 V3000
M  V30 BEGIN CTAB
M  V30 COUNTS 55 59 0 0 0
M  V30 BEGIN ATOM
M  V30 1 C 1.022004 -2.332068 1.343743 0
M  V30 2 C 2.168397 -1.381113 1.513358 0 CFG=2
M  V30 3 C 1.893739 -0.317679 2.556276 0
M  V30 4 C 3.163567 0.483452 2.710686 0 CFG=2
M  V30 5 N 2.950475 1.595445 3.629745 0
M  V30 6 C 3.672789 1.042177 1.419731 0
M  V30 7 N 2.712238 0.699280 0.353885 0
M  V30 8 C 2.129558 1.810148 -0.365553 0
M  V30 9 C 3.010592 2.866681 -0.602685 0
M  V30 10 C 2.675048 3.995497 -1.315343 0
M  V30 11 N 1.414302 4.075658 -1.811247 0
M  V30 12 C 0.571895 3.057935 -1.580154 0
M  V30 13 C 0.853722 1.912926 -0.877549 0
M  V30 14 N -0.050645 0.864993 -0.618737 0
M  V30 15 C -1.380439 0.737682 -1.090564 0
M  V30 16 N -2.027746 1.604943 -1.883922 0
M  V30 17 C -3.276969 1.216084 -2.165312 0
M  V30 18 C -3.428328 0.027884 -1.508025 0
M  V30 19 C -4.529185 -0.801725 -1.461241 0
M  V30 20 C -4.425293 -1.959252 -0.717229 0
M  V30 21 C -3.220886 -2.181781 -0.083960 0
M  V30 22 C -3.171081 -3.433945 0.694736 0
M  V30 23 C -2.723794 -4.504562 -0.070385 0
M  V30 24 F -2.367198 -4.438559 -1.381533 0
M  V30 25 C -2.604237 -5.768605 0.470772 0
M  V30 26 C -2.944011 -5.950695 1.810979 0
M  V30 27 C -3.386360 -4.880723 2.559103 0
M  V30 28 C -3.506434 -3.617515 2.020457 0
M  V30 29 F -3.927381 -2.499097 2.656072 0
M  V30 30 N -2.173371 -1.342905 -0.158419 0
M  V30 31 N -2.278893 -0.237076 -0.871786 0
M  V30 32 C 2.617873 -0.741458 0.248023 0
M  V30 33 H 1.077377 -3.113667 2.114996 0
M  V30 34 H 0.049558 -1.811118 1.463911 0
M  V30 35 H 1.102642 -2.826019 0.352436 0
M  V30 36 H 3.004888 -1.998204 1.960663 0
M  V30 37 H 1.666952 -0.771488 3.542727 0
M  V30 38 H 1.090785 0.344248 2.184716 0
M  V30 39 H 3.923524 -0.230736 3.141494 0
M  V30 40 H 2.866784 2.511492 3.121810 0
M  V30 41 H 3.749835 1.656062 4.271094 0
M  V30 42 H 3.837148 2.147831 1.481281 0
M  V30 43 H 4.624548 0.554140 1.128598 0
M  V30 44 H 4.049896 2.964493 -0.291569 0
M  V30 45 H 3.325175 4.850714 -1.529674 0
M  V30 46 H -0.400662 3.215531 -2.011708 0
M  V30 47 H 0.215550 0.071916 -0.014753 0
M  V30 48 H -3.970440 1.759810 -2.781724 0
M  V30 49 H -5.421428 -0.550166 -1.982863 0
M  V30 50 H -5.278636 -2.604776 -0.679476 0
M  V30 51 H -2.261818 -6.637754 -0.077244 0
M  V30 52 H -2.868846 -6.921808 2.285815 0
M  V30 53 H -3.664762 -4.971379 3.612697 0
M  V30 54 H 2.099458 -1.096831 -0.665964 0
M  V30 55 H 3.693609 -1.085252 0.056062 0
M  V30 END ATOM
M  V30 BEGIN BOND
M  V30 1 1 1 2
M  V30 2 1 2 3
M  V30 3 1 3 4
M  V30 4 1 4 5
M  V30 5 1 4 6
M  V30 6 1 6 7
M  V30 7 1 7 8
M  V30 8 2 8 9
M  V30 9 1 9 10
M  V30 10 2 10 11
M  V30 11 1 11 12
M  V30 12 2 12 13
M  V30 13 1 13 14
M  V30 14 1 14 15
M  V30 15 2 15 16
M  V30 16 1 16 17
M  V30 17 2 17 18
M  V30 18 1 18 19
M  V30 19 2 19 20
M  V30 20 1 20 21
M  V30 21 1 21 22
M  V30 22 2 22 23
M  V30 23 1 23 24
M  V30 24 1 23 25
M  V30 25 2 25 26
M  V30 26 1 26 27
M  V30 27 2 27 28
M  V30 28 1 28 29
M  V30 29 2 21 30
M  V30 30 1 30 31
M  V30 31 1 7 32
M  V30 32 1 32 2
M  V30 33 1 13 8
M  V30 34 1 31 15
M  V30 35 1 31 18
M  V30 36 1 28 22
M  V30 37 1 1 33
M  V30 38 1 1 34
M  V30 39 1 1 35
M  V30 40 1 2 36 CFG=1
M  V30 41 1 3 37
M  V30 42 1 3 38
M  V30 43 1 4 39 CFG=1
M  V30 44 1 5 40
M  V30 45 1 5 41
M  V30 46 1 6 42
M  V30 47 1 6 43
M  V30 48 1 9 44
M  V30 49 1 10 45
M  V30 50 1 12 46
M  V30 51 1 14 47
M  V30 52 1 17 48
M  V30 53 1 19 49
M  V30 54 1 20 50
M  V30 55 1 25 51
M  V30 56 1 26 52
M  V30 57 1 27 53
M  V30 58 1 32 54
M  V30 59 1 32 55
M  V30 END BOND
M  V30 END CTAB
M  END
>  <Dataset>  (34) 
ChEMBL_Kinases

>  <Ligand_Instance>  (34) 
nan

>  <PDB_ID>  (34) 
nan

>  <Standardized_SMILES>  (34) 
C[C@@H]1C[C@H](N)CN(c2ccncc2Nc2ncc3ccc(-c4c(F)cccc4F)nn23)C1

>  <Name>  (34) 
nan

>  <Pocket>  (34) 
nan

>  <ATP_Site>  (34) 
nan

>  <Peripheral>  (34) 
nan

>  <Num_H_Atoms_ProtBoundConf>  (34) 
nan

>  <Num_Resolved_Atoms>  (34) 
nan

>  <Num_Not_Resolved_Atoms>  (34) 
nan

$$$$
CHEMBL3942417
     RDKit          3D

  0  0  0  0  0  0  0  0  0  0999 V3000
M  V30 BEGIN CTAB
M  V30 COUNTS 40 43 0 0 0
M  V30 BEGIN ATOM
M  V30 1 C 0.190664 -4.818635 2.461019 0
M  V30 2 C 0.745709 -3.446281 2.339757 0
M  V30 3 C 1.017448 -2.809969 3.530192 0
M  V30 4 C 1.534433 -1.534161 3.471915 0
M  V30 5 C 1.769314 -0.921772 2.284360 0
M  V30 6 C 1.518632 -1.503594 1.064893 0
M  V30 7 C 1.641460 -1.095880 -0.323507 0
M  V30 8 C 2.525739 -1.802957 -1.154457 0
M  V30 9 N 2.515302 -1.240438 -2.392867 0
M  V30 10 C 1.679670 -0.212812 -2.420850 0
M  V30 11 N 1.226714 0.695847 -3.300500 0
M  V30 12 C 0.313243 1.622399 -2.958548 0
M  V30 13 N -0.209847 1.697748 -1.697898 0
M  V30 14 C 0.222767 0.796865 -0.775783 0
M  V30 15 N -0.425103 1.072049 0.454125 0
M  V30 16 C -0.156548 1.710183 1.753249 0
M  V30 17 C -1.099934 2.886274 1.865698 0
M  V30 18 O -2.404731 2.442956 1.850368 0
M  V30 19 C -2.707009 1.763185 0.657160 0
M  V30 20 C -1.803842 0.562567 0.482307 0
M  V30 21 C 1.148694 -0.127558 -1.157041 0
M  V30 22 C 0.992551 -2.803649 1.150921 0
M  V30 23 H -0.132769 -5.126925 1.447873 0
M  V30 24 H -0.663005 -4.725028 3.179763 0
M  V30 25 H 0.897188 -5.532310 2.923174 0
M  V30 26 H 0.876260 -3.186117 4.534158 0
M  V30 27 H 1.805935 -0.888493 4.304041 0
M  V30 28 H 2.187533 0.080879 2.105894 0
M  V30 29 H 3.142203 -2.652139 -0.931410 0
M  V30 30 H 3.077556 -1.554400 -3.224233 0
M  V30 31 H 0.043947 2.292036 -3.785165 0
M  V30 32 H 0.905147 2.036478 1.807692 0
M  V30 33 H -0.420517 0.992857 2.551897 0
M  V30 34 H -0.990173 3.590283 1.015451 0
M  V30 35 H -0.957576 3.452489 2.794275 0
M  V30 36 H -3.770608 1.441439 0.769248 0
M  V30 37 H -2.685438 2.448804 -0.216434 0
M  V30 38 H -2.106452 0.066784 -0.434034 0
M  V30 39 H -1.963240 -0.071076 1.382073 0
M  V30 40 H 0.722159 -3.446373 0.297053 0
M  V30 END ATOM
M  V30 BEGIN BOND
M  V30 1 1 1 2
M  V30 2 2 2 3
M  V30 3 1 3 4
M  V30 4 2 4 5
M  V30 5 1 5 6
M  V30 6 1 6 7
M  V30 7 2 7 8
M  V30 8 1 8 9
M  V30 9 1 9 10
M  V30 10 2 10 11
M  V30 11 1 11 12
M  V30 12 2 12 13
M  V30 13 1 13 14
M  V30 14 1 14 15
M  V30 15 1 15 16
M  V30 16 1 16 17
M  V30 17 1 17 18
M  V30 18 1 18 19
M  V30 19 1 19 20
M  V30 20 2 14 21
M  V30 21 2 6 22
M  V30 22 1 22 2
M  V30 23 1 21 7
M  V30 24 1 21 10
M  V30 25 1 20 15
M  V30 26 1 1 23
M  V30 27 1 1 24
M  V30 28 1 1 25
M  V30 29 1 3 26
M  V30 30 1 4 27
M  V30 31 1 5 28
M  V30 32 1 8 29
M  V30 33 1 9 30
M  V30 34 1 12 31
M  V30 35 1 16 32
M  V30 36 1 16 33
M  V30 37 1 17 34
M  V30 38 1 17 35
M  V30 39 1 19 36
M  V30 40 1 19 37
M  V30 41 1 20 38
M  V30 42 1 20 39
M  V30 43 1 22 40
M  V30 END BOND
M  V30 END CTAB
M  END
>  <Dataset>  (35) 
ChEMBL_Kinases

>  <Ligand_Instance>  (35) 
nan

>  <PDB_ID>  (35) 
nan

>  <Standardized_SMILES>  (35) 
Cc1cccc(-c2c[nH]c3ncnc(N4CCOCC4)c23)c1

>  <Name>  (35) 
nan

>  <Pocket>  (35) 
nan

>  <ATP_Site>  (35) 
nan

>  <Peripheral>  (35) 
nan

>  <Num_H_Atoms_ProtBoundConf>  (35) 
nan

>  <Num_Resolved_Atoms>  (35) 
nan

>  <Num_Not_Resolved_Atoms>  (35) 
nan

$$$$
CHEMBL85105
     RDKit          3D

  0  0  0  0  0  0  0  0  0  0999 V3000
M  V30 BEGIN CTAB
M  V30 COUNTS 21 22 0 0 0
M  V30 BEGIN ATOM
M  V30 1 O -0.283120 -0.859797 5.021239 0
M  V30 2 C 0.633693 -0.920675 4.189065 0
M  V30 3 N 2.038330 -0.569530 4.253501 0
M  V30 4 C 2.618738 -0.188105 2.978093 0
M  V30 5 O 3.856724 0.143766 2.896546 0
M  V30 6 C 1.659095 -0.231781 1.866453 0
M  V30 7 C 1.701827 0.525362 0.826753 0
M  V30 8 C 0.675972 0.361008 -0.188456 0
M  V30 9 C 0.205529 -0.828968 -0.734903 0
M  V30 10 C -0.796189 -0.777403 -1.652676 0
M  V30 11 C -1.406544 0.384795 -2.104021 0
M  V30 12 C -0.902426 1.539264 -1.527814 0
M  V30 13 C 0.107989 1.537259 -0.596869 0
M  V30 14 S 0.535580 -1.519590 2.464969 0
M  V30 15 H 2.556724 -0.593372 5.159455 0
M  V30 16 H 2.482080 1.286372 0.697887 0
M  V30 17 H 0.684127 -1.728978 -0.379087 0
M  V30 18 H -1.171673 -1.708533 -2.092995 0
M  V30 19 H -2.190711 0.449929 -2.823752 0
M  V30 20 H -1.355453 2.472326 -1.853862 0
M  V30 21 H 0.397549 2.511814 -0.230969 0
M  V30 END ATOM
M  V30 BEGIN BOND
M  V30 1 2 1 2
M  V30 2 1 2 3
M  V30 3 1 3 4
M  V30 4 2 4 5
M  V30 5 1 4 6
M  V30 6 2 6 7
M  V30 7 1 7 8
M  V30 8 2 8 9
M  V30 9 1 9 10
M  V30 10 2 10 11
M  V30 11 1 11 12
M  V30 12 2 12 13
M  V30 13 1 6 14
M  V30 14 1 14 2
M  V30 15 1 13 8
M  V30 16 1 3 15
M  V30 17 1 7 16
M  V30 18 1 9 17
M  V30 19 1 10 18
M  V30 20 1 11 19
M  V30 21 1 12 20
M  V30 22 1 13 21
M  V30 END BOND
M  V30 END CTAB
M  END
>  <Dataset>  (36) 
ChEMBL_Kinases

>  <Ligand_Instance>  (36) 
nan

>  <PDB_ID>  (36) 
nan

>  <Standardized_SMILES>  (36) 
O=C1NC(=O)/C(=C/c2ccccc2)S1

>  <Name>  (36) 
nan

>  <Pocket>  (36) 
nan

>  <ATP_Site>  (36) 
nan

>  <Peripheral>  (36) 
nan

>  <Num_H_Atoms_ProtBoundConf>  (36) 
nan

>  <Num_Resolved_Atoms>  (36) 
nan

>  <Num_Not_Resolved_Atoms>  (36) 
nan

$$$$
CHEMBL8260
     RDKit          3D

  0  0  0  0  0  0  0  0  0  0999 V3000
M  V30 BEGIN CTAB
M  V30 COUNTS 30 32 0 0 0
M  V30 BEGIN ATOM
M  V30 1 O -2.667104 -1.906771 1.928220 0
M  V30 2 C -1.603645 -1.391499 1.515128 0
M  V30 3 C -0.717266 -2.093738 0.723175 0
M  V30 4 C 0.459320 -1.555065 0.253713 0
M  V30 5 C 1.422051 -2.262134 -0.584449 0
M  V30 6 C 2.553546 -1.571791 -0.967786 0
M  V30 7 C 3.497476 -2.214113 -1.769428 0
M  V30 8 C 3.277894 -3.523392 -2.159908 0
M  V30 9 C 2.142619 -4.254345 -1.790443 0
M  V30 10 C 1.245302 -3.566582 -0.997869 0
M  V30 11 O 0.719823 -0.316847 0.592376 0
M  V30 12 C -0.096356 0.395556 1.347629 0
M  V30 13 C 0.301656 1.687852 1.627914 0
M  V30 14 C -0.503285 2.503550 2.417507 0
M  V30 15 O -0.178202 3.803470 2.743109 0
M  V30 16 C -1.700078 1.982680 2.905729 0
M  V30 17 O -2.520735 2.786063 3.699565 0
M  V30 18 C -2.114529 0.682569 2.631887 0
M  V30 19 O -3.302213 0.163980 3.115722 0
M  V30 20 C -1.289319 -0.087436 1.848613 0
M  V30 21 H -0.958588 -3.099117 0.465479 0
M  V30 22 H 2.778489 -0.561010 -0.698482 0
M  V30 23 H 4.394611 -1.696079 -2.084967 0
M  V30 24 H 3.995135 -4.050855 -2.784604 0
M  V30 25 H 1.971975 -5.260114 -2.089266 0
M  V30 26 H 0.364003 -4.113658 -0.703012 0
M  V30 27 H 1.223716 2.147608 1.274894 0
M  V30 28 H 0.718538 4.041175 3.172914 0
M  V30 29 H -2.155575 3.280588 4.509002 0
M  V30 30 H -4.056387 0.032314 2.440543 0
M  V30 END ATOM
M  V30 BEGIN BOND
M  V30 1 2 1 2
M  V30 2 1 2 3
M  V30 3 2 3 4
M  V30 4 1 4 5
M  V30 5 2 5 6
M  V30 6 1 6 7
M  V30 7 2 7 8
M  V30 8 1 8 9
M  V30 9 2 9 10
M  V30 10 1 4 11
M  V30 11 1 11 12
M  V30 12 2 12 13
M  V30 13 1 13 14
M  V30 14 1 14 15
M  V30 15 2 14 16
M  V30 16 1 16 17
M  V30 17 1 16 18
M  V30 18 1 18 19
M  V30 19 2 18 20
M  V30 20 1 20 2
M  V30 21 1 10 5
M  V30 22 1 20 12
M  V30 23 1 3 21
M  V30 24 1 6 22
M  V30 25 1 7 23
M  V30 26 1 8 24
M  V30 27 1 9 25
M  V30 28 1 10 26
M  V30 29 1 13 27
M  V30 30 1 15 28
M  V30 31 1 17 29
M  V30 32 1 19 30
M  V30 END BOND
M  V30 END CTAB
M  END
>  <Dataset>  (37) 
ChEMBL_Kinases

>  <Ligand_Instance>  (37) 
nan

>  <PDB_ID>  (37) 
nan

>  <Standardized_SMILES>  (37) 
O=c1cc(-c2ccccc2)oc2cc(O)c(O)c(O)c12

>  <Name>  (37) 
BAICALEIN

>  <Pocket>  (37) 
nan

>  <ATP_Site>  (37) 
nan

>  <Peripheral>  (37) 
nan

>  <Num_H_Atoms_ProtBoundConf>  (37) 
nan

>  <Num_Resolved_Atoms>  (37) 
nan

>  <Num_Not_Resolved_Atoms>  (37) 
nan

$$$$
CHEMBL3943181
     RDKit          3D

  0  0  0  0  0  0  0  0  0  0999 V3000
M  V30 BEGIN CTAB
M  V30 COUNTS 47 50 0 0 0
M  V30 BEGIN ATOM
M  V30 1 N 1.200548 -4.431942 3.535218 0
M  V30 2 C 0.147937 -3.721231 2.906993 0
M  V30 3 O -0.711314 -4.506564 3.314861 0
M  V30 4 C 0.312803 -2.527213 2.125276 0
M  V30 5 N 1.572863 -2.073729 1.995539 0
M  V30 6 C 1.816467 -0.961521 1.279207 0
M  V30 7 C 0.758769 -0.308382 0.690795 0
M  V30 8 N 0.898342 0.858959 -0.072145 0
M  V30 9 C 1.933426 1.723590 -0.486208 0 CFG=2
M  V30 10 C 3.089495 1.033952 -1.221321 0
M  V30 11 C 3.782116 2.110142 -2.015454 0
M  V30 12 C 3.757835 3.473565 -1.483920 0
M  V30 13 C 3.171901 3.766127 -0.168393 0
M  V30 14 C 2.605332 2.555710 0.556194 0 CFG=2
M  V30 15 N 3.762866 1.901567 1.138819 0
M  V30 16 N -0.476350 -0.811586 0.857510 0
M  V30 17 C -0.765452 -1.910457 1.558388 0
M  V30 18 C -2.142708 -2.354018 1.665171 0
M  V30 19 N -2.783753 -3.361968 2.255644 0
M  V30 20 C -4.101860 -3.348707 2.062595 0
M  V30 21 C -5.077245 -4.215955 2.511527 0
M  V30 22 C -6.379452 -3.939388 2.143159 0
M  V30 23 C -6.665040 -2.839742 1.361422 0
M  V30 24 C -5.643562 -1.986422 0.928322 0
M  V30 25 C -4.333967 -2.239112 1.281610 0
M  V30 26 N -3.134982 -1.674698 1.068288 0
M  V30 27 H 1.781157 -5.216407 3.116760 0
M  V30 28 H 1.582553 -4.307859 4.507944 0
M  V30 29 H 2.818209 -0.646307 1.201956 0
M  V30 30 H -0.014725 1.240702 -0.471951 0
M  V30 31 H 1.553004 2.470912 -1.272231 0
M  V30 32 H 2.650564 0.271091 -1.858101 0
M  V30 33 H 3.832537 0.642959 -0.478121 0
M  V30 34 H 3.358383 2.039624 -3.061277 0
M  V30 35 H 4.839102 1.747333 -2.165646 0
M  V30 36 H 4.804077 3.902381 -1.506790 0
M  V30 37 H 3.226165 4.132558 -2.235025 0
M  V30 38 H 3.905396 4.210403 0.537680 0
M  V30 39 H 2.340631 4.516198 -0.198553 0
M  V30 40 H 1.927489 2.930573 1.348898 0
M  V30 41 H 4.549473 2.575926 1.355038 0
M  V30 42 H 3.487837 1.504242 2.071234 0
M  V30 43 H -4.815994 -5.078117 3.129638 0
M  V30 44 H -7.194498 -4.580537 2.461980 0
M  V30 45 H -7.678923 -2.587118 1.049453 0
M  V30 46 H -5.838425 -1.116824 0.314470 0
M  V30 47 H -3.118944 -0.806981 0.485145 0
M  V30 END ATOM
M  V30 BEGIN BOND
M  V30 1 1 1 2
M  V30 2 2 2 3
M  V30 3 1 2 4
M  V30 4 2 4 5
M  V30 5 1 5 6
M  V30 6 2 6 7
M  V30 7 1 7 8
M  V30 8 1 8 9
M  V30 9 1 9 10
M  V30 10 1 10 11
M  V30 11 1 11 12
M  V30 12 1 12 13
M  V30 13 1 13 14
M  V30 14 1 14 15
M  V30 15 1 7 16
M  V30 16 2 16 17
M  V30 17 1 17 18
M  V30 18 2 18 19
M  V30 19 1 19 20
M  V30 20 2 20 21
M  V30 21 1 21 22
M  V30 22 2 22 23
M  V30 23 1 23 24
M  V30 24 2 24 25
M  V30 25 1 25 26
M  V30 26 1 17 4
M  V30 27 1 26 18
M  V30 28 1 14 9
M  V30 29 1 25 20
M  V30 30 1 1 27
M  V30 31 1 1 28
M  V30 32 1 6 29
M  V30 33 1 8 30
M  V30 34 1 9 31 CFG=3
M  V30 35 1 10 32
M  V30 36 1 10 33
M  V30 37 1 11 34
M  V30 38 1 11 35
M  V30 39 1 12 36
M  V30 40 1 12 37
M  V30 41 1 13 38
M  V30 42 1 13 39
M  V30 43 1 14 40 CFG=1
M  V30 44 1 15 41
M  V30 45 1 15 42
M  V30 46 1 21 43
M  V30 47 1 22 44
M  V30 48 1 23 45
M  V30 49 1 24 46
M  V30 50 1 26 47
M  V30 END BOND
M  V30 END CTAB
M  END
>  <Dataset>  (38) 
ChEMBL_Kinases

>  <Ligand_Instance>  (38) 
nan

>  <PDB_ID>  (38) 
nan

>  <Standardized_SMILES>  (38) 
NC(=O)c1ncc(N[C@@H]2CCCC[C@@H]2N)nc1-c1nc2ccccc2[nH]1

>  <Name>  (38) 
nan

>  <Pocket>  (38) 
nan

>  <ATP_Site>  (38) 
nan

>  <Peripheral>  (38) 
nan

>  <Num_H_Atoms_ProtBoundConf>  (38) 
nan

>  <Num_Resolved_Atoms>  (38) 
nan

>  <Num_Not_Resolved_Atoms>  (38) 
nan

$$$$
CHEMBL68418
     RDKit          3D

  0  0  0  0  0  0  0  0  0  0999 V3000
M  V30 BEGIN CTAB
M  V30 COUNTS 72 75 0 0 0
M  V30 BEGIN ATOM
M  V30 1 C 2.938239 1.667906 4.035651 0
M  V30 2 C 1.893210 2.028432 3.035953 0
M  V30 3 C 1.932408 3.483349 2.695163 0
M  V30 4 C 1.986558 1.139849 1.771522 0
M  V30 5 O 3.192737 1.277054 1.189463 0
M  V30 6 C 3.858694 0.910656 0.165293 0
M  V30 7 O 2.722795 0.709878 0.559328 0
M  V30 8 C 4.647171 0.538355 -0.947486 0
M  V30 9 C 5.839054 1.258516 -0.708864 0
M  V30 10 C 6.828794 1.173727 -1.698940 0
M  V30 11 C 6.659594 0.433419 -2.840750 0
M  V30 12 C 5.470330 -0.243922 -2.999870 0
M  V30 13 O 5.291970 -1.005105 -4.166501 0
M  V30 14 C 4.471643 -0.202381 -2.076805 0
M  V30 15 C 3.211331 -0.819273 -2.242855 0
M  V30 16 O 3.066222 -0.762050 -3.518217 0
M  V30 17 C 2.027595 -1.467551 -1.780181 0
M  V30 18 C 0.887596 -1.474003 -2.552909 0
M  V30 19 O 0.770657 -0.851554 -3.785744 0
M  V30 20 C -0.257194 -2.144009 -2.104361 0
M  V30 21 C -0.179864 -2.775786 -0.884849 0
M  V30 22 C -1.428533 -3.430913 -0.449310 0
M  V30 23 O -1.617350 -4.070205 0.628807 0
M  V30 24 O -2.575367 -3.402542 -1.223508 0
M  V30 25 C -3.781245 -4.000744 -0.846786 0 CFG=2
M  V30 26 C -4.316061 -4.959544 -1.880388 0
M  V30 27 N -5.708564 -4.623403 -2.116869 0
M  V30 28 C -6.115764 -3.872554 -0.920807 0
M  V30 29 C -4.905702 -2.977289 -0.774413 0 CFG=1
M  V30 30 N -4.847010 -2.251613 0.443538 0
M  V30 31 C -4.638852 -0.840342 0.385583 0
M  V30 32 O -4.516430 -0.328700 -0.752245 0
M  V30 33 C -4.574441 -0.039336 1.599144 0
M  V30 34 C -4.731985 -0.625752 2.834122 0
M  V30 35 C -4.681253 0.103200 4.006270 0
M  V30 36 C -4.460689 1.482256 3.913434 0
M  V30 37 O -4.401659 2.253399 5.085298 0
M  V30 38 C -4.300495 2.074450 2.657811 0
M  V30 39 C -4.356021 1.319965 1.491522 0
M  V30 40 C 0.916624 -2.819461 -0.057225 0
M  V30 41 C 2.010668 -2.146380 -0.548395 0
M  V30 42 O 3.108958 -2.213257 0.306480 0
M  V30 43 H 2.769962 0.660366 4.497881 0
M  V30 44 H 3.926332 1.610032 3.524836 0
M  V30 45 H 2.894609 2.402278 4.852535 0
M  V30 46 H 0.892038 1.795148 3.452511 0
M  V30 47 H 2.089560 4.040563 3.641007 0
M  V30 48 H 2.840289 3.722112 2.077148 0
M  V30 49 H 0.999734 3.867983 2.240718 0
M  V30 50 H 1.050989 1.364924 1.221679 0
M  V30 51 H 1.842239 0.086350 2.198012 0
M  V30 52 H 6.215666 1.898256 0.072614 0
M  V30 53 H 7.812237 1.659894 -1.686269 0
M  V30 54 H 7.393827 0.341764 -3.622472 0
M  V30 55 H 5.946720 -1.757325 -4.329208 0
M  V30 56 H 0.985648 -1.301771 -4.666439 0
M  V30 57 H -1.142739 -2.140148 -2.711191 0
M  V30 58 H -3.745508 -4.525706 0.142882 0
M  V30 59 H -4.278072 -6.018885 -1.554211 0
M  V30 60 H -3.761372 -4.775916 -2.824097 0
M  V30 61 H -5.810266 -3.944086 -2.913586 0
M  V30 62 H -6.116728 -4.615467 -0.096427 0
M  V30 63 H -7.044672 -3.328207 -1.071250 0
M  V30 64 H -4.786712 -2.350153 -1.685626 0
M  V30 65 H -4.958701 -2.787571 1.326760 0
M  V30 66 H -4.898261 -1.662530 3.004773 0
M  V30 67 H -4.791247 -0.327215 5.001206 0
M  V30 68 H -3.756692 3.053344 5.028239 0
M  V30 69 H -4.129123 3.158100 2.703601 0
M  V30 70 H -4.218830 1.855551 0.545299 0
M  V30 71 H 0.887094 -3.331751 0.866386 0
M  V30 72 H 3.435876 -3.074808 0.707216 0
M  V30 END ATOM
M  V30 BEGIN BOND
M  V30 1 1 1 2
M  V30 2 1 2 3
M  V30 3 1 2 4
M  V30 4 1 4 5
M  V30 5 1 5 6
M  V30 6 2 6 7
M  V30 7 1 6 8
M  V30 8 2 8 9
M  V30 9 1 9 10
M  V30 10 2 10 11
M  V30 11 1 11 12
M  V30 12 1 12 13
M  V30 13 2 12 14
M  V30 14 1 14 15
M  V30 15 2 15 16
M  V30 16 1 15 17
M  V30 17 2 17 18
M  V30 18 1 18 19
M  V30 19 1 18 20
M  V30 20 2 20 21
M  V30 21 1 21 22
M  V30 22 2 22 23
M  V30 23 1 22 24
M  V30 24 1 24 25
M  V30 25 1 25 26
M  V30 26 1 26 27
M  V30 27 1 27 28
M  V30 28 1 28 29
M  V30 29 1 29 30
M  V30 30 1 30 31
M  V30 31 2 31 32
M  V30 32 1 31 33
M  V30 33 2 33 34
M  V30 34 1 34 35
M  V30 35 2 35 36
M  V30 36 1 36 37
M  V30 37 1 36 38
M  V30 38 2 38 39
M  V30 39 1 21 40
M  V30 40 2 40 41
M  V30 41 1 41 42
M  V30 42 1 14 8
M  V30 43 1 41 17
M  V30 44 1 29 25
M  V30 45 1 39 33
M  V30 46 1 1 43
M  V30 47 1 1 44
M  V30 48 1 1 45
M  V30 49 1 2 46
M  V30 50 1 3 47
M  V30 51 1 3 48
M  V30 52 1 3 49
M  V30 53 1 4 50
M  V30 54 1 4 51
M  V30 55 1 9 52
M  V30 56 1 10 53
M  V30 57 1 11 54
M  V30 58 1 13 55
M  V30 59 1 19 56
M  V30 60 1 20 57
M  V30 61 1 25 58 CFG=1
M  V30 62 1 26 59
M  V30 63 1 26 60
M  V30 64 1 27 61
M  V30 65 1 28 62
M  V30 66 1 28 63
M  V30 67 1 29 64 CFG=3
M  V30 68 1 30 65
M  V30 69 1 34 66
M  V30 70 1 35 67
M  V30 71 1 37 68
M  V30 72 1 38 69
M  V30 73 1 39 70
M  V30 74 1 40 71
M  V30 75 1 42 72
M  V30 END BOND
M  V30 END CTAB
M  END
>  <Dataset>  (39) 
ChEMBL_Kinases

>  <Ligand_Instance>  (39) 
nan

>  <PDB_ID>  (39) 
nan

>  <Standardized_SMILES>  (39) 
CC(C)COC(=O)c1cccc(O)c1C(=O)c1c(O)cc(C(=O)O[C@@H]2CNC[C@H]2NC(=O)c2ccc(O)cc2)cc1O

>  <Name>  (39) 
nan

>  <Pocket>  (39) 
nan

>  <ATP_Site>  (39) 
nan

>  <Peripheral>  (39) 
nan

>  <Num_H_Atoms_ProtBoundConf>  (39) 
nan

>  <Num_Resolved_Atoms>  (39) 
nan

>  <Num_Not_Resolved_Atoms>  (39) 
nan

$$$$
CHEMBL105442
     RDKit          3D

  0  0  0  0  0  0  0  0  0  0999 V3000
M  V30 BEGIN CTAB
M  V30 COUNTS 39 41 0 0 0
M  V30 BEGIN ATOM
M  V30 1 O 0.620598 -0.780867 1.987219 0
M  V30 2 C 1.750352 -0.876085 1.442106 0
M  V30 3 N 2.267872 -2.197061 1.344844 0
M  V30 4 O 1.365830 -3.061509 1.892348 0
M  V30 5 C 0.532389 -3.435767 0.834721 0
M  V30 6 C -0.522912 -4.409148 1.332819 0
M  V30 7 C -1.537636 -4.959831 0.394618 0
M  V30 8 C -1.960144 -3.912347 1.366579 0
M  V30 9 C 2.416882 0.332155 0.969603 0
M  V30 10 C 3.655957 0.274286 0.366152 0
M  V30 11 C 4.247930 1.453621 -0.066124 0
M  V30 12 C 3.632129 2.686779 0.090111 0
M  V30 13 F 4.183042 3.852900 -0.320365 0
M  V30 14 C 2.398520 2.653309 0.701761 0
M  V30 15 F 1.777184 3.852613 0.864748 0
M  V30 16 C 1.747288 1.515269 1.158302 0
M  V30 17 N 0.469658 1.591350 1.778548 0
M  V30 18 C -0.765740 1.514161 1.117305 0
M  V30 19 C -0.740418 1.350336 -0.253240 0
M  V30 20 C -1.974109 1.273862 -0.908487 0
M  V30 21 C -3.140074 1.365772 -0.153884 0
M  V30 22 I -5.045074 1.257588 -1.082812 0
M  V30 23 C -3.116923 1.529524 1.216669 0
M  V30 24 C -1.899308 1.609360 1.899843 0
M  V30 25 Cl -1.814432 1.816621 3.635371 0
M  V30 26 H 3.203409 -2.311427 0.897691 0
M  V30 27 H 1.118778 -3.875398 -0.001806 0
M  V30 28 H 0.017144 -2.521307 0.480273 0
M  V30 29 H -0.267028 -5.039633 2.195855 0
M  V30 30 H -1.913024 -5.994773 0.573332 0
M  V30 31 H -1.532643 -4.690676 -0.677520 0
M  V30 32 H -2.132790 -2.877208 0.969725 0
M  V30 33 H -2.611634 -4.188308 2.200087 0
M  V30 34 H 4.181883 -0.657760 0.218275 0
M  V30 35 H 5.234579 1.473525 -0.554500 0
M  V30 36 H 0.621179 1.713805 2.804696 0
M  V30 37 H 0.181063 1.283115 -0.804290 0
M  V30 38 H -2.044270 1.146158 -1.978015 0
M  V30 39 H -4.018542 1.602195 1.813559 0
M  V30 END ATOM
M  V30 BEGIN BOND
M  V30 1 2 1 2
M  V30 2 1 2 3
M  V30 3 1 3 4
M  V30 4 1 4 5
M  V30 5 1 5 6
M  V30 6 1 6 7
M  V30 7 1 7 8
M  V30 8 1 2 9
M  V30 9 2 9 10
M  V30 10 1 10 11
M  V30 11 2 11 12
M  V30 12 1 12 13
M  V30 13 1 12 14
M  V30 14 1 14 15
M  V30 15 2 14 16
M  V30 16 1 16 17
M  V30 17 1 17 18
M  V30 18 2 18 19
M  V30 19 1 19 20
M  V30 20 2 20 21
M  V30 21 1 21 22
M  V30 22 1 21 23
M  V30 23 2 23 24
M  V30 24 1 24 25
M  V30 25 1 8 6
M  V30 26 1 16 9
M  V30 27 1 24 18
M  V30 28 1 3 26
M  V30 29 1 5 27
M  V30 30 1 5 28
M  V30 31 1 6 29
M  V30 32 1 7 30
M  V30 33 1 7 31
M  V30 34 1 8 32
M  V30 35 1 8 33
M  V30 36 1 10 34
M  V30 37 1 11 35
M  V30 38 1 17 36
M  V30 39 1 19 37
M  V30 40 1 20 38
M  V30 41 1 23 39
M  V30 END BOND
M  V30 END CTAB
M  END
>  <Dataset>  (40) 
ChEMBL_Kinases

>  <Ligand_Instance>  (40) 
nan

>  <PDB_ID>  (40) 
nan

>  <Standardized_SMILES>  (40) 
O=C(NOCC1CC1)c1ccc(F)c(F)c1Nc1ccc(I)cc1Cl

>  <Name>  (40) 
CI-1040

>  <Pocket>  (40) 
nan

>  <ATP_Site>  (40) 
nan

>  <Peripheral>  (40) 
nan

>  <Num_H_Atoms_ProtBoundConf>  (40) 
nan

>  <Num_Resolved_Atoms>  (40) 
nan

>  <Num_Not_Resolved_Atoms>  (40) 
nan

$$$$
CHEMBL4875238
     RDKit          3D

  0  0  0  0  0  0  0  0  0  0999 V3000
M  V30 BEGIN CTAB
M  V30 COUNTS 52 55 0 0 0
M  V30 BEGIN ATOM
M  V30 1 C -1.291306 -0.790201 5.470770 0
M  V30 2 C -0.924787 -1.496208 4.210546 0
M  V30 3 N 0.369764 -1.666188 3.918840 0
M  V30 4 C 0.812570 -2.288687 2.807046 0
M  V30 5 N 2.182748 -2.490125 2.475674 0
M  V30 6 C 2.659855 -1.252404 1.867557 0
M  V30 7 N 3.137683 -0.343908 2.360970 0
M  V30 8 C 3.582261 0.796287 1.849445 0
M  V30 9 C 3.440883 0.897674 0.481356 0
M  V30 10 C 3.961256 2.221443 -0.056537 0
M  V30 11 O 4.484785 3.301877 0.196006 0
M  V30 12 N 3.774269 2.254311 -1.459831 0
M  V30 13 C 4.218926 3.439680 -2.098314 0
M  V30 14 C 3.523879 4.589583 -2.313043 0
M  V30 15 C 2.123957 4.733320 -1.853142 0
M  V30 16 C 4.152182 5.685964 -2.988454 0
M  V30 17 S 5.883957 4.999495 -3.339772 0
M  V30 18 C 5.624523 3.390110 -2.590136 0
M  V30 19 Cl 6.778685 2.169755 -2.512656 0
M  V30 20 S 2.666463 -0.683010 0.037573 0
M  V30 21 C -0.194769 -2.745104 1.979741 0
M  V30 22 C -1.532630 -2.598864 2.228852 0
M  V30 23 N -2.579331 -3.083824 1.380891 0
M  V30 24 C -3.944481 -2.660470 1.617178 0
M  V30 25 C -4.945204 -3.563312 0.934646 0
M  V30 26 N -4.684616 -3.774800 -0.455823 0
M  V30 27 C -5.330431 -4.972517 -0.950758 0
M  V30 28 C -3.308997 -3.683583 -0.831853 0
M  V30 29 C -2.349582 -3.999402 0.288879 0
M  V30 30 N -1.889883 -1.953803 3.381814 0
M  V30 31 H -1.975667 0.061778 5.185960 0
M  V30 32 H -0.400253 -0.434228 5.997622 0
M  V30 33 H -1.920858 -1.470816 6.095270 0
M  V30 34 H 2.754832 -3.373103 2.634698 0
M  V30 35 H 4.003398 1.502277 2.600125 0
M  V30 36 H 3.376634 1.602576 -2.211856 0
M  V30 37 H 2.058509 5.547483 -1.074826 0
M  V30 38 H 1.439977 4.909530 -2.710389 0
M  V30 39 H 1.745745 3.818550 -1.359120 0
M  V30 40 H 3.673745 6.632913 -3.199356 0
M  V30 41 H 0.116649 -3.249611 1.077068 0
M  V30 42 H -4.149524 -1.621005 1.264705 0
M  V30 43 H -4.187136 -2.699461 2.712940 0
M  V30 44 H -5.952329 -3.101053 1.052709 0
M  V30 45 H -4.865302 -4.548784 1.474174 0
M  V30 46 H -6.272604 -5.186539 -0.382682 0
M  V30 47 H -4.708429 -5.866651 -0.893650 0
M  V30 48 H -5.636736 -4.798449 -2.000058 0
M  V30 49 H -3.122833 -4.434883 -1.632053 0
M  V30 50 H -3.106965 -2.674113 -1.230780 0
M  V30 51 H -1.337619 -3.931304 -0.147886 0
M  V30 52 H -2.571523 -5.014740 0.693612 0
M  V30 END ATOM
M  V30 BEGIN BOND
M  V30 1 1 1 2
M  V30 2 2 2 3
M  V30 3 1 3 4
M  V30 4 1 4 5
M  V30 5 1 5 6
M  V30 6 2 6 7
M  V30 7 1 7 8
M  V30 8 2 8 9
M  V30 9 1 9 10
M  V30 10 2 10 11
M  V30 11 1 10 12
M  V30 12 1 12 13
M  V30 13 1 13 14
M  V30 14 1 14 15
M  V30 15 2 14 16
M  V30 16 1 16 17
M  V30 17 1 17 18
M  V30 18 1 18 19
M  V30 19 1 9 20
M  V30 20 2 4 21
M  V30 21 1 21 22
M  V30 22 1 22 23
M  V30 23 1 23 24
M  V30 24 1 24 25
M  V30 25 1 25 26
M  V30 26 1 26 27
M  V30 27 1 26 28
M  V30 28 1 28 29
M  V30 29 2 22 30
M  V30 30 1 30 2
M  V30 31 1 20 6
M  V30 32 1 29 23
M  V30 33 2 18 13
M  V30 34 1 1 31
M  V30 35 1 1 32
M  V30 36 1 1 33
M  V30 37 1 5 34
M  V30 38 1 8 35
M  V30 39 1 12 36
M  V30 40 1 15 37
M  V30 41 1 15 38
M  V30 42 1 15 39
M  V30 43 1 16 40
M  V30 44 1 21 41
M  V30 45 1 24 42
M  V30 46 1 24 43
M  V30 47 1 25 44
M  V30 48 1 25 45
M  V30 49 1 27 46
M  V30 50 1 27 47
M  V30 51 1 27 48
M  V30 52 1 28 49
M  V30 53 1 28 50
M  V30 54 1 29 51
M  V30 55 1 29 52
M  V30 END BOND
M  V30 END CTAB
M  END
>  <Dataset>  (41) 
ChEMBL_Kinases

>  <Ligand_Instance>  (41) 
nan

>  <PDB_ID>  (41) 
nan

>  <Standardized_SMILES>  (41) 
Cc1nc(Nc2ncc(C(=O)Nc3c(C)csc3Cl)s2)cc(N2CCN(C)CC2)n1

>  <Name>  (41) 
nan

>  <Pocket>  (41) 
nan

>  <ATP_Site>  (41) 
nan

>  <Peripheral>  (41) 
nan

>  <Num_H_Atoms_ProtBoundConf>  (41) 
nan

>  <Num_Resolved_Atoms>  (41) 
nan

>  <Num_Not_Resolved_Atoms>  (41) 
nan

$$$$
CHEMBL3953878
     RDKit          3D

  0  0  0  0  0  0  0  0  0  0999 V3000
M  V30 BEGIN CTAB
M  V30 COUNTS 44 46 0 0 0
M  V30 BEGIN ATOM
M  V30 1 C 0.170458 -6.624199 -0.183973 0
M  V30 2 N 1.195937 -5.783224 0.389469 0
M  V30 3 N 2.273799 -6.267012 1.039108 0
M  V30 4 C 3.022773 -5.233736 1.446129 0
M  V30 5 C 2.340145 -4.119482 1.008469 0
M  V30 6 Cl 3.244020 -2.671255 1.493089 0
M  V30 7 C 1.185295 -4.457641 0.340103 0
M  V30 8 C 0.365984 -3.405192 -0.175005 0
M  V30 9 C 0.630592 -2.058969 -0.059435 0
M  V30 10 C -0.338790 -1.269032 -0.657599 0
M  V30 11 C -0.453978 0.175971 -0.769894 0
M  V30 12 O -1.417359 0.697865 -1.356105 0
M  V30 13 N 0.540710 1.020034 -0.206849 0
M  V30 14 C 0.610386 2.456104 -0.209499 0 CFG=2
M  V30 15 C 1.853044 2.878607 -0.968851 0
M  V30 16 N 3.030147 2.352674 -0.354204 0
M  V30 17 C 0.717889 3.043420 1.175766 0
M  V30 18 C -0.422713 2.703420 2.036334 0
M  V30 19 C -0.481771 1.585241 2.848771 0
M  V30 20 C -1.589531 1.356322 3.613875 0
M  V30 21 C -2.653956 2.239244 3.579558 0
M  V30 22 C -2.653093 3.379868 2.783263 0
M  V30 23 F -3.664354 4.256828 2.724061 0
M  V30 24 C -1.514502 3.571764 2.027141 0
M  V30 25 O -1.211486 -2.134143 -1.148006 0
M  V30 26 C -0.804717 -3.349771 -0.870041 0
M  V30 27 Cl -1.832746 -4.618911 -1.440488 0
M  V30 28 H 0.481302 -7.690462 0.090192 0
M  V30 29 H -0.811253 -6.548086 0.324495 0
M  V30 30 H 0.146437 -6.611679 -1.273234 0
M  V30 31 H 3.893668 -5.563404 1.969054 0
M  V30 32 H 1.430171 -1.479417 0.396451 0
M  V30 33 H 1.365768 0.580653 0.295003 0
M  V30 34 H -0.284051 2.823415 -0.750384 0
M  V30 35 H 1.915825 3.999360 -0.933882 0
M  V30 36 H 1.786228 2.584037 -2.047284 0
M  V30 37 H 3.502702 2.989429 0.311778 0
M  V30 38 H 3.669589 1.839560 -0.995040 0
M  V30 39 H 1.632432 2.585447 1.638732 0
M  V30 40 H 0.878489 4.129667 1.067160 0
M  V30 41 H 0.371879 0.921365 2.845457 0
M  V30 42 H -1.662651 0.483077 4.263112 0
M  V30 43 H -3.568439 2.104131 4.173584 0
M  V30 44 H -1.492392 4.457292 1.397206 0
M  V30 END ATOM
M  V30 BEGIN BOND
M  V30 1 1 1 2
M  V30 2 1 2 3
M  V30 3 2 3 4
M  V30 4 1 4 5
M  V30 5 1 5 6
M  V30 6 2 5 7
M  V30 7 1 7 8
M  V30 8 1 8 9
M  V30 9 2 9 10
M  V30 10 1 10 11
M  V30 11 2 11 12
M  V30 12 1 11 13
M  V30 13 1 13 14
M  V30 14 1 14 15
M  V30 15 1 15 16
M  V30 16 1 14 17
M  V30 17 1 17 18
M  V30 18 2 18 19
M  V30 19 1 19 20
M  V30 20 2 20 21
M  V30 21 1 21 22
M  V30 22 1 22 23
M  V30 23 2 22 24
M  V30 24 1 10 25
M  V30 25 1 25 26
M  V30 26 1 26 27
M  V30 27 1 7 2
M  V30 28 2 26 8
M  V30 29 1 24 18
M  V30 30 1 1 28
M  V30 31 1 1 29
M  V30 32 1 1 30
M  V30 33 1 4 31
M  V30 34 1 9 32
M  V30 35 1 13 33
M  V30 36 1 14 34 CFG=3
M  V30 37 1 15 35
M  V30 38 1 15 36
M  V30 39 1 16 37
M  V30 40 1 16 38
M  V30 41 1 17 39
M  V30 42 1 17 40
M  V30 43 1 19 41
M  V30 44 1 20 42
M  V30 45 1 21 43
M  V30 46 1 24 44
M  V30 END BOND
M  V30 END CTAB
M  END
>  <Dataset>  (42) 
ChEMBL_Kinases

>  <Ligand_Instance>  (42) 
nan

>  <PDB_ID>  (42) 
nan

>  <Standardized_SMILES>  (42) 
Cn1ncc(Cl)c1-c1cc(C(=O)N[C@H](CN)Cc2cccc(F)c2)oc1Cl

>  <Name>  (42) 
nan

>  <Pocket>  (42) 
nan

>  <ATP_Site>  (42) 
nan

>  <Peripheral>  (42) 
nan

>  <Num_H_Atoms_ProtBoundConf>  (42) 
nan

>  <Num_Resolved_Atoms>  (42) 
nan

>  <Num_Not_Resolved_Atoms>  (42) 
nan

$$$$
CHEMBL4875028
     RDKit          3D

  0  0  0  0  0  0  0  0  0  0999 V3000
M  V30 BEGIN CTAB
M  V30 COUNTS 88 93 0 0 0
M  V30 BEGIN ATOM
M  V30 1 C -0.501563 -6.443911 3.295180 0
M  V30 2 O -0.973346 -5.101620 3.279522 0
M  V30 3 C -0.184318 -4.014644 2.999517 0
M  V30 4 C 1.153690 -4.234827 2.712203 0
M  V30 5 C 1.946995 -3.146995 2.431675 0
M  V30 6 N 3.307464 -3.320737 2.113990 0
M  V30 7 C 4.043039 -4.555454 1.918910 0
M  V30 8 C 4.574615 -4.664976 0.504517 0
M  V30 9 N 4.245269 -3.462424 -0.227900 0
M  V30 10 C 4.860233 -3.533055 -1.535131 0
M  V30 11 C 4.836980 -2.342473 0.480160 0
M  V30 12 C 4.284142 -2.250642 1.895243 0
M  V30 13 C 1.409838 -1.880041 2.442071 0
M  V30 14 C 0.073270 -1.726948 2.734826 0
M  V30 15 C -0.810379 -2.775482 3.030774 0
M  V30 16 N -2.191723 -2.626246 3.322268 0
M  V30 17 C -2.604483 -1.267431 3.290100 0
M  V30 18 N -2.785530 -0.356242 4.285429 0
M  V30 19 C -3.160092 0.898941 4.022538 0
M  V30 20 C -3.367459 1.279604 2.715987 0
M  V30 21 C -3.740467 2.570537 2.500231 0
M  V30 22 C -3.938018 3.545313 3.577053 0
M  V30 23 C -3.933376 2.918430 1.163610 0
M  V30 24 C -3.741089 1.970635 0.194507 0
M  V30 25 O -3.933791 2.367594 -0.960159 0
M  V30 26 N -3.380251 0.712103 0.364877 0
M  V30 27 C -3.150335 -0.343389 -0.583058 0 CFG=1
M  V30 28 C -3.984337 -0.314737 -1.809859 0
M  V30 29 C -3.314892 0.057729 -3.087598 0
M  V30 30 C -1.912917 -0.473998 -3.266031 0 CFG=1
M  V30 31 N -0.989396 0.641227 -3.462187 0
M  V30 32 C -0.261212 1.045226 -4.609810 0
M  V30 33 O -0.467965 0.301608 -5.626841 0
M  V30 34 C 0.630583 2.260658 -4.481791 0
M  V30 35 C 1.752878 1.980828 -3.546162 0
M  V30 36 C 2.022316 3.038816 -2.534411 0
M  V30 37 C 0.756387 3.496438 -1.845457 0
M  V30 38 C -0.119312 4.106267 -2.879638 0
M  V30 39 C -0.177503 3.469885 -4.204642 0
M  V30 40 C -1.536352 -1.356772 -2.135314 0
M  V30 41 C -1.683569 -0.590934 -0.844423 0
M  V30 42 C -3.197421 0.399236 1.695512 0
M  V30 43 N -2.818514 -0.856439 2.020872 0
M  V30 44 H -0.087358 -6.701958 2.309358 0
M  V30 45 H 0.326269 -6.562872 4.032245 0
M  V30 46 H -1.347678 -7.108534 3.540696 0
M  V30 47 H 1.498613 -5.256987 2.724805 0
M  V30 48 H 3.393393 -5.407473 2.136521 0
M  V30 49 H 4.905658 -4.575690 2.599644 0
M  V30 50 H 4.116223 -5.566741 0.010044 0
M  V30 51 H 5.670617 -4.776135 0.485491 0
M  V30 52 H 5.353970 -2.571214 -1.812404 0
M  V30 53 H 4.075365 -3.705686 -2.325449 0
M  V30 54 H 5.596269 -4.333622 -1.656976 0
M  V30 55 H 4.712782 -1.403843 -0.096208 0
M  V30 56 H 5.922865 -2.544317 0.550660 0
M  V30 57 H 3.891981 -1.246425 2.021830 0
M  V30 58 H 5.084473 -2.394158 2.652775 0
M  V30 59 H 1.924752 -0.976868 2.242042 0
M  V30 60 H -0.385497 -0.722540 2.751146 0
M  V30 61 H -2.717947 -3.496989 3.518390 0
M  V30 62 H -3.279178 1.558828 4.866925 0
M  V30 63 H -4.116331 4.549733 3.106913 0
M  V30 64 H -3.120891 3.591069 4.300651 0
M  V30 65 H -4.892940 3.279511 4.117964 0
M  V30 66 H -4.231419 3.938275 0.933066 0
M  V30 67 H -3.475045 -1.294475 -0.045176 0
M  V30 68 H -4.833809 0.382307 -1.647777 0
M  V30 69 H -4.517972 -1.307818 -1.984937 0
M  V30 70 H -3.354769 1.143088 -3.312739 0
M  V30 71 H -3.923742 -0.394492 -3.927036 0
M  V30 72 H -1.826789 -1.070952 -4.217370 0
M  V30 73 H -0.882657 1.199951 -2.590451 0
M  V30 74 H 1.080072 2.378850 -5.491139 0
M  V30 75 H 1.507008 1.034156 -2.985496 0
M  V30 76 H 2.734377 1.749679 -4.054338 0
M  V30 77 H 2.435047 3.935419 -3.064597 0
M  V30 78 H 2.816598 2.707079 -1.843051 0
M  V30 79 H 0.301343 2.732048 -1.202423 0
M  V30 80 H 1.071422 4.311873 -1.129612 0
M  V30 81 H -1.139562 4.211162 -2.393584 0
M  V30 82 H 0.192605 5.193150 -2.977008 0
M  V30 83 H -0.019912 4.271723 -4.991119 0
M  V30 84 H -1.263929 3.200698 -4.385196 0
M  V30 85 H -2.273357 -2.201929 -2.128930 0
M  V30 86 H -0.510219 -1.733964 -2.303913 0
M  V30 87 H -1.070922 0.304588 -0.784125 0
M  V30 88 H -1.253327 -1.280025 -0.056621 0
M  V30 END ATOM
M  V30 BEGIN BOND
M  V30 1 1 1 2
M  V30 2 1 2 3
M  V30 3 2 3 4
M  V30 4 1 4 5
M  V30 5 1 5 6
M  V30 6 1 6 7
M  V30 7 1 7 8
M  V30 8 1 8 9
M  V30 9 1 9 10
M  V30 10 1 9 11
M  V30 11 1 11 12
M  V30 12 2 5 13
M  V30 13 1 13 14
M  V30 14 2 14 15
M  V30 15 1 15 16
M  V30 16 1 16 17
M  V30 17 2 17 18
M  V30 18 1 18 19
M  V30 19 2 19 20
M  V30 20 1 20 21
M  V30 21 1 21 22
M  V30 22 2 21 23
M  V30 23 1 23 24
M  V30 24 2 24 25
M  V30 25 1 24 26
M  V30 26 1 26 27
M  V30 27 1 27 28
M  V30 28 1 28 29
M  V30 29 1 29 30
M  V30 30 1 30 31
M  V30 31 1 31 32
M  V30 32 2 32 33
M  V30 33 1 32 34
M  V30 34 1 34 35
M  V30 35 1 35 36
M  V30 36 1 36 37
M  V30 37 1 37 38
M  V30 38 1 38 39
M  V30 39 1 30 40
M  V30 40 1 40 41
M  V30 41 1 26 42
M  V30 42 2 42 43
M  V30 43 1 15 3
M  V30 44 1 43 17
M  V30 45 1 12 6
M  V30 46 1 42 20
M  V30 47 1 41 27
M  V30 48 1 39 34
M  V30 49 1 1 44
M  V30 50 1 1 45
M  V30 51 1 1 46
M  V30 52 1 4 47
M  V30 53 1 7 48
M  V30 54 1 7 49
M  V30 55 1 8 50
M  V30 56 1 8 51
M  V30 57 1 10 52
M  V30 58 1 10 53
M  V30 59 1 10 54
M  V30 60 1 11 55
M  V30 61 1 11 56
M  V30 62 1 12 57
M  V30 63 1 12 58
M  V30 64 1 13 59
M  V30 65 1 14 60
M  V30 66 1 16 61
M  V30 67 1 19 62
M  V30 68 1 22 63
M  V30 69 1 22 64
M  V30 70 1 22 65
M  V30 71 1 23 66
M  V30 72 1 27 67 CFG=1
M  V30 73 1 28 68
M  V30 74 1 28 69
M  V30 75 1 29 70
M  V30 76 1 29 71
M  V30 77 1 30 72 CFG=3
M  V30 78 1 31 73
M  V30 79 1 34 74
M  V30 80 1 35 75
M  V30 81 1 35 76
M  V30 82 1 36 77
M  V30 83 1 36 78
M  V30 84 1 37 79
M  V30 85 1 37 80
M  V30 86 1 38 81
M  V30 87 1 38 82
M  V30 88 1 39 83
M  V30 89 1 39 84
M  V30 90 1 40 85
M  V30 91 1 40 86
M  V30 92 1 41 87
M  V30 93 1 41 88
M  V30 END BOND
M  V30 END CTAB
M  END
>  <Dataset>  (43) 
ChEMBL_Kinases

>  <Ligand_Instance>  (43) 
nan

>  <PDB_ID>  (43) 
nan

>  <Standardized_SMILES>  (43) 
COc1cc(N2CCN(C)CC2)ccc1Nc1ncc2c(C)cc(=O)n([C@H]3CC[C@@H](NC(=O)C4CCCCC4)CC3)c2n1

>  <Name>  (43) 
nan

>  <Pocket>  (43) 
nan

>  <ATP_Site>  (43) 
nan

>  <Peripheral>  (43) 
nan

>  <Num_H_Atoms_ProtBoundConf>  (43) 
nan

>  <Num_Resolved_Atoms>  (43) 
nan

>  <Num_Not_Resolved_Atoms>  (43) 
nan

$$$$
CHEMBL102714
     RDKit          3D

  0  0  0  0  0  0  0  0  0  0999 V3000
M  V30 BEGIN CTAB
M  V30 COUNTS 37 40 0 0 0
M  V30 BEGIN ATOM
M  V30 1 C -0.273197 -4.849547 1.537529 0
M  V30 2 N -0.131011 -3.408091 1.511011 0
M  V30 3 C -1.151155 -2.582801 1.276962 0
M  V30 4 C -0.674601 -1.290631 1.317210 0
M  V30 5 C -1.451698 -0.045263 1.148782 0
M  V30 6 C -1.169984 0.970587 0.352491 0
M  V30 7 C -0.097834 1.302349 -0.613360 0
M  V30 8 C 0.055058 0.240558 -1.516308 0
M  V30 9 C 1.026867 0.332972 -2.521505 0
M  V30 10 C 1.764187 1.497661 -2.527953 0
M  V30 11 Cl 3.008653 1.641898 -3.775709 0
M  V30 12 C 1.621183 2.542281 -1.647790 0
M  V30 13 C 0.661269 2.443060 -0.660219 0
M  V30 14 Cl 0.314225 3.633037 0.560604 0
M  V30 15 C -2.207390 2.013399 0.485862 0
M  V30 16 O -2.392930 3.128448 -0.034457 0
M  V30 17 N -3.173976 1.550949 1.449615 0
M  V30 18 C -2.688885 0.257711 1.858228 0
M  V30 19 O -3.269396 -0.476383 2.701563 0
M  V30 20 C 0.689746 -1.364572 1.587734 0
M  V30 21 C 1.676007 -0.393730 1.754584 0
M  V30 22 C 2.981517 -0.809931 2.040860 0
M  V30 23 C 3.311880 -2.156569 2.159721 0
M  V30 24 C 2.311777 -3.094291 1.988135 0
M  V30 25 C 0.997171 -2.716758 1.702858 0
M  V30 26 H -1.299662 -5.172516 1.335824 0
M  V30 27 H 0.357067 -5.281605 0.717316 0
M  V30 28 H 0.052493 -5.283732 2.494850 0
M  V30 29 H -2.175690 -2.832147 1.084323 0
M  V30 30 H -0.501421 -0.680864 -1.544732 0
M  V30 31 H 1.196937 -0.443697 -3.249564 0
M  V30 32 H 2.196380 3.450611 -1.651010 0
M  V30 33 H -4.058747 2.031553 1.801350 0
M  V30 34 H 1.472785 0.653603 1.680497 0
M  V30 35 H 3.766018 -0.092974 2.182194 0
M  V30 36 H 4.314786 -2.507037 2.383311 0
M  V30 37 H 2.539217 -4.163960 2.072167 0
M  V30 END ATOM
M  V30 BEGIN BOND
M  V30 1 1 1 2
M  V30 2 1 2 3
M  V30 3 2 3 4
M  V30 4 1 4 5
M  V30 5 2 5 6
M  V30 6 1 6 7
M  V30 7 2 7 8
M  V30 8 1 8 9
M  V30 9 2 9 10
M  V30 10 1 10 11
M  V30 11 1 10 12
M  V30 12 2 12 13
M  V30 13 1 13 14
M  V30 14 1 6 15
M  V30 15 2 15 16
M  V30 16 1 15 17
M  V30 17 1 17 18
M  V30 18 2 18 19
M  V30 19 1 4 20
M  V30 20 2 20 21
M  V30 21 1 21 22
M  V30 22 2 22 23
M  V30 23 1 23 24
M  V30 24 2 24 25
M  V30 25 1 25 2
M  V30 26 1 18 5
M  V30 27 1 25 20
M  V30 28 1 13 7
M  V30 29 1 1 26
M  V30 30 1 1 27
M  V30 31 1 1 28
M  V30 32 1 3 29
M  V30 33 1 8 30
M  V30 34 1 9 31
M  V30 35 1 12 32
M  V30 36 1 17 33
M  V30 37 1 21 34
M  V30 38 1 22 35
M  V30 39 1 23 36
M  V30 40 1 24 37
M  V30 END BOND
M  V30 END CTAB
M  END
>  <Dataset>  (44) 
ChEMBL_Kinases

>  <Ligand_Instance>  (44) 
nan

>  <PDB_ID>  (44) 
nan

>  <Standardized_SMILES>  (44) 
Cn1cc(C2=C(c3ccc(Cl)cc3Cl)C(=O)NC2=O)c2ccccc21

>  <Name>  (44) 
SB-216763

>  <Pocket>  (44) 
nan

>  <ATP_Site>  (44) 
nan

>  <Peripheral>  (44) 
nan

>  <Num_H_Atoms_ProtBoundConf>  (44) 
nan

>  <Num_Resolved_Atoms>  (44) 
nan

>  <Num_Not_Resolved_Atoms>  (44) 
nan

$$$$
CHEMBL98350
     RDKit          3D

  0  0  0  0  0  0  0  0  0  0999 V3000
M  V30 BEGIN CTAB
M  V30 COUNTS 40 43 0 0 0
M  V30 BEGIN ATOM
M  V30 1 O -1.276709 -2.113180 4.577407 0
M  V30 2 C -0.920678 -1.662872 3.468856 0
M  V30 3 C -0.514190 -2.529482 2.447936 0
M  V30 4 C -0.133738 -1.966444 1.248838 0
M  V30 5 N 0.285107 -2.819604 0.189894 0
M  V30 6 C 0.371262 -4.267221 0.199288 0
M  V30 7 C 1.787988 -4.602861 -0.271137 0
M  V30 8 O 2.617216 -3.483623 -0.245630 0
M  V30 9 C 2.223525 -2.505232 -1.129542 0
M  V30 10 C 0.702336 -2.311864 -1.107903 0
M  V30 11 O -0.127050 -0.678352 1.001188 0
M  V30 12 C -0.502708 0.130123 1.943327 0
M  V30 13 C -0.519562 1.498477 1.749485 0
M  V30 14 C -0.102005 2.016873 0.450983 0
M  V30 15 C 0.758922 3.110710 0.568456 0
M  V30 16 C 1.269543 3.748819 -0.556414 0
M  V30 17 C 0.929029 3.305357 -1.816953 0
M  V30 18 C 0.074331 2.219691 -1.904782 0
M  V30 19 C -0.444911 1.570437 -0.802634 0
M  V30 20 C -0.918468 2.393071 2.743548 0
M  V30 21 C -1.313856 1.874754 3.977885 0
M  V30 22 C -1.318585 0.516813 4.232239 0
M  V30 23 C -0.909136 -0.296359 3.193285 0
M  V30 24 H -0.527708 -3.567352 2.670840 0
M  V30 25 H 0.129166 -4.740612 1.147144 0
M  V30 26 H -0.312665 -4.705401 -0.574148 0
M  V30 27 H 1.802309 -5.112491 -1.234769 0
M  V30 28 H 2.202742 -5.302183 0.472207 0
M  V30 29 H 2.634532 -1.541428 -0.713277 0
M  V30 30 H 2.623998 -2.582790 -2.143925 0
M  V30 31 H 0.454379 -1.227343 -1.198538 0
M  V30 32 H 0.302686 -2.901028 -1.952110 0
M  V30 33 H 1.106165 3.559749 1.496451 0
M  V30 34 H 1.934764 4.593491 -0.523279 0
M  V30 35 H 1.318819 3.792203 -2.705914 0
M  V30 36 H -0.217521 1.840632 -2.869562 0
M  V30 37 H -1.102342 0.735952 -0.802573 0
M  V30 38 H -0.920631 3.449366 2.562571 0
M  V30 39 H -1.619302 2.592487 4.733280 0
M  V30 40 H -1.623578 0.120270 5.183811 0
M  V30 END ATOM
M  V30 BEGIN BOND
M  V30 1 2 1 2
M  V30 2 1 2 3
M  V30 3 2 3 4
M  V30 4 1 4 5
M  V30 5 1 5 6
M  V30 6 1 6 7
M  V30 7 1 7 8
M  V30 8 1 8 9
M  V30 9 1 9 10
M  V30 10 1 4 11
M  V30 11 1 11 12
M  V30 12 2 12 13
M  V30 13 1 13 14
M  V30 14 2 14 15
M  V30 15 1 15 16
M  V30 16 2 16 17
M  V30 17 1 17 18
M  V30 18 2 18 19
M  V30 19 1 13 20
M  V30 20 2 20 21
M  V30 21 1 21 22
M  V30 22 2 22 23
M  V30 23 1 23 2
M  V30 24 1 10 5
M  V30 25 1 23 12
M  V30 26 1 19 14
M  V30 27 1 3 24
M  V30 28 1 6 25
M  V30 29 1 6 26
M  V30 30 1 7 27
M  V30 31 1 7 28
M  V30 32 1 9 29
M  V30 33 1 9 30
M  V30 34 1 10 31
M  V30 35 1 10 32
M  V30 36 1 15 33
M  V30 37 1 16 34
M  V30 38 1 17 35
M  V30 39 1 18 36
M  V30 40 1 19 37
M  V30 41 1 20 38
M  V30 42 1 21 39
M  V30 43 1 22 40
M  V30 END BOND
M  V30 END CTAB
M  END
>  <Dataset>  (45) 
ChEMBL_Kinases

>  <Ligand_Instance>  (45) 
nan

>  <PDB_ID>  (45) 
nan

>  <Standardized_SMILES>  (45) 
O=c1cc(N2CCOCC2)oc2c(-c3ccccc3)cccc12

>  <Name>  (45) 
LY-294002

>  <Pocket>  (45) 
nan

>  <ATP_Site>  (45) 
nan

>  <Peripheral>  (45) 
nan

>  <Num_H_Atoms_ProtBoundConf>  (45) 
nan

>  <Num_Resolved_Atoms>  (45) 
nan

>  <Num_Not_Resolved_Atoms>  (45) 
nan

$$$$
CHEMBL79004
     RDKit          3D

  0  0  0  0  0  0  0  0  0  0999 V3000
M  V30 BEGIN CTAB
M  V30 COUNTS 34 37 0 0 0
M  V30 BEGIN ATOM
M  V30 1 O -1.791497 -0.506394 -0.162008 0
M  V30 2 C -1.644910 -1.566244 0.535874 0
M  V30 3 N -0.320385 -2.073363 0.446899 0
M  V30 4 C 0.474841 -1.231350 -0.414895 0
M  V30 5 C 0.489385 -1.557388 -1.770463 0
M  V30 6 C 1.241382 -0.768086 -2.612933 0
M  V30 7 Cl 1.341032 -1.077300 -4.348395 0
M  V30 8 C 1.952208 0.303618 -2.131546 0
M  V30 9 C 1.921799 0.606628 -0.783182 0
M  V30 10 C 1.179418 -0.161633 0.091463 0
M  V30 11 N 1.260357 0.267295 1.350528 0
M  V30 12 C 2.070635 1.340591 1.317123 0
M  V30 13 C 2.552692 2.224758 2.261123 0
M  V30 14 N 3.375300 3.255016 1.994244 0
M  V30 15 C 3.780823 3.473926 0.728736 0
M  V30 16 C 3.351150 2.638059 -0.300166 0
M  V30 17 C 2.507874 1.592765 0.015984 0
M  V30 18 C -2.707836 -2.155987 1.310040 0
M  V30 19 C -2.561586 -3.297216 2.065820 0
M  V30 20 C -3.570001 -3.865025 2.806097 0
M  V30 21 C -4.787557 -3.179867 2.732957 0
M  V30 22 N -4.944005 -2.067339 2.000854 0
M  V30 23 C -3.935433 -1.527513 1.280266 0
M  V30 24 H -0.089435 -2.952148 0.988660 0
M  V30 25 H -0.064508 -2.399774 -2.174159 0
M  V30 26 H 2.552567 0.934821 -2.799983 0
M  V30 27 H 0.794848 -0.138683 2.196293 0
M  V30 28 H 2.246457 2.080790 3.300649 0
M  V30 29 H 4.442378 4.272345 0.395843 0
M  V30 30 H 3.634757 2.751002 -1.342796 0
M  V30 31 H -1.599252 -3.787380 2.087401 0
M  V30 32 H -3.408817 -4.762311 3.384757 0
M  V30 33 H -5.634985 -3.585609 3.304674 0
M  V30 34 H -4.111302 -0.624489 0.702483 0
M  V30 END ATOM
M  V30 BEGIN BOND
M  V30 1 2 1 2
M  V30 2 1 2 3
M  V30 3 1 3 4
M  V30 4 2 4 5
M  V30 5 1 5 6
M  V30 6 1 6 7
M  V30 7 2 6 8
M  V30 8 1 8 9
M  V30 9 2 9 10
M  V30 10 1 10 11
M  V30 11 1 11 12
M  V30 12 2 12 13
M  V30 13 1 13 14
M  V30 14 2 14 15
M  V30 15 1 15 16
M  V30 16 2 16 17
M  V30 17 1 2 18
M  V30 18 2 18 19
M  V30 19 1 19 20
M  V30 20 2 20 21
M  V30 21 1 21 22
M  V30 22 2 22 23
M  V30 23 1 10 4
M  V30 24 1 17 12
M  V30 25 1 23 18
M  V30 26 1 17 9
M  V30 27 1 3 24
M  V30 28 1 5 25
M  V30 29 1 8 26
M  V30 30 1 11 27
M  V30 31 1 13 28
M  V30 32 1 15 29
M  V30 33 1 16 30
M  V30 34 1 19 31
M  V30 35 1 20 32
M  V30 36 1 21 33
M  V30 37 1 23 34
M  V30 END BOND
M  V30 END CTAB
M  END
>  <Dataset>  (46) 
ChEMBL_Kinases

>  <Ligand_Instance>  (46) 
nan

>  <PDB_ID>  (46) 
nan

>  <Standardized_SMILES>  (46) 
O=C(Nc1cc(Cl)cc2c1[nH]c1cnccc12)c1cccnc1

>  <Name>  (46) 
nan

>  <Pocket>  (46) 
nan

>  <ATP_Site>  (46) 
nan

>  <Peripheral>  (46) 
nan

>  <Num_H_Atoms_ProtBoundConf>  (46) 
nan

>  <Num_Resolved_Atoms>  (46) 
nan

>  <Num_Not_Resolved_Atoms>  (46) 
nan

$$$$
CHEMBL4875476
     RDKit          3D

  0  0  0  0  0  0  0  0  0  0999 V3000
M  V30 BEGIN CTAB
M  V30 COUNTS 45 48 0 0 0
M  V30 BEGIN ATOM
M  V30 1 C -0.984728 -6.538971 -2.298967 0
M  V30 2 N -0.056356 -5.462478 -2.102085 0
M  V30 3 C 1.336384 -5.707224 -2.108495 0
M  V30 4 O 1.936070 -6.809851 -2.273078 0
M  V30 5 C 2.259989 -4.538159 -1.896706 0
M  V30 6 C 1.956099 -3.262156 -1.696917 0
M  V30 7 C 2.934464 -2.335556 -1.523163 0
M  V30 8 N 2.778829 -0.935834 -1.299752 0
M  V30 9 N 3.320570 -0.002732 -2.077077 0
M  V30 10 C 2.992424 1.235507 -1.606119 0
M  V30 11 C 2.207918 1.053633 -0.480385 0
M  V30 12 C 1.551774 1.854578 0.461213 0
M  V30 13 C 0.829228 1.259490 1.498006 0
M  V30 14 N 0.249352 2.253923 2.329350 0
M  V30 15 C -1.025825 2.693638 2.779641 0
M  V30 16 C -1.536722 3.642244 1.886121 0
M  V30 17 F -0.949230 4.102130 0.757004 0
M  V30 18 C -2.786466 4.230999 2.108722 0
M  V30 19 C -3.490046 3.837735 3.241926 0
M  V30 20 C -2.985573 2.906567 4.116590 0
M  V30 21 C -1.755051 2.331498 3.891006 0
M  V30 22 O -1.131477 1.398826 4.668762 0
M  V30 23 C -1.711632 0.890235 5.859630 0
M  V30 24 C 0.752245 -0.112591 1.608406 0
M  V30 25 F 0.032839 -0.552743 2.640572 0
M  V30 26 C 1.388781 -0.926062 0.694945 0
M  V30 27 C 2.094809 -0.312188 -0.318163 0
M  V30 28 C 4.258511 -2.838669 -1.573140 0
M  V30 29 S 3.976053 -4.690687 -1.880419 0
M  V30 30 H -1.295331 -7.008619 -1.355736 0
M  V30 31 H -1.899043 -6.142535 -2.806114 0
M  V30 32 H -0.472468 -7.282680 -2.967728 0
M  V30 33 H -0.415546 -4.503327 -1.955034 0
M  V30 34 H 0.908560 -2.960198 -1.672970 0
M  V30 35 H 3.242724 2.220770 -1.965231 0
M  V30 36 H 1.678973 2.913359 0.278755 0
M  V30 37 H 0.876911 2.945602 2.823911 0
M  V30 38 H -3.241567 4.959716 1.474507 0
M  V30 39 H -4.467897 4.216081 3.530553 0
M  V30 40 H -3.505513 2.578169 5.006567 0
M  V30 41 H -2.588947 0.217475 5.632353 0
M  V30 42 H -0.921906 0.340322 6.429945 0
M  V30 43 H -2.042460 1.733121 6.511960 0
M  V30 44 H 1.312507 -1.999004 0.804340 0
M  V30 45 H 5.216606 -2.266360 -1.457360 0
M  V30 END ATOM
M  V30 BEGIN BOND
M  V30 1 1 1 2
M  V30 2 1 2 3
M  V30 3 2 3 4
M  V30 4 1 3 5
M  V30 5 2 5 6
M  V30 6 1 6 7
M  V30 7 1 7 8
M  V30 8 1 8 9
M  V30 9 2 9 10
M  V30 10 1 10 11
M  V30 11 2 11 12
M  V30 12 1 12 13
M  V30 13 1 13 14
M  V30 14 1 14 15
M  V30 15 2 15 16
M  V30 16 1 16 17
M  V30 17 1 16 18
M  V30 18 2 18 19
M  V30 19 1 19 20
M  V30 20 2 20 21
M  V30 21 1 21 22
M  V30 22 1 22 23
M  V30 23 2 13 24
M  V30 24 1 24 25
M  V30 25 1 24 26
M  V30 26 2 26 27
M  V30 27 2 7 28
M  V30 28 1 28 29
M  V30 29 1 29 5
M  V30 30 1 27 8
M  V30 31 1 27 11
M  V30 32 1 21 15
M  V30 33 1 1 30
M  V30 34 1 1 31
M  V30 35 1 1 32
M  V30 36 1 2 33
M  V30 37 1 6 34
M  V30 38 1 10 35
M  V30 39 1 12 36
M  V30 40 1 14 37
M  V30 41 1 18 38
M  V30 42 1 19 39
M  V30 43 1 20 40
M  V30 44 1 23 41
M  V30 45 1 23 42
M  V30 46 1 23 43
M  V30 47 1 26 44
M  V30 48 1 28 45
M  V30 END BOND
M  V30 END CTAB
M  END
>  <Dataset>  (47) 
ChEMBL_Kinases

>  <Ligand_Instance>  (47) 
nan

>  <PDB_ID>  (47) 
nan

>  <Standardized_SMILES>  (47) 
CNC(=O)c1cc(-n2ncc3cc(Nc4c(F)cccc4OC)c(F)cc32)cs1

>  <Name>  (47) 
nan

>  <Pocket>  (47) 
nan

>  <ATP_Site>  (47) 
nan

>  <Peripheral>  (47) 
nan

>  <Num_H_Atoms_ProtBoundConf>  (47) 
nan

>  <Num_Resolved_Atoms>  (47) 
nan

>  <Num_Not_Resolved_Atoms>  (47) 
nan

$$$$
CHEMBL8817
     RDKit          3D

  0  0  0  0  0  0  0  0  0  0999 V3000
M  V30 BEGIN CTAB
M  V30 COUNTS 48 51 0 0 0
M  V30 BEGIN ATOM
M  V30 1 C -2.641948 -3.520276 0.301665 0
M  V30 2 N -1.269497 -3.215577 0.372975 0
M  V30 3 C -0.548046 -3.037020 -0.828690 0
M  V30 4 C 0.686695 -2.205436 -0.726695 0
M  V30 5 C 1.294380 -2.109262 0.626228 0 CFG=1
M  V30 6 C 2.135329 -0.930848 0.885363 0
M  V30 7 C 3.524567 -1.038864 1.092296 0
M  V30 8 O 4.125049 -2.317538 1.071432 0
M  V30 9 C 4.419891 -0.016348 1.323464 0
M  V30 10 C 3.898213 1.257600 1.356184 0
M  V30 11 O 4.671922 2.383334 1.578115 0
M  V30 12 C 2.547986 1.404491 1.158282 0
M  V30 13 C 1.975864 2.677097 1.179908 0
M  V30 14 O 2.684431 3.669812 1.379580 0
M  V30 15 C 0.627035 2.719314 0.970122 0
M  V30 16 C -0.213300 1.671589 0.744805 0
M  V30 17 C -1.643518 1.690571 0.519437 0
M  V30 18 C -2.263011 0.473814 0.291191 0
M  V30 19 C -3.606595 0.312031 0.062565 0
M  V30 20 C -4.441547 1.399337 0.048204 0
M  V30 21 C -3.880941 2.634438 0.269181 0
M  V30 22 C -2.530865 2.733191 0.492102 0
M  V30 23 Cl -1.961903 4.337935 0.757438 0
M  V30 24 O 0.377784 0.519180 0.736945 0
M  V30 25 C 1.644076 0.371111 0.924407 0
M  V30 26 C 0.465261 -2.437947 1.802169 0 CFG=1
M  V30 27 O -0.178124 -1.352012 2.366791 0
M  V30 28 C -0.560372 -3.520491 1.549825 0
M  V30 29 H -3.297457 -2.952555 0.989850 0
M  V30 30 H -2.782522 -4.605721 0.530760 0
M  V30 31 H -3.013194 -3.338743 -0.707408 0
M  V30 32 H -1.284562 -2.631773 -1.582287 0
M  V30 33 H -0.336196 -4.056431 -1.232856 0
M  V30 34 H 0.432124 -1.182246 -1.111827 0
M  V30 35 H 1.416017 -2.573448 -1.477566 0
M  V30 36 H 2.073030 -2.965731 0.622763 0
M  V30 37 H 4.133242 -2.754482 2.004599 0
M  V30 38 H 5.467634 -0.182360 1.471976 0
M  V30 39 H 5.225146 2.711004 0.790653 0
M  V30 40 H 0.230381 3.711677 0.993127 0
M  V30 41 H -1.719621 -0.466836 0.274386 0
M  V30 42 H -4.056447 -0.650989 -0.111768 0
M  V30 43 H -5.496568 1.268954 -0.131718 0
M  V30 44 H -4.545002 3.481830 0.255879 0
M  V30 45 H 1.084635 -2.861035 2.657486 0
M  V30 46 H -0.808271 -1.704211 3.056401 0
M  V30 47 H -1.267123 -3.464031 2.404451 0
M  V30 48 H -0.050038 -4.503317 1.492537 0
M  V30 END ATOM
M  V30 BEGIN BOND
M  V30 1 1 1 2
M  V30 2 1 2 3
M  V30 3 1 3 4
M  V30 4 1 4 5
M  V30 5 1 5 6
M  V30 6 2 6 7
M  V30 7 1 7 8
M  V30 8 1 7 9
M  V30 9 2 9 10
M  V30 10 1 10 11
M  V30 11 1 10 12
M  V30 12 1 12 13
M  V30 13 2 13 14
M  V30 14 1 13 15
M  V30 15 2 15 16
M  V30 16 1 16 17
M  V30 17 2 17 18
M  V30 18 1 18 19
M  V30 19 2 19 20
M  V30 20 1 20 21
M  V30 21 2 21 22
M  V30 22 1 22 23
M  V30 23 1 16 24
M  V30 24 1 24 25
M  V30 25 1 5 26
M  V30 26 1 26 27
M  V30 27 1 26 28
M  V30 28 1 28 2
M  V30 29 1 25 6
M  V30 30 2 25 12
M  V30 31 1 22 17
M  V30 32 1 1 29
M  V30 33 1 1 30
M  V30 34 1 1 31
M  V30 35 1 3 32
M  V30 36 1 3 33
M  V30 37 1 4 34
M  V30 38 1 4 35
M  V30 39 1 5 36 CFG=3
M  V30 40 1 8 37
M  V30 41 1 9 38
M  V30 42 1 11 39
M  V30 43 1 15 40
M  V30 44 1 18 41
M  V30 45 1 19 42
M  V30 46 1 20 43
M  V30 47 1 21 44
M  V30 48 1 26 45 CFG=1
M  V30 49 1 27 46
M  V30 50 1 28 47
M  V30 51 1 28 48
M  V30 END BOND
M  V30 END CTAB
M  END
>  <Dataset>  (48) 
ChEMBL_Kinases

>  <Ligand_Instance>  (48) 
nan

>  <PDB_ID>  (48) 
nan

>  <Standardized_SMILES>  (48) 
CN1CC[C@@H](c2c(O)cc(O)c3c(=O)cc(-c4ccccc4Cl)oc23)[C@@H](O)C1

>  <Name>  (48) 
nan

>  <Pocket>  (48) 
nan

>  <ATP_Site>  (48) 
nan

>  <Peripheral>  (48) 
nan

>  <Num_H_Atoms_ProtBoundConf>  (48) 
nan

>  <Num_Resolved_Atoms>  (48) 
nan

>  <Num_Not_Resolved_Atoms>  (48) 
nan

$$$$
CHEMBL1334062
     RDKit          3D

  0  0  0  0  0  0  0  0  0  0999 V3000
M  V30 BEGIN CTAB
M  V30 COUNTS 31 33 0 0 0
M  V30 BEGIN ATOM
M  V30 1 C -0.948383 -2.818798 3.140004 0
M  V30 2 N -0.519269 -1.887903 2.121708 0
M  V30 3 N 0.523701 -2.171515 1.357728 0
M  V30 4 C 0.953165 -1.314322 0.388650 0
M  V30 5 C 2.102386 -1.607574 -0.466075 0
M  V30 6 C 2.767114 -2.812154 -0.264953 0
M  V30 7 C 3.868447 -3.165151 -1.035677 0
M  V30 8 C 4.247962 -2.252254 -1.996476 0
M  V30 9 Cl 5.625729 -2.520707 -3.076969 0
M  V30 10 C 3.616133 -1.048568 -2.227109 0
M  V30 11 C 2.508039 -0.711153 -1.439726 0
M  V30 12 N 0.289423 -0.137095 0.205054 0
M  V30 13 C -0.767616 0.198706 0.946838 0
M  V30 14 C -1.485075 1.369256 0.816891 0
M  V30 15 O -1.049982 2.141039 -0.099943 0
M  V30 16 N -2.548824 1.675396 1.584747 0
M  V30 17 C -3.233119 2.933865 1.365361 0
M  V30 18 C -2.911759 0.780374 2.518358 0
M  V30 19 O -3.918458 1.097275 3.226768 0
M  V30 20 N -2.283310 -0.389332 2.729203 0
M  V30 21 C -1.201651 -0.741102 1.975617 0
M  V30 22 H -0.023228 -3.204880 3.653611 0
M  V30 23 H -1.433167 -3.696983 2.690023 0
M  V30 24 H -1.602079 -2.346043 3.889684 0
M  V30 25 H 2.446812 -3.512376 0.498726 0
M  V30 26 H 4.423823 -4.077302 -0.930990 0
M  V30 27 H 3.894085 -0.330057 -2.964326 0
M  V30 28 H 1.926698 0.193314 -1.515489 0
M  V30 29 H -4.295432 2.897648 1.609125 0
M  V30 30 H -2.662969 3.716866 1.937581 0
M  V30 31 H -3.154561 3.217215 0.277519 0
M  V30 END ATOM
M  V30 BEGIN BOND
M  V30 1 1 1 2
M  V30 2 1 2 3
M  V30 3 2 3 4
M  V30 4 1 4 5
M  V30 5 2 5 6
M  V30 6 1 6 7
M  V30 7 2 7 8
M  V30 8 1 8 9
M  V30 9 1 8 10
M  V30 10 2 10 11
M  V30 11 1 4 12
M  V30 12 2 12 13
M  V30 13 1 13 14
M  V30 14 2 14 15
M  V30 15 1 14 16
M  V30 16 1 16 17
M  V30 17 1 16 18
M  V30 18 2 18 19
M  V30 19 1 18 20
M  V30 20 2 20 21
M  V30 21 1 21 2
M  V30 22 1 11 5
M  V30 23 1 21 13
M  V30 24 1 1 22
M  V30 25 1 1 23
M  V30 26 1 1 24
M  V30 27 1 6 25
M  V30 28 1 7 26
M  V30 29 1 10 27
M  V30 30 1 11 28
M  V30 31 1 17 29
M  V30 32 1 17 30
M  V30 33 1 17 31
M  V30 END BOND
M  V30 END CTAB
M  END
>  <Dataset>  (49) 
ChEMBL_Kinases

>  <Ligand_Instance>  (49) 
nan

>  <PDB_ID>  (49) 
nan

>  <Standardized_SMILES>  (49) 
Cn1nc(-c2ccc(Cl)cc2)nc2c(=O)n(C)c(=O)nc1-2

>  <Name>  (49) 
nan

>  <Pocket>  (49) 
nan

>  <ATP_Site>  (49) 
nan

>  <Peripheral>  (49) 
nan

>  <Num_H_Atoms_ProtBoundConf>  (49) 
nan

>  <Num_Resolved_Atoms>  (49) 
nan

>  <Num_Not_Resolved_Atoms>  (49) 
nan

$$$$
CHEMBL3701217
     RDKit          3D

  0  0  0  0  0  0  0  0  0  0999 V3000
M  V30 BEGIN CTAB
M  V30 COUNTS 77 82 0 0 0
M  V30 BEGIN ATOM
M  V30 1 C 0.755598 2.832316 7.054427 0
M  V30 2 C 1.408432 2.788555 5.706961 0
M  V30 3 C 2.203357 1.692009 5.421213 0
M  V30 4 C 2.845367 1.570774 4.196676 0
M  V30 5 C 2.688864 2.570285 3.234190 0
M  V30 6 N 3.372711 2.365570 2.028076 0
M  V30 7 N 4.651471 2.444688 1.702591 0
M  V30 8 C 4.860480 2.160397 0.407537 0
M  V30 9 C 6.167072 2.149801 -0.305764 0
M  V30 10 C 7.237188 2.513968 0.674946 0
M  V30 11 C 6.123577 3.101850 -1.476373 0
M  V30 12 C 6.387816 0.752295 -0.855133 0
M  V30 13 C 3.592818 1.880243 -0.112632 0
M  V30 14 C 2.688029 2.021844 0.943201 0
M  V30 15 N 1.323934 1.770832 0.594478 0
M  V30 16 C 0.875498 0.437185 0.734110 0
M  V30 17 O 1.626256 -0.491487 1.142927 0
M  V30 18 N -0.478452 0.090211 0.407803 0
M  V30 19 C -1.050739 -1.211223 0.504655 0
M  V30 20 C -1.679175 -1.689916 1.649188 0
M  V30 21 C -2.219773 -2.981258 1.670755 0
M  V30 22 C -2.140298 -3.798691 0.564191 0
M  V30 23 O -2.735009 -5.020769 0.802181 0
M  V30 24 C -3.838525 -5.442791 0.083891 0
M  V30 25 C -4.278020 -6.699515 0.444601 0
M  V30 26 C -5.376384 -7.204118 -0.220127 0
M  V30 27 N -5.981490 -6.487336 -1.177338 0
M  V30 28 C -5.571002 -5.261853 -1.544992 0
M  V30 29 N -6.223541 -4.518605 -2.559945 0
M  V30 30 C -5.937019 -3.232833 -3.071262 0
M  V30 31 C -4.917850 -2.413838 -2.659359 0
M  V30 32 C -4.632072 -1.172573 -3.144894 0
M  V30 33 C -5.459795 -0.697345 -4.156919 0
M  V30 34 C -6.495999 -1.471716 -4.610335 0
M  V30 35 C -6.708096 -2.704602 -4.064834 0
M  V30 36 N -4.504742 -4.816135 -0.873470 0
M  V30 37 C -1.515754 -3.317411 -0.564023 0
M  V30 38 C -1.479757 -4.214871 -1.611790 0
M  V30 39 C -0.859636 -3.798463 -2.776195 0
M  V30 40 C -0.306190 -2.544875 -2.876190 0
M  V30 41 C -0.367763 -1.671074 -1.784523 0
M  V30 42 C -0.978207 -2.051890 -0.606510 0
M  V30 43 C 1.894521 3.655243 3.533765 0
M  V30 44 C 1.256822 3.775545 4.750203 0
M  V30 45 H 1.395719 2.405236 7.844903 0
M  V30 46 H -0.161332 2.219384 6.991225 0
M  V30 47 H 0.501541 3.882267 7.299590 0
M  V30 48 H 2.329436 0.901715 6.177207 0
M  V30 49 H 3.459131 0.672396 4.043192 0
M  V30 50 H 6.888779 3.208182 1.465667 0
M  V30 51 H 7.641611 1.590437 1.175475 0
M  V30 52 H 8.093491 2.966676 0.115433 0
M  V30 53 H 5.116037 3.022373 -1.927586 0
M  V30 54 H 6.884602 2.795347 -2.222720 0
M  V30 55 H 6.348657 4.140417 -1.194964 0
M  V30 56 H 6.794517 0.076756 -0.096042 0
M  V30 57 H 7.042335 0.774923 -1.756628 0
M  V30 58 H 5.412964 0.344704 -1.197280 0
M  V30 59 H 3.505452 1.615246 -1.175071 0
M  V30 60 H 0.689556 2.540807 0.252034 0
M  V30 61 H -1.113110 0.831716 0.070996 0
M  V30 62 H -1.712664 -1.008388 2.484752 0
M  V30 63 H -2.673040 -3.207281 2.627306 0
M  V30 64 H -3.855554 -7.348115 1.200977 0
M  V30 65 H -5.851118 -8.167401 -0.064568 0
M  V30 66 H -7.054959 -5.022534 -2.991665 0
M  V30 67 H -4.253253 -2.738886 -1.880340 0
M  V30 68 H -3.823749 -0.553972 -2.799807 0
M  V30 69 H -5.301356 0.268264 -4.590965 0
M  V30 70 H -7.133723 -1.086504 -5.401427 0
M  V30 71 H -7.550720 -3.264123 -4.475277 0
M  V30 72 H -1.893055 -5.212045 -1.571454 0
M  V30 73 H -0.765603 -4.391960 -3.651685 0
M  V30 74 H 0.188436 -2.190245 -3.781848 0
M  V30 75 H 0.068244 -0.665787 -1.843781 0
M  V30 76 H 1.785606 4.412229 2.783960 0
M  V30 77 H 0.634339 4.616752 4.996111 0
M  V30 END ATOM
M  V30 BEGIN BOND
M  V30 1 1 1 2
M  V30 2 2 2 3
M  V30 3 1 3 4
M  V30 4 2 4 5
M  V30 5 1 5 6
M  V30 6 1 6 7
M  V30 7 2 7 8
M  V30 8 1 8 9
M  V30 9 1 9 10
M  V30 10 1 9 11
M  V30 11 1 9 12
M  V30 12 1 8 13
M  V30 13 2 13 14
M  V30 14 1 14 15
M  V30 15 1 15 16
M  V30 16 2 16 17
M  V30 17 1 16 18
M  V30 18 1 18 19
M  V30 19 2 19 20
M  V30 20 1 20 21
M  V30 21 2 21 22
M  V30 22 1 22 23
M  V30 23 1 23 24
M  V30 24 2 24 25
M  V30 25 1 25 26
M  V30 26 2 26 27
M  V30 27 1 27 28
M  V30 28 1 28 29
M  V30 29 1 29 30
M  V30 30 2 30 31
M  V30 31 1 31 32
M  V30 32 2 32 33
M  V30 33 1 33 34
M  V30 34 2 34 35
M  V30 35 2 28 36
M  V30 36 1 22 37
M  V30 37 2 37 38
M  V30 38 1 38 39
M  V30 39 2 39 40
M  V30 40 1 40 41
M  V30 41 2 41 42
M  V30 42 1 5 43
M  V30 43 2 43 44
M  V30 44 1 44 2
M  V30 45 1 14 6
M  V30 46 1 42 19
M  V30 47 1 36 24
M  V30 48 1 42 37
M  V30 49 1 35 30
M  V30 50 1 1 45
M  V30 51 1 1 46
M  V30 52 1 1 47
M  V30 53 1 3 48
M  V30 54 1 4 49
M  V30 55 1 10 50
M  V30 56 1 10 51
M  V30 57 1 10 52
M  V30 58 1 11 53
M  V30 59 1 11 54
M  V30 60 1 11 55
M  V30 61 1 12 56
M  V30 62 1 12 57
M  V30 63 1 12 58
M  V30 64 1 13 59
M  V30 65 1 15 60
M  V30 66 1 18 61
M  V30 67 1 20 62
M  V30 68 1 21 63
M  V30 69 1 25 64
M  V30 70 1 26 65
M  V30 71 1 29 66
M  V30 72 1 31 67
M  V30 73 1 32 68
M  V30 74 1 33 69
M  V30 75 1 34 70
M  V30 76 1 35 71
M  V30 77 1 38 72
M  V30 78 1 39 73
M  V30 79 1 40 74
M  V30 80 1 41 75
M  V30 81 1 43 76
M  V30 82 1 44 77
M  V30 END BOND
M  V30 END CTAB
M  END
>  <Dataset>  (50) 
ChEMBL_Kinases

>  <Ligand_Instance>  (50) 
nan

>  <PDB_ID>  (50) 
nan

>  <Standardized_SMILES>  (50) 
Cc1ccc(-n2nc(C(C)(C)C)cc2NC(=O)Nc2ccc(Oc3ccnc(Nc4ccccc4)n3)c3ccccc23)cc1

>  <Name>  (50) 
nan

>  <Pocket>  (50) 
nan

>  <ATP_Site>  (50) 
nan

>  <Peripheral>  (50) 
nan

>  <Num_H_Atoms_ProtBoundConf>  (50) 
nan

>  <Num_Resolved_Atoms>  (50) 
nan

>  <Num_Not_Resolved_Atoms>  (50) 
nan

$$$$
CHEMBL4875508
     RDKit          3D

  0  0  0  0  0  0  0  0  0  0999 V3000
M  V30 BEGIN CTAB
M  V30 COUNTS 53 57 0 0 0
M  V30 BEGIN ATOM
M  V30 1 H 4.126897 -0.599562 6.169815 0 MASS=2
M  V30 2 C 5.007380 0.030529 5.919946 0
M  V30 3 H 5.763155 -0.027574 6.721295 0 MASS=2
M  V30 4 H 5.358021 -0.302567 4.924557 0 MASS=2
M  V30 5 N 4.604094 1.417135 5.785397 0
M  V30 6 C 5.543278 2.153746 4.997730 0
M  V30 7 C 4.904601 2.467054 3.665244 0
M  V30 8 C 3.671507 1.593515 3.701120 0 CFG=2
M  V30 9 N 2.576636 2.100016 2.932768 0
M  V30 10 C 2.061329 1.292184 1.889283 0
M  V30 11 O 2.586614 0.151941 1.672877 0
M  V30 12 C 0.917350 1.878024 1.123783 0
M  V30 13 C 0.305652 1.269725 0.113832 0
M  V30 14 C -0.737813 1.853892 -0.551903 0
M  V30 15 N -1.515382 1.377471 -1.642837 0
M  V30 16 N -1.867701 2.062763 -2.716864 0
M  V30 17 C -2.602004 1.295567 -3.545069 0
M  V30 18 C -2.701088 0.064395 -2.932339 0
M  V30 19 C -3.346870 -1.058975 -3.372386 0
M  V30 20 C -3.299116 -2.176990 -2.568136 0
M  V30 21 N -3.953961 -3.337532 -2.996019 0
M  V30 22 C -4.100192 -4.662551 -2.505268 0
M  V30 23 C -5.289653 -5.272629 -2.175049 0
M  V30 24 C -5.368247 -6.561693 -1.706078 0
M  V30 25 C -4.195610 -7.288566 -1.555979 0
M  V30 26 C -3.032000 -6.666155 -1.888229 0
M  V30 27 C -2.907689 -5.377241 -2.361598 0
M  V30 28 Cl -1.294739 -4.795268 -2.725984 0
M  V30 29 C -2.622914 -2.153193 -1.366758 0
M  V30 30 C -1.975670 -1.028289 -0.925171 0
M  V30 31 C -2.009858 0.105612 -1.715322 0
M  V30 32 C -1.084766 3.178982 -0.036182 0
M  V30 33 S 0.169907 3.396773 1.364081 0
M  V30 34 C 3.305106 1.497537 5.147274 0
M  V30 35 H 5.854289 3.084305 5.520326 0
M  V30 36 H 6.429855 1.504790 4.814068 0
M  V30 37 H 5.539705 2.204836 2.794573 0
M  V30 38 H 4.658823 3.548262 3.557211 0
M  V30 39 H 3.994668 0.572209 3.362640 0
M  V30 40 H 2.223484 3.049403 3.197517 0
M  V30 41 H 0.590683 0.269247 -0.252545 0
M  V30 42 H -2.999909 1.649830 -4.488408 0
M  V30 43 H -3.879681 -1.067156 -4.325725 0
M  V30 44 H -4.509969 -3.385267 -3.875669 0
M  V30 45 H -6.190610 -4.672976 -2.305272 0
M  V30 46 H -6.300771 -7.028581 -1.451467 0
M  V30 47 H -4.245459 -8.297527 -1.189997 0
M  V30 48 H -2.132675 -7.276448 -1.754162 0
M  V30 49 H -2.553123 -2.996689 -0.694978 0
M  V30 50 H -1.443873 -0.977297 -0.001086 0
M  V30 51 H -1.922481 3.842657 -0.443738 0
M  V30 52 H 2.676520 0.628579 5.350404 0
M  V30 53 H 2.800337 2.455764 5.412079 0
M  V30 END ATOM
M  V30 BEGIN BOND
M  V30 1 1 1 2
M  V30 2 1 2 3
M  V30 3 1 2 4
M  V30 4 1 2 5
M  V30 5 1 5 6
M  V30 6 1 6 7
M  V30 7 1 7 8
M  V30 8 1 8 9
M  V30 9 1 9 10
M  V30 10 2 10 11
M  V30 11 1 10 12
M  V30 12 2 12 13
M  V30 13 1 13 14
M  V30 14 1 14 15
M  V30 15 1 15 16
M  V30 16 2 16 17
M  V30 17 1 17 18
M  V30 18 2 18 19
M  V30 19 1 19 20
M  V30 20 1 20 21
M  V30 21 1 21 22
M  V30 22 2 22 23
M  V30 23 1 23 24
M  V30 24 2 24 25
M  V30 25 1 25 26
M  V30 26 2 26 27
M  V30 27 1 27 28
M  V30 28 2 20 29
M  V30 29 1 29 30
M  V30 30 2 30 31
M  V30 31 2 14 32
M  V30 32 1 32 33
M  V30 33 1 8 34
M  V30 34 1 34 5
M  V30 35 1 33 12
M  V30 36 1 31 15
M  V30 37 1 31 18
M  V30 38 1 27 22
M  V30 39 1 6 35
M  V30 40 1 6 36
M  V30 41 1 7 37
M  V30 42 1 7 38
M  V30 43 1 8 39 CFG=3
M  V30 44 1 9 40
M  V30 45 1 13 41
M  V30 46 1 17 42
M  V30 47 1 19 43
M  V30 48 1 21 44
M  V30 49 1 23 45
M  V30 50 1 24 46
M  V30 51 1 25 47
M  V30 52 1 26 48
M  V30 53 1 29 49
M  V30 54 1 30 50
M  V30 55 1 32 51
M  V30 56 1 34 52
M  V30 57 1 34 53
M  V30 END BOND
M  V30 END CTAB
M  END
>  <Dataset>  (51) 
ChEMBL_Kinases

>  <Ligand_Instance>  (51) 
nan

>  <PDB_ID>  (51) 
nan

>  <Standardized_SMILES>  (51) 
[2H]C([2H])([2H])N1CC[C@H](NC(=O)c2cc(-n3ncc4cc(Nc5ccccc5Cl)ccc43)cs2)C1

>  <Name>  (51) 
nan

>  <Pocket>  (51) 
nan

>  <ATP_Site>  (51) 
nan

>  <Peripheral>  (51) 
nan

>  <Num_H_Atoms_ProtBoundConf>  (51) 
nan

>  <Num_Resolved_Atoms>  (51) 
nan

>  <Num_Not_Resolved_Atoms>  (51) 
nan

$$$$
CHEMBL3702076
     RDKit          3D

  0  0  0  0  0  0  0  0  0  0999 V3000
M  V30 BEGIN CTAB
M  V30 COUNTS 62 67 0 0 0
M  V30 BEGIN ATOM
M  V30 1 C 3.422359 1.904361 6.456997 0
M  V30 2 N 2.040192 1.664094 6.826665 0
M  V30 3 C 1.700452 2.575152 7.889207 0
M  V30 4 C 1.231441 1.814103 5.658316 0
M  V30 5 C 1.298491 3.182238 5.021522 0
M  V30 6 C 0.054608 3.348823 4.205161 0
M  V30 7 N -0.379994 2.145818 3.535271 0
M  V30 8 C -0.311872 1.738835 2.176251 0
M  V30 9 C 0.276589 2.561922 1.243834 0
M  V30 10 C 0.262100 2.019695 -0.036850 0
M  V30 11 C -0.293496 0.770975 -0.334566 0
M  V30 12 N -0.279438 0.265378 -1.666332 0
M  V30 13 C -0.860679 -1.010808 -1.912985 0
M  V30 14 N -1.406360 -1.703441 -0.893773 0
M  V30 15 C -1.980289 -2.930565 -1.058553 0
M  V30 16 C -1.986396 -3.458881 -2.338405 0
M  V30 17 C -2.449064 -4.620794 -2.920203 0
M  V30 18 C -3.094079 -5.673794 -2.305444 0
M  V30 19 C -3.474662 -6.748995 -3.085701 0
M  V30 20 N -3.196524 -6.714569 -4.406964 0
M  V30 21 C -2.562968 -5.664251 -4.970328 0
M  V30 22 F -2.328379 -5.725681 -6.309083 0
M  V30 23 C -2.153675 -4.561217 -4.265927 0
M  V30 24 N -1.517537 -3.398299 -4.558013 0
M  V30 25 C -1.124080 -3.124058 -5.903650 0
M  V30 26 C 0.239847 -3.637842 -6.261758 0
M  V30 27 C 1.394523 -3.133087 -5.491238 0
M  V30 28 C 0.949747 -4.596260 -5.383370 0
M  V30 29 C -1.428425 -2.751931 -3.382884 0
M  V30 30 N -0.879648 -1.546827 -3.146855 0
M  V30 31 N -0.849533 0.048373 0.684143 0
M  V30 32 N -0.855045 0.533864 1.924768 0
M  V30 33 C -0.950633 1.356436 4.607249 0
M  V30 34 C -0.229664 1.527409 5.911850 0
M  V30 35 H 3.460102 2.866728 5.908258 0
M  V30 36 H 3.803924 1.101191 5.775382 0
M  V30 37 H 4.077959 2.015639 7.343333 0
M  V30 38 H 0.803872 3.176229 7.727367 0
M  V30 39 H 1.485634 1.972612 8.816937 0
M  V30 40 H 2.537573 3.280471 8.119631 0
M  V30 41 H 1.565912 1.050224 4.912831 0
M  V30 42 H 1.254320 3.993556 5.802072 0
M  V30 43 H 2.189738 3.301497 4.376568 0
M  V30 44 H 0.332619 4.056507 3.366429 0
M  V30 45 H -0.750149 3.873283 4.763111 0
M  V30 46 H 0.702810 3.510683 1.447894 0
M  V30 47 H 0.687476 2.546304 -0.879745 0
M  V30 48 H 0.147144 0.834090 -2.403491 0
M  V30 49 H -2.416101 -3.487075 -0.248204 0
M  V30 50 H -3.300155 -5.665921 -1.242556 0
M  V30 51 H -3.986594 -7.612658 -2.667981 0
M  V30 52 H -1.909237 -3.486196 -6.627166 0
M  V30 53 H -1.086517 -2.009132 -6.074018 0
M  V30 54 H 0.409079 -3.760631 -7.352223 0
M  V30 55 H 2.381363 -2.964094 -5.981855 0
M  V30 56 H 1.274674 -2.537406 -4.581222 0
M  V30 57 H 1.618722 -5.332088 -5.853956 0
M  V30 58 H 0.558594 -4.911505 -4.414616 0
M  V30 59 H -0.953329 0.272319 4.371958 0
M  V30 60 H -2.002589 1.678565 4.729654 0
M  V30 61 H -0.285842 0.610684 6.533434 0
M  V30 62 H -0.680093 2.347709 6.507531 0
M  V30 END ATOM
M  V30 BEGIN BOND
M  V30 1 1 1 2
M  V30 2 1 2 3
M  V30 3 1 2 4
M  V30 4 1 4 5
M  V30 5 1 5 6
M  V30 6 1 6 7
M  V30 7 1 7 8
M  V30 8 2 8 9
M  V30 9 1 9 10
M  V30 10 2 10 11
M  V30 11 1 11 12
M  V30 12 1 12 13
M  V30 13 2 13 14
M  V30 14 1 14 15
M  V30 15 2 15 16
M  V30 16 1 16 17
M  V30 17 2 17 18
M  V30 18 1 18 19
M  V30 19 2 19 20
M  V30 20 1 20 21
M  V30 21 1 21 22
M  V30 22 2 21 23
M  V30 23 1 23 24
M  V30 24 1 24 25
M  V30 25 1 25 26
M  V30 26 1 26 27
M  V30 27 1 27 28
M  V30 28 1 24 29
M  V30 29 2 29 30
M  V30 30 1 11 31
M  V30 31 2 31 32
M  V30 32 1 7 33
M  V30 33 1 33 34
M  V30 34 1 34 4
M  V30 35 1 32 8
M  V30 36 1 30 13
M  V30 37 1 29 16
M  V30 38 1 23 17
M  V30 39 1 28 26
M  V30 40 1 1 35
M  V30 41 1 1 36
M  V30 42 1 1 37
M  V30 43 1 3 38
M  V30 44 1 3 39
M  V30 45 1 3 40
M  V30 46 1 4 41
M  V30 47 1 5 42
M  V30 48 1 5 43
M  V30 49 1 6 44
M  V30 50 1 6 45
M  V30 51 1 9 46
M  V30 52 1 10 47
M  V30 53 1 12 48
M  V30 54 1 15 49
M  V30 55 1 18 50
M  V30 56 1 19 51
M  V30 57 1 25 52
M  V30 58 1 25 53
M  V30 59 1 26 54
M  V30 60 1 27 55
M  V30 61 1 27 56
M  V30 62 1 28 57
M  V30 63 1 28 58
M  V30 64 1 33 59
M  V30 65 1 33 60
M  V30 66 1 34 61
M  V30 67 1 34 62
M  V30 END BOND
M  V30 END CTAB
M  END
>  <Dataset>  (52) 
ChEMBL_Kinases

>  <Ligand_Instance>  (52) 
nan

>  <PDB_ID>  (52) 
nan

>  <Standardized_SMILES>  (52) 
CN(C)C1CCN(c2ccc(Nc3ncc4c5ccnc(F)c5n(CC5CC5)c4n3)nn2)CC1

>  <Name>  (52) 
nan

>  <Pocket>  (52) 
nan

>  <ATP_Site>  (52) 
nan

>  <Peripheral>  (52) 
nan

>  <Num_H_Atoms_ProtBoundConf>  (52) 
nan

>  <Num_Resolved_Atoms>  (52) 
nan

>  <Num_Not_Resolved_Atoms>  (52) 
nan

$$$$
CHEMBL252652
     RDKit          3D

  0  0  0  0  0  0  0  0  0  0999 V3000
M  V30 BEGIN CTAB
M  V30 COUNTS 69 73 0 0 0
M  V30 BEGIN ATOM
M  V30 1 C 6.118156 -1.959318 5.171276 0
M  V30 2 C 7.372787 -1.248256 4.660315 0
M  V30 3 N 7.312109 -1.252759 3.194928 0
M  V30 4 C 6.119780 -0.555466 2.785076 0
M  V30 5 O 5.384813 -0.093039 3.688572 0
M  V30 6 N 5.802573 -0.406462 1.390893 0
M  V30 7 C 4.614402 0.284952 0.904643 0
M  V30 8 C 3.823143 -0.725028 0.095025 0
M  V30 9 C 2.825409 -0.070482 -0.798196 0
M  V30 10 N 2.510972 1.277835 -0.499655 0
M  V30 11 C 1.482649 1.514145 0.455240 0
M  V30 12 C 0.178302 0.937334 0.110356 0
M  V30 13 C -0.814782 1.541222 -0.637752 0
M  V30 14 C -2.011011 0.901347 -0.896414 0
M  V30 15 C -2.255098 -0.369031 -0.413282 0
M  V30 16 C -3.477790 -1.140055 -0.623481 0
M  V30 17 N -3.329444 -2.316242 -1.303077 0
M  V30 18 C -4.400253 -3.096191 -1.541207 0
M  V30 19 N -4.315167 -4.272857 -2.207863 0
M  V30 20 C -5.409231 -5.023276 -2.423932 0
M  V30 21 S -5.218816 -6.545650 -3.298651 0
M  V30 22 C -5.395332 -6.345352 -5.087393 0
M  V30 23 N -6.613876 -4.625102 -1.984405 0
M  V30 24 C -6.818939 -3.476877 -1.311604 0
M  V30 25 C -5.668505 -2.714670 -1.099199 0
M  V30 26 C -5.832837 -1.518397 -0.405595 0
M  V30 27 C -4.718995 -0.734654 -0.173127 0
M  V30 28 C -4.848219 0.516622 0.544564 0
M  V30 29 C -5.678913 1.461572 -0.032887 0
M  V30 30 C -5.855134 2.685983 0.595567 0
M  V30 31 C -5.217353 2.999004 1.800555 0
M  V30 32 C -4.378640 2.038423 2.378932 0
M  V30 33 C -4.201430 0.804111 1.744778 0
M  V30 34 C -1.284125 -1.025809 0.349557 0
M  V30 35 C -0.095313 -0.350823 0.588166 0
M  V30 36 C 3.653862 2.141490 -0.354374 0
M  V30 37 C 4.926517 1.446339 0.013573 0
M  V30 38 H 5.522371 -2.378379 4.319066 0
M  V30 39 H 6.353720 -2.805555 5.839881 0
M  V30 40 H 5.462671 -1.262817 5.718422 0
M  V30 41 H 7.367050 -0.210134 5.015332 0
M  V30 42 H 8.266027 -1.831881 4.975027 0
M  V30 43 H 7.883968 -1.614775 2.412399 0
M  V30 44 H 6.419965 -0.793576 0.650670 0
M  V30 45 H 4.081477 0.635011 1.788882 0
M  V30 46 H 4.598429 -1.238743 -0.547061 0
M  V30 47 H 3.427720 -1.522645 0.735618 0
M  V30 48 H 1.915700 -0.679844 -0.811620 0
M  V30 49 H 3.192467 -0.082246 -1.869599 0
M  V30 50 H 1.759616 1.145267 1.485501 0
M  V30 51 H 1.378317 2.619663 0.598569 0
M  V30 52 H -0.609470 2.535340 -1.009234 0
M  V30 53 H -2.794631 1.362846 -1.480248 0
M  V30 54 H -5.465837 -5.287688 -5.384150 0
M  V30 55 H -4.506583 -6.754742 -5.633903 0
M  V30 56 H -6.281235 -6.901225 -5.478642 0
M  V30 57 H -7.778542 -3.135020 -0.947484 0
M  V30 58 H -6.820649 -1.230136 -0.066905 0
M  V30 59 H -6.229397 1.339928 -0.963467 0
M  V30 60 H -6.513436 3.447608 0.147422 0
M  V30 61 H -5.381690 3.963297 2.256391 0
M  V30 62 H -3.868080 2.242010 3.309083 0
M  V30 63 H -3.558578 0.036299 2.164521 0
M  V30 64 H -1.437650 -2.020596 0.745137 0
M  V30 65 H 0.638545 -0.904554 1.194309 0
M  V30 66 H 3.468386 2.913767 0.437770 0
M  V30 67 H 3.787435 2.714925 -1.286115 0
M  V30 68 H 5.419568 1.064537 -0.912097 0
M  V30 69 H 5.624912 2.143697 0.520932 0
M  V30 END ATOM
M  V30 BEGIN BOND
M  V30 1 1 1 2
M  V30 2 1 2 3
M  V30 3 1 3 4
M  V30 4 2 4 5
M  V30 5 1 4 6
M  V30 6 1 6 7
M  V30 7 1 7 8
M  V30 8 1 8 9
M  V30 9 1 9 10
M  V30 10 1 10 11
M  V30 11 1 11 12
M  V30 12 2 12 13
M  V30 13 1 13 14
M  V30 14 2 14 15
M  V30 15 1 15 16
M  V30 16 2 16 17
M  V30 17 1 17 18
M  V30 18 2 18 19
M  V30 19 1 19 20
M  V30 20 1 20 21
M  V30 21 1 21 22
M  V30 22 2 20 23
M  V30 23 1 23 24
M  V30 24 2 24 25
M  V30 25 1 25 26
M  V30 26 2 26 27
M  V30 27 1 27 28
M  V30 28 2 28 29
M  V30 29 1 29 30
M  V30 30 2 30 31
M  V30 31 1 31 32
M  V30 32 2 32 33
M  V30 33 1 15 34
M  V30 34 2 34 35
M  V30 35 1 10 36
M  V30 36 1 36 37
M  V30 37 1 37 7
M  V30 38 1 35 12
M  V30 39 1 27 16
M  V30 40 1 33 28
M  V30 41 1 25 18
M  V30 42 1 1 38
M  V30 43 1 1 39
M  V30 44 1 1 40
M  V30 45 1 2 41
M  V30 46 1 2 42
M  V30 47 1 3 43
M  V30 48 1 6 44
M  V30 49 1 7 45
M  V30 50 1 8 46
M  V30 51 1 8 47
M  V30 52 1 9 48
M  V30 53 1 9 49
M  V30 54 1 11 50
M  V30 55 1 11 51
M  V30 56 1 13 52
M  V30 57 1 14 53
M  V30 58 1 22 54
M  V30 59 1 22 55
M  V30 60 1 22 56
M  V30 61 1 24 57
M  V30 62 1 26 58
M  V30 63 1 29 59
M  V30 64 1 30 60
M  V30 65 1 31 61
M  V30 66 1 32 62
M  V30 67 1 33 63
M  V30 68 1 34 64
M  V30 69 1 35 65
M  V30 70 1 36 66
M  V30 71 1 36 67
M  V30 72 1 37 68
M  V30 73 1 37 69
M  V30 END BOND
M  V30 END CTAB
M  END
>  <Dataset>  (53) 
ChEMBL_Kinases

>  <Ligand_Instance>  (53) 
nan

>  <PDB_ID>  (53) 
nan

>  <Standardized_SMILES>  (53) 
CCNC(=O)NC1CCN(Cc2ccc(-c3nc4nc(SC)ncc4cc3-c3ccccc3)cc2)CC1

>  <Name>  (53) 
nan

>  <Pocket>  (53) 
nan

>  <ATP_Site>  (53) 
nan

>  <Peripheral>  (53) 
nan

>  <Num_H_Atoms_ProtBoundConf>  (53) 
nan

>  <Num_Resolved_Atoms>  (53) 
nan

>  <Num_Not_Resolved_Atoms>  (53) 
nan

$$$$
CHEMBL3687503
     RDKit          3D

  0  0  0  0  0  0  0  0  0  0999 V3000
M  V30 BEGIN CTAB
M  V30 COUNTS 70 73 0 0 0
M  V30 BEGIN ATOM
M  V30 1 C 5.902870 -2.789559 5.903828 0
M  V30 2 O 4.562661 -2.752634 6.211852 0
M  V30 3 C 3.921052 -1.592143 5.871189 0
M  V30 4 C 3.946405 -1.256227 4.416631 0
M  V30 5 O 3.249580 -0.028044 4.154223 0
M  V30 6 C 3.150183 0.468845 2.869551 0
M  V30 7 C 3.710224 -0.195408 1.817771 0
M  V30 8 C 3.600289 0.314370 0.550706 0
M  V30 9 F 4.136939 -0.305795 -0.525249 0
M  V30 10 C 2.914110 1.506858 0.368558 0
M  V30 11 C 2.735448 2.138130 -0.934691 0
M  V30 12 N 1.608643 1.754053 -1.583656 0
M  V30 13 C 1.284765 2.237712 -2.801242 0
M  V30 14 C 0.066414 1.807912 -3.473986 0
M  V30 15 O -0.164928 2.298971 -4.603733 0
M  V30 16 N -0.847899 0.880987 -2.921298 0
M  V30 17 C -2.057827 0.369358 -3.440006 0
M  V30 18 C -2.571094 0.753655 -4.657628 0
M  V30 19 N -3.734028 0.303923 -5.213400 0
M  V30 20 C -4.481547 -0.611466 -4.525374 0
M  V30 21 C -3.966124 -1.006067 -3.288530 0
M  V30 22 C -2.775114 -0.550184 -2.712512 0
M  V30 23 C -2.372489 -1.070332 -1.412437 0 CFG=1
M  V30 24 C -2.793308 -0.249363 -0.225163 0
M  V30 25 C -3.843051 -0.892071 0.620845 0 CFG=1
M  V30 26 N -5.091061 -0.840349 -0.158693 0
M  V30 27 C -3.532459 -2.277767 1.102950 0 CFG=1
M  V30 28 O -4.729756 -2.992753 1.018054 0
M  V30 29 C -5.214590 -3.417949 2.236966 0
M  V30 30 C -2.457184 -2.872288 0.240405 0 CFG=1
M  V30 31 C -2.229384 -4.336374 0.428405 0
M  V30 32 C -2.832391 -2.515592 -1.209467 0
M  V30 33 C 2.141192 3.145636 -3.377347 0
M  V30 34 C 3.289558 3.541427 -2.723415 0
M  V30 35 C 3.617621 3.046948 -1.482189 0
M  V30 36 F 4.721253 3.383144 -0.776951 0
M  V30 37 C 2.361594 2.153194 1.441477 0
M  V30 38 F 1.682246 3.329499 1.282755 0
M  V30 39 C 2.449820 1.668780 2.750764 0
M  V30 40 H 6.312186 -3.769751 6.232266 0
M  V30 41 H 6.413944 -1.993434 6.462231 0
M  V30 42 H 6.102762 -2.691341 4.796958 0
M  V30 43 H 4.418369 -0.767457 6.453709 0
M  V30 44 H 2.865632 -1.689246 6.243942 0
M  V30 45 H 3.460374 -2.040263 3.838270 0
M  V30 46 H 5.024083 -1.125542 4.114756 0
M  V30 47 H 4.242649 -1.123736 1.971142 0
M  V30 48 H -0.516572 0.576340 -1.989616 0
M  V30 49 H -2.108917 1.458425 -5.314674 0
M  V30 50 H -5.396733 -0.969704 -4.955658 0
M  V30 51 H -4.637520 -1.722264 -2.841087 0
M  V30 52 H -1.251027 -1.153542 -1.400793 0
M  V30 53 H -1.905930 0.091207 0.369841 0
M  V30 54 H -3.242239 0.688251 -0.615495 0
M  V30 55 H -4.039365 -0.190673 1.472412 0
M  V30 56 H -5.743214 -1.593120 0.111883 0
M  V30 57 H -5.481182 0.104779 -0.191837 0
M  V30 58 H -3.185631 -2.185594 2.154862 0
M  V30 59 H -5.428933 -2.598848 2.952424 0
M  V30 60 H -6.200552 -3.894052 2.039646 0
M  V30 61 H -4.557994 -4.195623 2.632825 0
M  V30 62 H -1.510586 -2.368702 0.527206 0
M  V30 63 H -2.580364 -4.743838 1.397247 0
M  V30 64 H -2.642484 -4.861280 -0.460913 0
M  V30 65 H -1.128177 -4.587642 0.405518 0
M  V30 66 H -2.295708 -3.228537 -1.840704 0
M  V30 67 H -3.931778 -2.609431 -1.224225 0
M  V30 68 H 1.899823 3.545509 -4.351972 0
M  V30 69 H 3.960987 4.255441 -3.178288 0
M  V30 70 H 2.007229 2.198305 3.566668 0
M  V30 END ATOM
M  V30 BEGIN BOND
M  V30 1 1 1 2
M  V30 2 1 2 3
M  V30 3 1 3 4
M  V30 4 1 4 5
M  V30 5 1 5 6
M  V30 6 2 6 7
M  V30 7 1 7 8
M  V30 8 1 8 9
M  V30 9 2 8 10
M  V30 10 1 10 11
M  V30 11 2 11 12
M  V30 12 1 12 13
M  V30 13 1 13 14
M  V30 14 2 14 15
M  V30 15 1 14 16
M  V30 16 1 16 17
M  V30 17 2 17 18
M  V30 18 1 18 19
M  V30 19 2 19 20
M  V30 20 1 20 21
M  V30 21 2 21 22
M  V30 22 1 22 23
M  V30 23 1 23 24
M  V30 24 1 24 25
M  V30 25 1 25 26
M  V30 26 1 25 27
M  V30 27 1 27 28
M  V30 28 1 28 29
M  V30 29 1 27 30
M  V30 30 1 30 31
M  V30 31 1 30 32
M  V30 32 2 13 33
M  V30 33 1 33 34
M  V30 34 2 34 35
M  V30 35 1 35 36
M  V30 36 1 10 37
M  V30 37 1 37 38
M  V30 38 2 37 39
M  V30 39 1 39 6
M  V30 40 1 35 11
M  V30 41 1 22 17
M  V30 42 1 32 23
M  V30 43 1 1 40
M  V30 44 1 1 41
M  V30 45 1 1 42
M  V30 46 1 3 43
M  V30 47 1 3 44
M  V30 48 1 4 45
M  V30 49 1 4 46
M  V30 50 1 7 47
M  V30 51 1 16 48
M  V30 52 1 18 49
M  V30 53 1 20 50
M  V30 54 1 21 51
M  V30 55 1 23 52 CFG=3
M  V30 56 1 24 53
M  V30 57 1 24 54
M  V30 58 1 25 55 CFG=1
M  V30 59 1 26 56
M  V30 60 1 26 57
M  V30 61 1 27 58 CFG=1
M  V30 62 1 29 59
M  V30 63 1 29 60
M  V30 64 1 29 61
M  V30 65 1 30 62 CFG=1
M  V30 66 1 31 63
M  V30 67 1 31 64
M  V30 68 1 31 65
M  V30 69 1 32 66
M  V30 70 1 32 67
M  V30 71 1 33 68
M  V30 72 1 34 69
M  V30 73 1 39 70
M  V30 END BOND
M  V30 END CTAB
M  END
>  <Dataset>  (54) 
ChEMBL_Kinases

>  <Ligand_Instance>  (54) 
nan

>  <PDB_ID>  (54) 
nan

>  <Standardized_SMILES>  (54) 
COCCOc1cc(F)c(-c2nc(C(=O)Nc3cnccc3[C@H]3C[C@@H](N)[C@@H](OC)[C@@H](C)C3)ccc2F)c(F)c1

>  <Name>  (54) 
nan

>  <Pocket>  (54) 
nan

>  <ATP_Site>  (54) 
nan

>  <Peripheral>  (54) 
nan

>  <Num_H_Atoms_ProtBoundConf>  (54) 
nan

>  <Num_Resolved_Atoms>  (54) 
nan

>  <Num_Not_Resolved_Atoms>  (54) 
nan

$$$$
CHEMBL252856
     RDKit          3D

  0  0  0  0  0  0  0  0  0  0999 V3000
M  V30 BEGIN CTAB
M  V30 COUNTS 70 75 0 0 0
M  V30 BEGIN ATOM
M  V30 1 C 3.805933 -1.103410 6.661261 0
M  V30 2 S 4.066077 0.647806 7.056262 0
M  V30 3 C 3.435869 1.702096 5.760904 0
M  V30 4 N 3.494510 3.045448 5.798875 0
M  V30 5 C 3.023331 3.848523 4.829122 0
M  V30 6 C 2.449899 3.190892 3.743103 0
M  V30 7 C 1.935421 3.912593 2.696783 0
M  V30 8 C 1.354704 3.308375 1.597651 0
M  V30 9 C 0.785203 3.976963 0.448613 0
M  V30 10 C -0.529360 4.066440 0.040563 0
M  V30 11 C -0.881059 4.749302 -1.104268 0
M  V30 12 C 0.056954 5.375569 -1.897353 0
M  V30 13 C 1.390458 5.291931 -1.494483 0
M  V30 14 C 1.728367 4.606497 -0.348594 0
M  V30 15 C 1.289020 1.929430 1.547529 0
M  V30 16 C 0.734808 1.061347 0.519522 0
M  V30 17 C -0.564498 0.727337 0.200653 0
M  V30 18 C -0.822238 -0.123215 -0.852400 0
M  V30 19 C 0.152219 -0.690341 -1.644961 0
M  V30 20 C -0.227838 -1.579995 -2.751906 0
M  V30 21 N -0.354226 -2.967137 -2.375451 0
M  V30 22 C 0.838864 -3.531797 -1.832274 0
M  V30 23 C 0.480970 -4.815624 -1.114167 0
M  V30 24 C -0.933643 -5.265223 -1.399474 0
M  V30 25 C -1.848864 -4.402232 -0.623324 0
M  V30 26 O -1.807504 -3.426286 0.176660 0
M  V30 27 N -3.200787 -4.784783 -0.841746 0
M  V30 28 C -4.325867 -4.130600 -0.222734 0
M  V30 29 C -4.750372 -4.625567 1.003484 0
M  V30 30 C -5.830171 -4.023105 1.630751 0
M  V30 31 N -6.447107 -2.974470 1.047013 0
M  V30 32 C -5.979649 -2.550513 -0.140716 0
M  V30 33 C -4.920420 -3.063943 -0.859902 0
M  V30 34 C -1.141071 -5.168786 -2.895005 0
M  V30 35 C -0.943427 -3.769752 -3.420156 0
M  V30 36 C 1.459250 -0.346949 -1.314350 0
M  V30 37 C 1.766075 0.512236 -0.253727 0
M  V30 38 N 1.798842 1.206918 2.584878 0
M  V30 39 C 2.364150 1.802887 3.654359 0
M  V30 40 N 2.868953 1.110913 4.683640 0
M  V30 41 H 3.641925 -1.650681 7.612847 0
M  V30 42 H 2.872565 -1.262705 6.074596 0
M  V30 43 H 4.671625 -1.570569 6.156965 0
M  V30 44 H 3.076198 4.926849 4.867811 0
M  V30 45 H 1.960898 5.010601 2.684285 0
M  V30 46 H -1.222215 3.567732 0.693833 0
M  V30 47 H -1.954626 4.735909 -1.294499 0
M  V30 48 H -0.323598 5.884545 -2.774654 0
M  V30 49 H 2.073910 5.803118 -2.159663 0
M  V30 50 H 2.805046 4.615947 -0.144058 0
M  V30 51 H -1.266545 1.200215 0.856713 0
M  V30 52 H -1.894638 -0.305133 -0.999642 0
M  V30 53 H 0.453412 -1.438231 -3.613281 0
M  V30 54 H -1.247708 -1.269810 -3.093897 0
M  V30 55 H 1.599093 -3.780021 -2.614429 0
M  V30 56 H 1.291293 -2.791399 -1.138184 0
M  V30 57 H 0.493829 -4.591093 -0.009884 0
M  V30 58 H 1.224691 -5.612099 -1.321480 0
M  V30 59 H -1.007444 -6.331411 -1.105342 0
M  V30 60 H -3.680859 -5.501289 -1.395441 0
M  V30 61 H -4.235921 -5.470820 1.447597 0
M  V30 62 H -6.109724 -4.464105 2.590427 0
M  V30 63 H -6.549884 -1.698317 -0.523856 0
M  V30 64 H -4.606318 -2.671159 -1.801401 0
M  V30 65 H -2.138380 -5.588186 -3.182176 0
M  V30 66 H -0.404394 -5.885528 -3.341826 0
M  V30 67 H -0.263664 -3.838014 -4.319600 0
M  V30 68 H -1.866961 -3.299127 -3.780820 0
M  V30 69 H 2.269768 -0.775088 -1.927428 0
M  V30 70 H 2.848619 0.685772 -0.119643 0
M  V30 END ATOM
M  V30 BEGIN BOND
M  V30 1 1 1 2
M  V30 2 1 2 3
M  V30 3 2 3 4
M  V30 4 1 4 5
M  V30 5 2 5 6
M  V30 6 1 6 7
M  V30 7 2 7 8
M  V30 8 1 8 9
M  V30 9 2 9 10
M  V30 10 1 10 11
M  V30 11 2 11 12
M  V30 12 1 12 13
M  V30 13 2 13 14
M  V30 14 1 8 15
M  V30 15 1 15 16
M  V30 16 2 16 17
M  V30 17 1 17 18
M  V30 18 2 18 19
M  V30 19 1 19 20
M  V30 20 1 20 21
M  V30 21 1 21 22
M  V30 22 1 22 23
M  V30 23 1 23 24
M  V30 24 1 24 25
M  V30 25 2 25 26
M  V30 26 1 25 27
M  V30 27 1 27 28
M  V30 28 2 28 29
M  V30 29 1 29 30
M  V30 30 2 30 31
M  V30 31 1 31 32
M  V30 32 2 32 33
M  V30 33 1 24 34
M  V30 34 1 34 35
M  V30 35 1 19 36
M  V30 36 2 36 37
M  V30 37 2 15 38
M  V30 38 1 38 39
M  V30 39 2 39 40
M  V30 40 1 40 3
M  V30 41 1 39 6
M  V30 42 1 14 9
M  V30 43 1 37 16
M  V30 44 1 35 21
M  V30 45 1 33 28
M  V30 46 1 1 41
M  V30 47 1 1 42
M  V30 48 1 1 43
M  V30 49 1 5 44
M  V30 50 1 7 45
M  V30 51 1 10 46
M  V30 52 1 11 47
M  V30 53 1 12 48
M  V30 54 1 13 49
M  V30 55 1 14 50
M  V30 56 1 17 51
M  V30 57 1 18 52
M  V30 58 1 20 53
M  V30 59 1 20 54
M  V30 60 1 22 55
M  V30 61 1 22 56
M  V30 62 1 23 57
M  V30 63 1 23 58
M  V30 64 1 24 59
M  V30 65 1 27 60
M  V30 66 1 29 61
M  V30 67 1 30 62
M  V30 68 1 32 63
M  V30 69 1 33 64
M  V30 70 1 34 65
M  V30 71 1 34 66
M  V30 72 1 35 67
M  V30 73 1 35 68
M  V30 74 1 36 69
M  V30 75 1 37 70
M  V30 END BOND
M  V30 END CTAB
M  END
>  <Dataset>  (55) 
ChEMBL_Kinases

>  <Ligand_Instance>  (55) 
nan

>  <PDB_ID>  (55) 
nan

>  <Standardized_SMILES>  (55) 
CSc1ncc2cc(-c3ccccc3)c(-c3ccc(CN4CCC(C(=O)Nc5ccncc5)CC4)cc3)nc2n1

>  <Name>  (55) 
nan

>  <Pocket>  (55) 
nan

>  <ATP_Site>  (55) 
nan

>  <Peripheral>  (55) 
nan

>  <Num_H_Atoms_ProtBoundConf>  (55) 
nan

>  <Num_Resolved_Atoms>  (55) 
nan

>  <Num_Not_Resolved_Atoms>  (55) 
nan

$$$$
CHEMBL3687502
     RDKit          3D

  0  0  0  0  0  0  0  0  0  0999 V3000
M  V30 BEGIN CTAB
M  V30 COUNTS 59 62 0 0 0
M  V30 BEGIN ATOM
M  V30 1 C 5.692368 -0.325197 -1.056476 0
M  V30 2 O 4.642534 -0.833962 -0.268519 0
M  V30 3 C 3.585797 0.106342 -0.270491 0 CFG=2
M  V30 4 C 3.380654 0.511490 1.141771 0 CFG=2
M  V30 5 N 3.811866 -0.474609 2.107141 0
M  V30 6 C 1.963416 0.964951 1.386576 0
M  V30 7 C 1.360047 1.340221 0.047884 0 CFG=2
M  V30 8 C 0.326181 2.355423 0.144310 0
M  V30 9 C 0.668941 3.715542 0.078946 0
M  V30 10 C -0.208405 4.772307 0.174205 0
M  V30 11 N -1.519484 4.532227 0.345514 0
M  V30 12 C -1.927432 3.253501 0.417623 0
M  V30 13 C -1.031719 2.209762 0.319421 0
M  V30 14 N -1.588128 0.906986 0.418616 0
M  V30 15 C -2.146103 0.218308 -0.726609 0
M  V30 16 O -2.095473 0.881281 -1.821507 0
M  V30 17 C -2.712747 -1.114620 -0.625614 0
M  V30 18 C -3.210647 -1.657730 -1.792871 0
M  V30 19 C -3.776147 -2.933199 -1.807819 0
M  V30 20 C -3.861858 -3.699597 -0.669567 0
M  V30 21 F -4.402753 -4.942716 -0.638941 0
M  V30 22 C -3.347426 -3.103896 0.467714 0
M  V30 23 C -3.379054 -3.817238 1.741098 0
M  V30 24 C -4.446342 -3.697671 2.585457 0
M  V30 25 F -5.522068 -2.916523 2.286172 0
M  V30 26 C -4.449274 -4.386936 3.788003 0
M  V30 27 C -3.385912 -5.196086 4.148129 0
M  V30 28 C -2.301028 -5.321547 3.296784 0
M  V30 29 C -2.306718 -4.626937 2.093319 0
M  V30 30 F -1.249386 -4.752366 1.267532 0
M  V30 31 N -2.803881 -1.872543 0.471367 0
M  V30 32 C 1.090518 0.096161 -0.697894 0
M  V30 33 C 2.447335 -0.559177 -0.955231 0 CFG=2
M  V30 34 C 2.458894 -2.015846 -0.557741 0
M  V30 35 H 5.345166 -0.153155 -2.116705 0
M  V30 36 H 5.954539 0.689717 -0.681883 0
M  V30 37 H 6.534645 -1.029387 -1.095346 0
M  V30 38 H 3.986147 0.942803 -0.919110 0
M  V30 39 H 4.016132 1.431670 1.305318 0
M  V30 40 H 3.872745 0.016880 3.019380 0
M  V30 41 H 4.705094 -0.885384 1.790336 0
M  V30 42 H 1.432670 0.138833 1.891907 0
M  V30 43 H 1.913659 1.869483 2.036279 0
M  V30 44 H 2.219856 1.829440 -0.508814 0
M  V30 45 H 1.729730 3.980665 -0.060602 0
M  V30 46 H 0.161490 5.785706 0.110983 0
M  V30 47 H -2.984773 3.075581 0.555607 0
M  V30 48 H -1.627530 0.365817 1.330092 0
M  V30 49 H -3.180407 -1.115494 -2.735988 0
M  V30 50 H -4.165151 -3.341013 -2.753517 0
M  V30 51 H -5.248636 -4.348908 4.510255 0
M  V30 52 H -3.388185 -5.739409 5.096623 0
M  V30 53 H -1.496381 -5.964538 3.621986 0
M  V30 54 H 0.574644 0.289554 -1.657530 0
M  V30 55 H 0.500264 -0.662816 -0.151491 0
M  V30 56 H 2.629498 -0.524539 -2.034368 0
M  V30 57 H 1.449355 -2.445484 -0.480396 0
M  V30 58 H 2.972576 -2.200788 0.409586 0
M  V30 59 H 3.005155 -2.636278 -1.311355 0
M  V30 END ATOM
M  V30 BEGIN BOND
M  V30 1 1 1 2
M  V30 2 1 2 3
M  V30 3 1 3 4
M  V30 4 1 4 5
M  V30 5 1 4 6
M  V30 6 1 6 7
M  V30 7 1 7 8
M  V30 8 2 8 9
M  V30 9 1 9 10
M  V30 10 2 10 11
M  V30 11 1 11 12
M  V30 12 2 12 13
M  V30 13 1 13 14
M  V30 14 1 14 15
M  V30 15 2 15 16
M  V30 16 1 15 17
M  V30 17 2 17 18
M  V30 18 1 18 19
M  V30 19 2 19 20
M  V30 20 1 20 21
M  V30 21 1 20 22
M  V30 22 1 22 23
M  V30 23 2 23 24
M  V30 24 1 24 25
M  V30 25 1 24 26
M  V30 26 2 26 27
M  V30 27 1 27 28
M  V30 28 2 28 29
M  V30 29 1 29 30
M  V30 30 2 22 31
M  V30 31 1 7 32
M  V30 32 1 32 33
M  V30 33 1 33 34
M  V30 34 1 33 3
M  V30 35 1 13 8
M  V30 36 1 31 17
M  V30 37 1 29 23
M  V30 38 1 1 35
M  V30 39 1 1 36
M  V30 40 1 1 37
M  V30 41 1 3 38 CFG=3
M  V30 42 1 4 39 CFG=1
M  V30 43 1 5 40
M  V30 44 1 5 41
M  V30 45 1 6 42
M  V30 46 1 6 43
M  V30 47 1 7 44 CFG=3
M  V30 48 1 9 45
M  V30 49 1 10 46
M  V30 50 1 12 47
M  V30 51 1 14 48
M  V30 52 1 18 49
M  V30 53 1 19 50
M  V30 54 1 26 51
M  V30 55 1 27 52
M  V30 56 1 28 53
M  V30 57 1 32 54
M  V30 58 1 32 55
M  V30 59 1 33 56 CFG=3
M  V30 60 1 34 57
M  V30 61 1 34 58
M  V30 62 1 34 59
M  V30 END BOND
M  V30 END CTAB
M  END
>  <Dataset>  (56) 
ChEMBL_Kinases

>  <Ligand_Instance>  (56) 
nan

>  <PDB_ID>  (56) 
nan

>  <Standardized_SMILES>  (56) 
CO[C@@H]1[C@H](N)C[C@H](c2ccncc2NC(=O)c2ccc(F)c(-c3c(F)cccc3F)n2)C[C@@H]1C

>  <Name>  (56) 
nan

>  <Pocket>  (56) 
nan

>  <ATP_Site>  (56) 
nan

>  <Peripheral>  (56) 
nan

>  <Num_H_Atoms_ProtBoundConf>  (56) 
nan

>  <Num_Resolved_Atoms>  (56) 
nan

>  <Num_Not_Resolved_Atoms>  (56) 
nan

$$$$
CHEMBL252857
     RDKit          3D

  0  0  0  0  0  0  0  0  0  0999 V3000
M  V30 BEGIN CTAB
M  V30 COUNTS 73 79 0 0 0
M  V30 BEGIN ATOM
M  V30 1 C 2.474353 -1.234388 6.822480 0
M  V30 2 N 3.201796 -1.539304 5.588850 0
M  V30 3 C 3.513646 -0.945326 4.334588 0
M  V30 4 N 4.611688 -0.197966 4.132688 0
M  V30 5 C 4.845079 0.337697 2.907297 0
M  V30 6 C 3.928414 0.085726 1.908387 0
M  V30 7 C 4.207850 0.656171 0.660580 0
M  V30 8 C 3.287297 0.403241 -0.345864 0
M  V30 9 C 3.497167 0.958913 -1.678266 0
M  V30 10 C 3.689403 0.331795 -2.893982 0
M  V30 11 C 3.866440 1.101266 -4.023419 0
M  V30 12 C 3.859278 2.478076 -3.988077 0
M  V30 13 C 3.666423 3.121854 -2.768296 0
M  V30 14 C 3.487905 2.347967 -1.629737 0
M  V30 15 C 2.153525 -0.362094 -0.157091 0
M  V30 16 C 1.183237 -0.633281 -1.212368 0
M  V30 17 C 0.401915 0.257035 -1.918468 0
M  V30 18 C -0.454365 -0.233723 -2.879937 0
M  V30 19 C -0.590504 -1.568849 -3.193188 0
M  V30 20 C -1.523282 -2.066377 -4.236416 0
M  V30 21 N -2.798183 -2.341954 -3.665124 0
M  V30 22 C -3.480157 -1.256806 -3.055917 0
M  V30 23 C -4.652508 -1.749261 -2.251638 0
M  V30 24 C -4.210185 -2.667350 -1.121209 0
M  V30 25 C -3.741047 -1.868893 0.044773 0
M  V30 26 N -2.596097 -1.132734 -0.064177 0
M  V30 27 N -2.395134 -0.520583 1.090592 0
M  V30 28 C -3.364302 -0.826213 1.954465 0
M  V30 29 C -3.495164 -0.350610 3.326143 0
M  V30 30 C -2.519506 0.520862 3.823915 0
M  V30 31 C -2.692975 0.941298 5.133009 0
M  V30 32 C -3.728506 0.565503 5.938471 0
M  V30 33 C -4.649178 -0.295484 5.375055 0
M  V30 34 N -4.546828 -0.753436 4.092927 0
M  V30 35 N -4.185028 -1.658548 1.292070 0
M  V30 36 C -3.144871 -3.587042 -1.614076 0
M  V30 37 C -2.992454 -3.632309 -3.109611 0
M  V30 38 C 0.215172 -2.444493 -2.459676 0
M  V30 39 C 1.093509 -1.993368 -1.480374 0
M  V30 40 N 1.925998 -0.896527 1.079440 0
M  V30 41 C 2.794550 -0.680368 2.099456 0
M  V30 42 N 2.638531 -1.173218 3.341791 0
M  V30 43 H 3.136019 -1.254493 7.697877 0
M  V30 44 H 1.933022 -0.286821 6.784700 0
M  V30 45 H 1.690253 -2.025660 7.003866 0
M  V30 46 H 3.614050 -2.495272 5.673582 0
M  V30 47 H 5.733986 0.936015 2.766207 0
M  V30 48 H 5.099689 1.265716 0.488253 0
M  V30 49 H 3.675389 -0.742020 -2.797254 0
M  V30 50 H 4.013142 0.531820 -4.948119 0
M  V30 51 H 4.003808 3.041134 -4.908948 0
M  V30 52 H 3.671189 4.198872 -2.802269 0
M  V30 53 H 3.347732 2.983456 -0.746282 0
M  V30 54 H 0.541475 1.270980 -1.642385 0
M  V30 55 H -1.028022 0.502886 -3.390110 0
M  V30 56 H -1.641323 -1.210500 -4.956511 0
M  V30 57 H -1.120592 -2.943491 -4.770409 0
M  V30 58 H -3.924504 -0.610196 -3.868033 0
M  V30 59 H -2.858610 -0.649907 -2.369019 0
M  V30 60 H -5.299396 -2.347500 -2.917416 0
M  V30 61 H -5.167263 -0.888925 -1.779603 0
M  V30 62 H -5.158683 -3.204261 -0.821915 0
M  V30 63 H -1.697276 0.819357 3.185060 0
M  V30 64 H -1.929450 1.612537 5.496113 0
M  V30 65 H -3.835594 0.914584 6.962705 0
M  V30 66 H -5.515460 -0.656760 5.935566 0
M  V30 67 H -5.046005 -2.110784 1.620721 0
M  V30 68 H -2.205242 -3.300328 -1.134568 0
M  V30 69 H -3.342917 -4.652498 -1.304535 0
M  V30 70 H -2.117393 -4.253012 -3.392721 0
M  V30 71 H -3.865914 -4.162300 -3.589611 0
M  V30 72 H 0.097080 -3.488166 -2.717320 0
M  V30 73 H 1.654644 -2.796992 -0.994563 0
M  V30 END ATOM
M  V30 BEGIN BOND
M  V30 1 1 1 2
M  V30 2 1 2 3
M  V30 3 2 3 4
M  V30 4 1 4 5
M  V30 5 2 5 6
M  V30 6 1 6 7
M  V30 7 2 7 8
M  V30 8 1 8 9
M  V30 9 2 9 10
M  V30 10 1 10 11
M  V30 11 2 11 12
M  V30 12 1 12 13
M  V30 13 2 13 14
M  V30 14 1 8 15
M  V30 15 1 15 16
M  V30 16 2 16 17
M  V30 17 1 17 18
M  V30 18 2 18 19
M  V30 19 1 19 20
M  V30 20 1 20 21
M  V30 21 1 21 22
M  V30 22 1 22 23
M  V30 23 1 23 24
M  V30 24 1 24 25
M  V30 25 2 25 26
M  V30 26 1 26 27
M  V30 27 2 27 28
M  V30 28 1 28 29
M  V30 29 2 29 30
M  V30 30 1 30 31
M  V30 31 2 31 32
M  V30 32 1 32 33
M  V30 33 2 33 34
M  V30 34 1 28 35
M  V30 35 1 24 36
M  V30 36 1 36 37
M  V30 37 1 19 38
M  V30 38 2 38 39
M  V30 39 2 15 40
M  V30 40 1 40 41
M  V30 41 2 41 42
M  V30 42 1 42 3
M  V30 43 1 41 6
M  V30 44 1 14 9
M  V30 45 1 39 16
M  V30 46 1 37 21
M  V30 47 1 35 25
M  V30 48 1 34 29
M  V30 49 1 1 43
M  V30 50 1 1 44
M  V30 51 1 1 45
M  V30 52 1 2 46
M  V30 53 1 5 47
M  V30 54 1 7 48
M  V30 55 1 10 49
M  V30 56 1 11 50
M  V30 57 1 12 51
M  V30 58 1 13 52
M  V30 59 1 14 53
M  V30 60 1 17 54
M  V30 61 1 18 55
M  V30 62 1 20 56
M  V30 63 1 20 57
M  V30 64 1 22 58
M  V30 65 1 22 59
M  V30 66 1 23 60
M  V30 67 1 23 61
M  V30 68 1 24 62
M  V30 69 1 30 63
M  V30 70 1 31 64
M  V30 71 1 32 65
M  V30 72 1 33 66
M  V30 73 1 35 67
M  V30 74 1 36 68
M  V30 75 1 36 69
M  V30 76 1 37 70
M  V30 77 1 37 71
M  V30 78 1 38 72
M  V30 79 1 39 73
M  V30 END BOND
M  V30 END CTAB
M  END
>  <Dataset>  (57) 
ChEMBL_Kinases

>  <Ligand_Instance>  (57) 
nan

>  <PDB_ID>  (57) 
nan

>  <Standardized_SMILES>  (57) 
CNc1ncc2cc(-c3ccccc3)c(-c3ccc(CN4CCC(c5nnc(-c6ccccn6)[nH]5)CC4)cc3)nc2n1

>  <Name>  (57) 
nan

>  <Pocket>  (57) 
nan

>  <ATP_Site>  (57) 
nan

>  <Peripheral>  (57) 
nan

>  <Num_H_Atoms_ProtBoundConf>  (57) 
nan

>  <Num_Resolved_Atoms>  (57) 
nan

>  <Num_Not_Resolved_Atoms>  (57) 
nan

$$$$
CHEMBL3687501
     RDKit          3D

  0  0  0  0  0  0  0  0  0  0999 V3000
M  V30 BEGIN CTAB
M  V30 COUNTS 65 68 0 0 0
M  V30 BEGIN ATOM
M  V30 1 C 3.426582 0.711054 4.315188 0
M  V30 2 C 3.562489 1.790522 3.270530 0
M  V30 3 O 2.516120 1.726662 2.399140 0
M  V30 4 C 1.259081 1.910285 2.905325 0 CFG=2
M  V30 5 C 0.321904 0.740391 2.584194 0 CFG=2
M  V30 6 N 0.418852 -0.340453 3.510311 0
M  V30 7 C 0.700833 0.383601 1.160564 0
M  V30 8 C 0.147552 1.461663 0.297657 0 CFG=2
M  V30 9 C 0.832311 1.619787 -1.004023 0
M  V30 10 C 1.931105 2.445634 -1.220420 0
M  V30 11 C 2.539371 2.569293 -2.428643 0
M  V30 12 N 2.109879 1.891957 -3.500962 0
M  V30 13 C 1.037998 1.053946 -3.395466 0
M  V30 14 C 0.430094 0.937878 -2.163477 0
M  V30 15 N -0.699897 0.070152 -2.001821 0
M  V30 16 C -2.111820 0.289117 -2.137093 0
M  V30 17 O -2.574071 1.415519 -2.454084 0
M  V30 18 C -2.934575 -0.888353 -1.878503 0
M  V30 19 C -4.277654 -0.739415 -1.990272 0
M  V30 20 C -5.139676 -1.796147 -1.764743 0
M  V30 21 C -4.656990 -3.045508 -1.416088 0
M  V30 22 F -5.382212 -4.157334 -1.168924 0
M  V30 23 C -3.281932 -3.153754 -1.313070 0
M  V30 24 C -2.552444 -4.390475 -0.954364 0
M  V30 25 C -2.113206 -5.321688 -1.887650 0
M  V30 26 F -2.365745 -5.083388 -3.179865 0
M  V30 27 C -1.437260 -6.443001 -1.406322 0
M  V30 28 C -1.202791 -6.639601 -0.056035 0
M  V30 29 C -0.478000 -7.845858 0.433532 0
M  V30 30 C -1.659017 -5.682393 0.851807 0
M  V30 31 C -2.329590 -4.566946 0.392892 0
M  V30 32 F -2.726660 -3.705013 1.360968 0
M  V30 33 N -2.452420 -2.117736 -1.535036 0
M  V30 34 C -0.116152 2.771605 0.953689 0
M  V30 35 C 0.592441 3.098944 2.202358 0 CFG=2
M  V30 36 C 1.579742 4.257091 2.090352 0
M  V30 37 H 4.409483 0.508521 4.818824 0
M  V30 38 H 3.184571 -0.261701 3.820050 0
M  V30 39 H 2.651316 0.991396 5.032089 0
M  V30 40 H 3.637650 2.807890 3.750854 0
M  V30 41 H 4.509685 1.559260 2.718208 0
M  V30 42 H 1.325489 2.088362 3.990246 0
M  V30 43 H -0.734200 1.142233 2.582815 0
M  V30 44 H 0.504311 0.068370 4.478025 0
M  V30 45 H -0.534724 -0.811342 3.537282 0
M  V30 46 H 1.799805 0.308518 1.161878 0
M  V30 47 H 0.326130 -0.627965 0.940417 0
M  V30 48 H -0.873781 1.049951 0.012390 0
M  V30 49 H 2.315161 3.005183 -0.409835 0
M  V30 50 H 3.395883 3.210911 -2.604594 0
M  V30 51 H 0.621616 0.463463 -4.219311 0
M  V30 52 H -0.271801 -0.847239 -1.740606 0
M  V30 53 H -4.728253 0.197868 -2.256631 0
M  V30 54 H -6.223831 -1.718147 -1.844009 0
M  V30 55 H -1.092714 -7.171047 -2.123145 0
M  V30 56 H 0.312766 -8.187301 -0.281014 0
M  V30 57 H -1.136424 -8.710864 0.610064 0
M  V30 58 H 0.084103 -7.631801 1.378755 0
M  V30 59 H -1.442300 -5.895957 1.904376 0
M  V30 60 H -1.225777 2.975247 1.074392 0
M  V30 61 H 0.174255 3.570545 0.201150 0
M  V30 62 H -0.146602 3.453258 2.964049 0
M  V30 63 H 1.258349 4.986655 1.339303 0
M  V30 64 H 2.597619 3.835372 1.849887 0
M  V30 65 H 1.706914 4.804516 3.047236 0
M  V30 END ATOM
M  V30 BEGIN BOND
M  V30 1 1 1 2
M  V30 2 1 2 3
M  V30 3 1 3 4
M  V30 4 1 4 5
M  V30 5 1 5 6
M  V30 6 1 5 7
M  V30 7 1 7 8
M  V30 8 1 8 9
M  V30 9 2 9 10
M  V30 10 1 10 11
M  V30 11 2 11 12
M  V30 12 1 12 13
M  V30 13 2 13 14
M  V30 14 1 14 15
M  V30 15 1 15 16
M  V30 16 2 16 17
M  V30 17 1 16 18
M  V30 18 2 18 19
M  V30 19 1 19 20
M  V30 20 2 20 21
M  V30 21 1 21 22
M  V30 22 1 21 23
M  V30 23 1 23 24
M  V30 24 2 24 25
M  V30 25 1 25 26
M  V30 26 1 25 27
M  V30 27 2 27 28
M  V30 28 1 28 29
M  V30 29 1 28 30
M  V30 30 2 30 31
M  V30 31 1 31 32
M  V30 32 2 23 33
M  V30 33 1 8 34
M  V30 34 1 34 35
M  V30 35 1 35 36
M  V30 36 1 35 4
M  V30 37 1 14 9
M  V30 38 1 33 18
M  V30 39 1 31 24
M  V30 40 1 1 37
M  V30 41 1 1 38
M  V30 42 1 1 39
M  V30 43 1 2 40
M  V30 44 1 2 41
M  V30 45 1 4 42 CFG=1
M  V30 46 1 5 43 CFG=3
M  V30 47 1 6 44
M  V30 48 1 6 45
M  V30 49 1 7 46
M  V30 50 1 7 47
M  V30 51 1 8 48 CFG=3
M  V30 52 1 10 49
M  V30 53 1 11 50
M  V30 54 1 13 51
M  V30 55 1 15 52
M  V30 56 1 19 53
M  V30 57 1 20 54
M  V30 58 1 27 55
M  V30 59 1 29 56
M  V30 60 1 29 57
M  V30 61 1 29 58
M  V30 62 1 30 59
M  V30 63 1 34 60
M  V30 64 1 34 61
M  V30 65 1 35 62 CFG=1
M  V30 66 1 36 63
M  V30 67 1 36 64
M  V30 68 1 36 65
M  V30 END BOND
M  V30 END CTAB
M  END
>  <Dataset>  (58) 
ChEMBL_Kinases

>  <Ligand_Instance>  (58) 
nan

>  <PDB_ID>  (58) 
nan

>  <Standardized_SMILES>  (58) 
CCO[C@@H]1[C@H](N)C[C@H](c2ccncc2NC(=O)c2ccc(F)c(-c3c(F)cc(C)cc3F)n2)C[C@@H]1C

>  <Name>  (58) 
nan

>  <Pocket>  (58) 
nan

>  <ATP_Site>  (58) 
nan

>  <Peripheral>  (58) 
nan

>  <Num_H_Atoms_ProtBoundConf>  (58) 
nan

>  <Num_Resolved_Atoms>  (58) 
nan

>  <Num_Not_Resolved_Atoms>  (58) 
nan

$$$$
CHEMBL253457
     RDKit          3D

  0  0  0  0  0  0  0  0  0  0999 V3000
M  V30 BEGIN CTAB
M  V30 COUNTS 68 74 0 0 0
M  V30 BEGIN ATOM
M  V30 1 N 7.460169 0.284953 4.037904 0
M  V30 2 C 6.361510 -0.593613 4.045311 0
M  V30 3 N 6.411395 -1.798326 4.672011 0
M  V30 4 C 5.347567 -2.629932 4.668594 0
M  V30 5 N 4.190290 -2.322082 4.054059 0
M  V30 6 C 4.100651 -1.121879 3.413862 0
M  V30 7 N 2.961345 -0.742401 2.770818 0
M  V30 8 C 2.903226 0.465974 2.139521 0
M  V30 9 C 1.601680 0.719250 1.496990 0
M  V30 10 C 1.640922 0.880838 0.119593 0
M  V30 11 C 0.417626 1.116044 -0.472527 0
M  V30 12 C -0.823966 1.204298 0.168609 0
M  V30 13 C -2.028432 1.462886 -0.635031 0
M  V30 14 N -2.662718 0.261972 -1.115983 0
M  V30 15 C -1.833312 -0.537758 -1.953167 0
M  V30 16 C -2.670206 -1.723984 -2.452566 0
M  V30 17 C -2.800902 -2.653697 -1.262058 0
M  V30 18 C -3.982237 -3.541354 -1.406801 0
M  V30 19 N -5.276648 -3.176493 -1.401006 0
M  V30 20 C -6.086821 -4.245974 -1.558884 0
M  V30 21 C -7.439771 -4.499776 -1.632035 0
M  V30 22 C -7.916450 -5.801262 -1.808932 0
M  V30 23 C -7.040462 -6.855962 -1.913594 0
M  V30 24 F -7.496735 -8.120871 -2.085654 0
M  V30 25 C -5.682465 -6.625158 -1.843125 0
M  V30 26 C -5.236387 -5.332855 -1.668268 0
M  V30 27 N -3.979133 -4.896404 -1.575440 0
M  V30 28 C -2.805686 -1.886406 0.037029 0
M  V30 29 C -3.364442 -0.494380 -0.133317 0
M  V30 30 C -0.765385 1.030735 1.537047 0
M  V30 31 C 0.415509 0.791335 2.211103 0
M  V30 32 C 3.985349 1.333590 2.132149 0
M  V30 33 C 3.739500 2.576400 1.408015 0
M  V30 34 C 4.568455 2.802094 0.313579 0
M  V30 35 C 4.430277 3.952877 -0.456224 0
M  V30 36 C 3.431936 4.808192 -0.041107 0
M  V30 37 C 2.570775 4.661984 1.025174 0
M  V30 38 C 2.766242 3.494657 1.744961 0
M  V30 39 C 5.147970 0.964188 2.779341 0
M  V30 40 C 5.184891 -0.257064 3.408670 0
M  V30 41 H 8.217205 0.532997 3.359537 0
M  V30 42 H 7.663307 0.894879 4.878680 0
M  V30 43 H 5.299283 -3.601023 5.138544 0
M  V30 44 H 2.524702 0.833466 -0.464681 0
M  V30 45 H 0.425134 1.246008 -1.552604 0
M  V30 46 H -1.749195 2.074462 -1.510185 0
M  V30 47 H -2.763933 2.014911 -0.045095 0
M  V30 48 H -0.952413 -0.992551 -1.448015 0
M  V30 49 H -1.511726 -0.009267 -2.869047 0
M  V30 50 H -2.184690 -2.204361 -3.327638 0
M  V30 51 H -3.675917 -1.308868 -2.665719 0
M  V30 52 H -1.897857 -3.291462 -1.285088 0
M  V30 53 H -8.081054 -3.633106 -1.543823 0
M  V30 54 H -8.982997 -5.959305 -1.861258 0
M  V30 55 H -5.001646 -7.475477 -1.928278 0
M  V30 56 H -3.081906 -5.427966 -1.614205 0
M  V30 57 H -3.490722 -2.437859 0.722688 0
M  V30 58 H -1.803798 -1.882494 0.462505 0
M  V30 59 H -4.413633 -0.630268 -0.529303 0
M  V30 60 H -3.449173 -0.024241 0.860140 0
M  V30 61 H -1.702962 1.091964 2.067167 0
M  V30 62 H 0.433313 0.659119 3.284533 0
M  V30 63 H 5.357420 2.118529 -0.008353 0
M  V30 64 H 5.033984 4.199017 -1.318706 0
M  V30 65 H 3.309089 5.724036 -0.639491 0
M  V30 66 H 1.828613 5.381018 1.267178 0
M  V30 67 H 2.138861 3.288761 2.601086 0
M  V30 68 H 5.950362 1.683583 2.735573 0
M  V30 END ATOM
M  V30 BEGIN BOND
M  V30 1 1 1 2
M  V30 2 2 2 3
M  V30 3 1 3 4
M  V30 4 2 4 5
M  V30 5 1 5 6
M  V30 6 2 6 7
M  V30 7 1 7 8
M  V30 8 1 8 9
M  V30 9 2 9 10
M  V30 10 1 10 11
M  V30 11 2 11 12
M  V30 12 1 12 13
M  V30 13 1 13 14
M  V30 14 1 14 15
M  V30 15 1 15 16
M  V30 16 1 16 17
M  V30 17 1 17 18
M  V30 18 2 18 19
M  V30 19 1 19 20
M  V30 20 2 20 21
M  V30 21 1 21 22
M  V30 22 2 22 23
M  V30 23 1 23 24
M  V30 24 1 23 25
M  V30 25 2 25 26
M  V30 26 1 26 27
M  V30 27 1 17 28
M  V30 28 1 28 29
M  V30 29 1 12 30
M  V30 30 2 30 31
M  V30 31 2 8 32
M  V30 32 1 32 33
M  V30 33 2 33 34
M  V30 34 1 34 35
M  V30 35 2 35 36
M  V30 36 1 36 37
M  V30 37 2 37 38
M  V30 38 1 32 39
M  V30 39 2 39 40
M  V30 40 1 40 2
M  V30 41 1 40 6
M  V30 42 1 31 9
M  V30 43 1 38 33
M  V30 44 1 29 14
M  V30 45 1 27 18
M  V30 46 1 26 20
M  V30 47 1 1 41
M  V30 48 1 1 42
M  V30 49 1 4 43
M  V30 50 1 10 44
M  V30 51 1 11 45
M  V30 52 1 13 46
M  V30 53 1 13 47
M  V30 54 1 15 48
M  V30 55 1 15 49
M  V30 56 1 16 50
M  V30 57 1 16 51
M  V30 58 1 17 52
M  V30 59 1 21 53
M  V30 60 1 22 54
M  V30 61 1 25 55
M  V30 62 1 27 56
M  V30 63 1 28 57
M  V30 64 1 28 58
M  V30 65 1 29 59
M  V30 66 1 29 60
M  V30 67 1 30 61
M  V30 68 1 31 62
M  V30 69 1 34 63
M  V30 70 1 35 64
M  V30 71 1 36 65
M  V30 72 1 37 66
M  V30 73 1 38 67
M  V30 74 1 39 68
M  V30 END BOND
M  V30 END CTAB
M  END
>  <Dataset>  (59) 
ChEMBL_Kinases

>  <Ligand_Instance>  (59) 
nan

>  <PDB_ID>  (59) 
nan

>  <Standardized_SMILES>  (59) 
Nc1ncnc2nc(-c3ccc(CN4CCC(c5nc6ccc(F)cc6[nH]5)CC4)cc3)c(-c3ccccc3)cc12

>  <Name>  (59) 
nan

>  <Pocket>  (59) 
nan

>  <ATP_Site>  (59) 
nan

>  <Peripheral>  (59) 
nan

>  <Num_H_Atoms_ProtBoundConf>  (59) 
nan

>  <Num_Resolved_Atoms>  (59) 
nan

>  <Num_Not_Resolved_Atoms>  (59) 
nan

$$$$
CHEMBL253458
     RDKit          3D

  0  0  0  0  0  0  0  0  0  0999 V3000
M  V30 BEGIN CTAB
M  V30 COUNTS 68 74 0 0 0
M  V30 BEGIN ATOM
M  V30 1 N 7.139375 -1.105326 3.355769 0
M  V30 2 C 5.919707 -1.771672 3.060574 0
M  V30 3 N 5.967041 -3.097206 3.273291 0
M  V30 4 C 4.853895 -3.849284 3.024938 0
M  V30 5 N 3.718055 -3.251128 2.568136 0
M  V30 6 C 3.647347 -1.927410 2.348234 0
M  V30 7 N 2.561717 -1.286797 1.902080 0
M  V30 8 C 2.514172 0.047983 1.688813 0
M  V30 9 C 1.228045 0.527195 1.203973 0
M  V30 10 C 0.804730 1.063763 0.007210 0
M  V30 11 C -0.506592 1.443161 -0.172009 0
M  V30 12 C -1.469006 1.316801 0.808529 0
M  V30 13 C -2.837604 1.747327 0.523175 0
M  V30 14 N -3.714770 0.773673 -0.019982 0
M  V30 15 C -3.345764 0.190841 -1.266085 0
M  V30 16 C -2.723059 -1.165710 -1.078880 0
M  V30 17 C -3.740435 -2.081032 -0.432284 0
M  V30 18 N -4.244617 -3.057251 -1.403829 0
M  V30 19 N -5.458216 -3.216608 -1.871553 0
M  V30 20 C -5.525476 -4.228380 -2.755558 0
M  V30 21 C -4.251641 -4.708150 -2.818065 0
M  V30 22 C -3.598990 -5.711194 -3.497337 0
M  V30 23 N -4.304493 -6.541349 -4.398710 0
M  V30 24 N -2.270749 -5.995949 -3.377746 0
M  V30 25 C -1.504793 -5.257748 -2.537149 0
M  V30 26 N -2.132496 -4.280045 -1.872544 0
M  V30 27 C -3.432228 -3.990929 -1.980718 0
M  V30 28 C -4.890119 -1.297352 0.126389 0
M  V30 29 C -4.386378 -0.081387 0.899116 0
M  V30 30 C -1.050789 0.774992 2.022390 0
M  V30 31 C 0.278099 0.382744 2.225848 0
M  V30 32 C 3.651833 0.781355 1.947762 0
M  V30 33 C 3.599339 2.217416 1.716584 0
M  V30 34 C 3.572910 2.969783 0.561429 0
M  V30 35 C 3.513041 4.345125 0.627601 0
M  V30 36 C 3.478642 4.998633 1.837553 0
M  V30 37 C 3.504027 4.274838 3.008659 0
M  V30 38 C 3.563938 2.894747 2.942610 0
M  V30 39 C 4.801524 0.175066 2.409365 0
M  V30 40 C 4.773802 -1.188478 2.602904 0
M  V30 41 H 7.435110 -0.107487 3.300948 0
M  V30 42 H 7.395679 -0.091035 3.285587 0
M  V30 43 H 4.885327 -4.927175 3.195602 0
M  V30 44 H 1.625132 1.115869 -0.690317 0
M  V30 45 H -0.668355 1.844004 -1.162674 0
M  V30 46 H -2.787789 2.600068 -0.187853 0
M  V30 47 H -3.289458 2.151750 1.450220 0
M  V30 48 H -2.752712 0.891236 -1.851898 0
M  V30 49 H -4.313529 0.010632 -1.823288 0
M  V30 50 H -2.468445 -1.590199 -2.071618 0
M  V30 51 H -1.845278 -1.111657 -0.414919 0
M  V30 52 H -3.264676 -2.654512 0.403954 0
M  V30 53 H -6.343728 -4.628569 -3.321265 0
M  V30 54 H -4.566200 -5.938110 -5.212106 0
M  V30 55 H -4.809327 -7.196748 -5.011320 0
M  V30 56 H -0.454353 -5.318391 -2.302141 0
M  V30 57 H -5.629263 -0.995621 -0.632873 0
M  V30 58 H -5.451768 -1.973085 0.830257 0
M  V30 59 H -5.304954 0.409466 1.282971 0
M  V30 60 H -3.783396 -0.455122 1.740777 0
M  V30 61 H -1.822151 0.689215 2.766575 0
M  V30 62 H 0.419710 -0.020206 3.238109 0
M  V30 63 H 3.610621 2.339838 -0.310546 0
M  V30 64 H 3.499580 4.771475 -0.386527 0
M  V30 65 H 3.431476 6.092568 1.739540 0
M  V30 66 H 3.474728 4.848172 3.925605 0
M  V30 67 H 3.578344 2.453259 3.939414 0
M  V30 68 H 5.679430 0.774443 2.604071 0
M  V30 END ATOM
M  V30 BEGIN BOND
M  V30 1 1 1 2
M  V30 2 2 2 3
M  V30 3 1 3 4
M  V30 4 2 4 5
M  V30 5 1 5 6
M  V30 6 2 6 7
M  V30 7 1 7 8
M  V30 8 1 8 9
M  V30 9 2 9 10
M  V30 10 1 10 11
M  V30 11 2 11 12
M  V30 12 1 12 13
M  V30 13 1 13 14
M  V30 14 1 14 15
M  V30 15 1 15 16
M  V30 16 1 16 17
M  V30 17 1 17 18
M  V30 18 1 18 19
M  V30 19 2 19 20
M  V30 20 1 20 21
M  V30 21 2 21 22
M  V30 22 1 22 23
M  V30 23 1 22 24
M  V30 24 2 24 25
M  V30 25 1 25 26
M  V30 26 2 26 27
M  V30 27 1 17 28
M  V30 28 1 28 29
M  V30 29 1 12 30
M  V30 30 2 30 31
M  V30 31 2 8 32
M  V30 32 1 32 33
M  V30 33 2 33 34
M  V30 34 1 34 35
M  V30 35 2 35 36
M  V30 36 1 36 37
M  V30 37 2 37 38
M  V30 38 1 32 39
M  V30 39 2 39 40
M  V30 40 1 40 2
M  V30 41 1 40 6
M  V30 42 1 31 9
M  V30 43 1 38 33
M  V30 44 1 29 14
M  V30 45 1 27 18
M  V30 46 1 27 21
M  V30 47 1 1 41
M  V30 48 1 1 42
M  V30 49 1 4 43
M  V30 50 1 10 44
M  V30 51 1 11 45
M  V30 52 1 13 46
M  V30 53 1 13 47
M  V30 54 1 15 48
M  V30 55 1 15 49
M  V30 56 1 16 50
M  V30 57 1 16 51
M  V30 58 1 17 52
M  V30 59 1 20 53
M  V30 60 1 23 54
M  V30 61 1 23 55
M  V30 62 1 25 56
M  V30 63 1 28 57
M  V30 64 1 28 58
M  V30 65 1 29 59
M  V30 66 1 29 60
M  V30 67 1 30 61
M  V30 68 1 31 62
M  V30 69 1 34 63
M  V30 70 1 35 64
M  V30 71 1 36 65
M  V30 72 1 37 66
M  V30 73 1 38 67
M  V30 74 1 39 68
M  V30 END BOND
M  V30 END CTAB
M  END
>  <Dataset>  (60) 
ChEMBL_Kinases

>  <Ligand_Instance>  (60) 
nan

>  <PDB_ID>  (60) 
nan

>  <Standardized_SMILES>  (60) 
Nc1ncnc2nc(-c3ccc(CN4CCC(n5ncc6c(N)ncnc65)CC4)cc3)c(-c3ccccc3)cc12

>  <Name>  (60) 
nan

>  <Pocket>  (60) 
nan

>  <ATP_Site>  (60) 
nan

>  <Peripheral>  (60) 
nan

>  <Num_H_Atoms_ProtBoundConf>  (60) 
nan

>  <Num_Resolved_Atoms>  (60) 
nan

>  <Num_Not_Resolved_Atoms>  (60) 
nan

$$$$
CHEMBL3687500
     RDKit          3D

  0  0  0  0  0  0  0  0  0  0999 V3000
M  V30 BEGIN CTAB
M  V30 COUNTS 62 65 0 0 0
M  V30 BEGIN ATOM
M  V30 1 C 2.635646 -2.674530 5.400944 0
M  V30 2 C 1.783482 -2.210230 4.274020 0
M  V30 3 O 1.847767 -0.825651 4.127241 0
M  V30 4 C 1.028771 -0.417256 3.061342 0 CFG=2
M  V30 5 C 1.865624 0.183870 1.999488 0 CFG=2
M  V30 6 C 3.306187 0.399761 2.420193 0
M  V30 7 C 1.279136 1.392326 1.362075 0
M  V30 8 C -0.247799 1.251931 1.169899 0 CFG=2
M  V30 9 C -0.579226 2.318444 0.256844 0
M  V30 10 C -0.401932 3.548230 0.890177 0
M  V30 11 C -0.602158 4.782697 0.249620 0
M  V30 12 N -0.986803 4.721251 -1.050501 0
M  V30 13 C -1.149977 3.519999 -1.630595 0
M  V30 14 C -0.970218 2.311630 -1.054455 0
M  V30 15 N -1.186221 1.043390 -1.604024 0
M  V30 16 C -1.683767 0.779063 -2.898821 0
M  V30 17 O -1.979711 1.665777 -3.734421 0
M  V30 18 C -1.918378 -0.588624 -3.423456 0
M  V30 19 C -2.426759 -0.866923 -4.667197 0
M  V30 20 C -2.648118 -2.172600 -5.070799 0
M  V30 21 C -2.359965 -3.223822 -4.223806 0
M  V30 22 F -2.598859 -4.491600 -4.673341 0
M  V30 23 C -1.848954 -2.926460 -2.978058 0
M  V30 24 C -1.573286 -4.105215 -2.163263 0
M  V30 25 C -2.518920 -4.572717 -1.275531 0
M  V30 26 F -3.723743 -3.935061 -1.133091 0
M  V30 27 C -2.250960 -5.701527 -0.513696 0
M  V30 28 C -1.037392 -6.321691 -0.673179 0
M  V30 29 C -0.082551 -5.851381 -1.567797 0
M  V30 30 C -0.352319 -4.734397 -2.318515 0
M  V30 31 F 0.570974 -4.270855 -3.185304 0
M  V30 32 N -1.653312 -1.644717 -2.638680 0
M  V30 33 C -0.843822 1.212144 2.510101 0
M  V30 34 C -0.004603 0.521498 3.546151 0 CFG=2
M  V30 35 N 0.523569 1.577491 4.425839 0
M  V30 36 H 3.134453 -3.656248 5.145846 0
M  V30 37 H 2.110417 -2.830813 6.359084 0
M  V30 38 H 3.495215 -1.993673 5.630479 0
M  V30 39 H 2.173143 -2.727506 3.344139 0
M  V30 40 H 0.731415 -2.537521 4.428801 0
M  V30 41 H 0.526040 -1.320074 2.652082 0
M  V30 42 H 1.953733 -0.579609 1.158706 0
M  V30 43 H 3.896647 0.531966 1.460986 0
M  V30 44 H 3.668510 -0.534917 2.915143 0
M  V30 45 H 3.454510 1.277055 3.048276 0
M  V30 46 H 1.701637 1.578805 0.362007 0
M  V30 47 H 1.477336 2.284845 1.975731 0
M  V30 48 H -0.399875 0.246223 0.692754 0
M  V30 49 H -0.097838 3.737999 1.918568 0
M  V30 50 H -0.477942 5.751758 0.700619 0
M  V30 51 H -1.449742 3.577653 -2.658823 0
M  V30 52 H -1.008971 0.139274 -1.136375 0
M  V30 53 H -2.649340 -0.030854 -5.316026 0
M  V30 54 H -3.059908 -2.369098 -6.073338 0
M  V30 55 H -2.986779 -6.093259 0.200393 0
M  V30 56 H -0.862970 -7.191695 -0.065863 0
M  V30 57 H 0.876466 -6.363960 -1.676565 0
M  V30 58 H -1.828961 0.658236 2.544072 0
M  V30 59 H -1.132710 2.256286 2.815901 0
M  V30 60 H -0.640847 -0.097564 4.260709 0
M  V30 61 H 0.475424 1.328657 5.431456 0
M  V30 62 H -0.091647 2.441551 4.349541 0
M  V30 END ATOM
M  V30 BEGIN BOND
M  V30 1 1 1 2
M  V30 2 1 2 3
M  V30 3 1 3 4
M  V30 4 1 4 5
M  V30 5 1 5 6
M  V30 6 1 5 7
M  V30 7 1 7 8
M  V30 8 1 8 9
M  V30 9 2 9 10
M  V30 10 1 10 11
M  V30 11 2 11 12
M  V30 12 1 12 13
M  V30 13 2 13 14
M  V30 14 1 14 15
M  V30 15 1 15 16
M  V30 16 2 16 17
M  V30 17 1 16 18
M  V30 18 2 18 19
M  V30 19 1 19 20
M  V30 20 2 20 21
M  V30 21 1 21 22
M  V30 22 1 21 23
M  V30 23 1 23 24
M  V30 24 2 24 25
M  V30 25 1 25 26
M  V30 26 1 25 27
M  V30 27 2 27 28
M  V30 28 1 28 29
M  V30 29 2 29 30
M  V30 30 1 30 31
M  V30 31 2 23 32
M  V30 32 1 8 33
M  V30 33 1 33 34
M  V30 34 1 34 35
M  V30 35 1 34 4
M  V30 36 1 14 9
M  V30 37 1 32 18
M  V30 38 1 30 24
M  V30 39 1 1 36
M  V30 40 1 1 37
M  V30 41 1 1 38
M  V30 42 1 2 39
M  V30 43 1 2 40
M  V30 44 1 4 41 CFG=3
M  V30 45 1 5 42 CFG=3
M  V30 46 1 6 43
M  V30 47 1 6 44
M  V30 48 1 6 45
M  V30 49 1 7 46
M  V30 50 1 7 47
M  V30 51 1 8 48 CFG=3
M  V30 52 1 10 49
M  V30 53 1 11 50
M  V30 54 1 13 51
M  V30 55 1 15 52
M  V30 56 1 19 53
M  V30 57 1 20 54
M  V30 58 1 27 55
M  V30 59 1 28 56
M  V30 60 1 29 57
M  V30 61 1 33 58
M  V30 62 1 33 59
M  V30 63 1 34 60 CFG=1
M  V30 64 1 35 61
M  V30 65 1 35 62
M  V30 END BOND
M  V30 END CTAB
M  END
>  <Dataset>  (61) 
ChEMBL_Kinases

>  <Ligand_Instance>  (61) 
nan

>  <PDB_ID>  (61) 
nan

>  <Standardized_SMILES>  (61) 
CCO[C@@H]1[C@H](C)C[C@H](c2ccncc2NC(=O)c2ccc(F)c(-c3c(F)cccc3F)n2)C[C@@H]1N

>  <Name>  (61) 
nan

>  <Pocket>  (61) 
nan

>  <ATP_Site>  (61) 
nan

>  <Peripheral>  (61) 
nan

>  <Num_H_Atoms_ProtBoundConf>  (61) 
nan

>  <Num_Resolved_Atoms>  (61) 
nan

>  <Num_Not_Resolved_Atoms>  (61) 
nan

$$$$
CHEMBL217748
     RDKit          3D

  0  0  0  0  0  0  0  0  0  0999 V3000
M  V30 BEGIN CTAB
M  V30 COUNTS 64 68 0 0 0
M  V30 BEGIN ATOM
M  V30 1 C 2.085428 1.090282 5.962580 0
M  V30 2 C 2.814977 -0.179545 5.621397 0 CFG=2
M  V30 3 C 3.732209 0.056681 4.502363 0
M  V30 4 O 4.999191 0.006777 4.669232 0
M  V30 5 N 3.923583 0.352597 3.149933 0
M  V30 6 C 5.246757 0.458315 2.582980 0
M  V30 7 C 4.996648 -0.097439 1.202444 0
M  V30 8 N 5.584623 -0.659373 0.127620 0
M  V30 9 N 4.670753 -0.912059 -0.792909 0
M  V30 10 C 3.438729 -0.529463 -0.366849 0
M  V30 11 N 2.167354 -0.596988 -0.982586 0
M  V30 12 C 1.497290 0.332206 -1.819672 0
M  V30 13 O 2.004583 1.449709 -2.148179 0
M  V30 14 C 0.167407 0.029662 -2.348597 0
M  V30 15 C -0.519366 0.990153 -3.064091 0
M  V30 16 C -1.782384 0.692709 -3.571803 0
M  V30 17 C -2.401673 -0.536300 -3.396014 0
M  V30 18 N -3.698646 -0.721562 -3.953023 0
M  V30 19 C -4.509106 0.382455 -4.393934 0
M  V30 20 C -5.969498 0.157321 -4.084728 0
M  V30 21 N -6.224091 -0.891227 -3.145733 0
M  V30 22 C -5.879712 -0.450544 -1.818745 0
M  V30 23 C -5.632344 -2.155585 -3.473734 0
M  V30 24 C -4.302259 -2.041015 -4.142631 0
M  V30 25 C -1.698192 -1.464110 -2.685445 0
M  V30 26 C -0.444911 -1.192401 -2.172545 0
M  V30 27 C 3.649404 -0.007110 0.912348 0
M  V30 28 C 2.977929 0.606690 2.078343 0
M  V30 29 C 1.886075 -1.320770 5.423715 0
M  V30 30 C 2.084572 -2.538925 6.086797 0
M  V30 31 C 1.231775 -3.622071 5.927954 0
M  V30 32 C 0.142172 -3.524862 5.095144 0
M  V30 33 C -0.105802 -2.347747 4.414578 0
M  V30 34 C 0.774288 -1.307261 4.611036 0
M  V30 35 H 1.173274 0.801606 6.544543 0
M  V30 36 H 1.816009 1.683125 5.065131 0
M  V30 37 H 2.749381 1.713637 6.581217 0
M  V30 38 H 3.472091 -0.424958 6.506031 0
M  V30 39 H 5.508407 1.524258 2.429988 0
M  V30 40 H 6.027750 -0.096859 3.096165 0
M  V30 41 H 6.583867 -0.883182 -0.020732 0
M  V30 42 H 1.771047 -1.516589 -0.694885 0
M  V30 43 H -0.045073 1.951680 -3.208073 0
M  V30 44 H -2.216185 1.536814 -4.122925 0
M  V30 45 H -4.180138 1.289646 -3.815951 0
M  V30 46 H -4.431463 0.552968 -5.490705 0
M  V30 47 H -6.382289 1.096630 -3.661394 0
M  V30 48 H -6.526834 -0.106232 -5.025522 0
M  V30 49 H -6.231821 -1.221127 -1.069509 0
M  V30 50 H -4.770540 -0.357297 -1.744281 0
M  V30 51 H -6.322895 0.531915 -1.585431 0
M  V30 52 H -6.341821 -2.741983 -4.098569 0
M  V30 53 H -5.490569 -2.717439 -2.517482 0
M  V30 54 H -3.601368 -2.845112 -3.840887 0
M  V30 55 H -4.476910 -2.202787 -5.240315 0
M  V30 56 H -2.128447 -2.421248 -2.521601 0
M  V30 57 H 0.034575 -1.977649 -1.628429 0
M  V30 58 H 1.970302 0.191550 2.260250 0
M  V30 59 H 2.911598 1.706887 1.939777 0
M  V30 60 H 2.948988 -2.605518 6.744900 0
M  V30 61 H 1.392132 -4.543870 6.435694 0
M  V30 62 H -0.520571 -4.379005 4.978581 0
M  V30 63 H -0.962027 -2.246592 3.750775 0
M  V30 64 H 0.572234 -0.387848 4.080110 0
M  V30 END ATOM
M  V30 BEGIN BOND
M  V30 1 1 1 2
M  V30 2 1 2 3
M  V30 3 2 3 4
M  V30 4 1 3 5
M  V30 5 1 5 6
M  V30 6 1 6 7
M  V30 7 1 7 8
M  V30 8 1 8 9
M  V30 9 2 9 10
M  V30 10 1 10 11
M  V30 11 1 11 12
M  V30 12 2 12 13
M  V30 13 1 12 14
M  V30 14 2 14 15
M  V30 15 1 15 16
M  V30 16 2 16 17
M  V30 17 1 17 18
M  V30 18 1 18 19
M  V30 19 1 19 20
M  V30 20 1 20 21
M  V30 21 1 21 22
M  V30 22 1 21 23
M  V30 23 1 23 24
M  V30 24 1 17 25
M  V30 25 2 25 26
M  V30 26 1 10 27
M  V30 27 1 27 28
M  V30 28 1 2 29
M  V30 29 2 29 30
M  V30 30 1 30 31
M  V30 31 2 31 32
M  V30 32 1 32 33
M  V30 33 2 33 34
M  V30 34 1 28 5
M  V30 35 1 34 29
M  V30 36 2 27 7
M  V30 37 1 26 14
M  V30 38 1 24 18
M  V30 39 1 1 35
M  V30 40 1 1 36
M  V30 41 1 1 37
M  V30 42 1 2 38 CFG=1
M  V30 43 1 6 39
M  V30 44 1 6 40
M  V30 45 1 8 41
M  V30 46 1 11 42
M  V30 47 1 15 43
M  V30 48 1 16 44
M  V30 49 1 19 45
M  V30 50 1 19 46
M  V30 51 1 20 47
M  V30 52 1 20 48
M  V30 53 1 22 49
M  V30 54 1 22 50
M  V30 55 1 22 51
M  V30 56 1 23 52
M  V30 57 1 23 53
M  V30 58 1 24 54
M  V30 59 1 24 55
M  V30 60 1 25 56
M  V30 61 1 26 57
M  V30 62 1 28 58
M  V30 63 1 28 59
M  V30 64 1 30 60
M  V30 65 1 31 61
M  V30 66 1 32 62
M  V30 67 1 33 63
M  V30 68 1 34 64
M  V30 END BOND
M  V30 END CTAB
M  END
>  <Dataset>  (62) 
ChEMBL_Kinases

>  <Ligand_Instance>  (62) 
nan

>  <PDB_ID>  (62) 
nan

>  <Standardized_SMILES>  (62) 
C[C@H](C(=O)N1Cc2[nH]nc(NC(=O)c3ccc(N4CCN(C)CC4)cc3)c2C1)c1ccccc1

>  <Name>  (62) 
nan

>  <Pocket>  (62) 
nan

>  <ATP_Site>  (62) 
nan

>  <Peripheral>  (62) 
nan

>  <Num_H_Atoms_ProtBoundConf>  (62) 
nan

>  <Num_Resolved_Atoms>  (62) 
nan

>  <Num_Not_Resolved_Atoms>  (62) 
nan

$$$$
CHEMBL253693
     RDKit          3D

  0  0  0  0  0  0  0  0  0  0999 V3000
M  V30 BEGIN CTAB
M  V30 COUNTS 70 76 0 0 0
M  V30 BEGIN ATOM
M  V30 1 C 4.544357 2.979434 8.599649 0
M  V30 2 S 4.920508 1.345227 7.908829 0
M  V30 3 C 4.815519 1.416256 6.126977 0
M  V30 4 N 5.970709 1.745653 5.486102 0
M  V30 5 C 5.979579 1.822579 4.125901 0
M  V30 6 C 4.845116 1.573584 3.398306 0
M  V30 7 C 4.815335 1.641121 2.029983 0
M  V30 8 C 3.644906 1.378095 1.390728 0
M  V30 9 C 3.498146 1.420774 -0.060739 0
M  V30 10 C 3.162422 0.297526 -0.743338 0
M  V30 11 C 3.040221 0.408874 -2.120579 0
M  V30 12 C 3.262477 1.637729 -2.722171 0
M  V30 13 C 3.601562 2.763658 -2.014406 0
M  V30 14 C 3.724794 2.660816 -0.645604 0
M  V30 15 C 2.469706 1.042708 2.048082 0
M  V30 16 C 1.191185 0.751710 1.416553 0
M  V30 17 C 0.753497 -0.550784 1.683810 0
M  V30 18 C -0.450369 -1.002468 1.160632 0
M  V30 19 C -1.244729 -0.195470 0.371324 0
M  V30 20 C -2.549058 -0.661805 -0.205463 0
M  V30 21 N -2.281604 -1.232112 -1.463003 0
M  V30 22 C -1.422154 -2.330175 -1.538038 0
M  V30 23 C -1.498064 -3.084899 -2.834728 0
M  V30 24 C -2.930389 -3.108732 -3.299839 0
M  V30 25 N -3.728097 -3.747509 -2.301673 0
M  V30 26 N -3.285855 -4.616164 -1.389320 0
M  V30 27 C -4.281917 -5.020378 -0.615195 0
M  V30 28 C -5.450567 -4.390699 -1.029829 0
M  V30 29 C -6.753033 -4.446310 -0.584452 0
M  V30 30 N -7.105805 -5.280772 0.518062 0
M  V30 31 N -7.647125 -3.674555 -1.249426 0
M  V30 32 C -7.252967 -2.913445 -2.276245 0
M  V30 33 N -5.978228 -2.868550 -2.700669 0
M  V30 34 C -5.050308 -3.603519 -2.089618 0
M  V30 35 C -3.341572 -1.705784 -3.638988 0
M  V30 36 C -2.896564 -0.703475 -2.595782 0
M  V30 37 C -0.787214 1.082453 0.125542 0
M  V30 38 C 0.402753 1.574983 0.624180 0
M  V30 39 N 2.519528 0.980609 3.411250 0
M  V30 40 C 3.683981 1.241172 4.066441 0
M  V30 41 N 3.691632 1.168782 5.420581 0
M  V30 42 H 4.007802 2.787077 9.570872 0
M  V30 43 H 5.496406 3.494970 8.769518 0
M  V30 44 H 3.897751 3.591280 7.918694 0
M  V30 45 H 6.885986 2.083159 3.582984 0
M  V30 46 H 5.704155 1.898873 1.460621 0
M  V30 47 H 3.007156 -0.620218 -0.197405 0
M  V30 48 H 2.770460 -0.500192 -2.654939 0
M  V30 49 H 3.147717 1.646705 -3.809893 0
M  V30 50 H 3.768737 3.714570 -2.524636 0
M  V30 51 H 3.991351 3.565213 -0.132870 0
M  V30 52 H 1.303925 -1.277106 2.298219 0
M  V30 53 H -0.789351 -2.018120 1.370334 0
M  V30 54 H -2.949989 -1.396955 0.527699 0
M  V30 55 H -3.250439 0.185559 -0.339913 0
M  V30 56 H -1.499628 -3.054357 -0.684969 0
M  V30 57 H -0.365128 -1.948222 -1.479789 0
M  V30 58 H -0.814717 -2.689657 -3.615734 0
M  V30 59 H -1.191963 -4.152794 -2.698823 0
M  V30 60 H -2.994310 -3.705800 -4.233659 0
M  V30 61 H -4.226482 -5.712507 0.198097 0
M  V30 62 H -6.489210 -5.328019 1.349909 0
M  V30 63 H -7.924587 -5.895457 0.654508 0
M  V30 64 H -8.082545 -2.357359 -2.701334 0
M  V30 65 H -2.762052 -1.452919 -4.575829 0
M  V30 66 H -4.392801 -1.594779 -3.935406 0
M  V30 67 H -3.808157 -0.128302 -2.256578 0
M  V30 68 H -2.239620 0.104929 -3.032706 0
M  V30 69 H -1.337754 1.787268 -0.479863 0
M  V30 70 H 0.816745 2.542697 0.477569 0
M  V30 END ATOM
M  V30 BEGIN BOND
M  V30 1 1 1 2
M  V30 2 1 2 3
M  V30 3 2 3 4
M  V30 4 1 4 5
M  V30 5 2 5 6
M  V30 6 1 6 7
M  V30 7 2 7 8
M  V30 8 1 8 9
M  V30 9 2 9 10
M  V30 10 1 10 11
M  V30 11 2 11 12
M  V30 12 1 12 13
M  V30 13 2 13 14
M  V30 14 1 8 15
M  V30 15 1 15 16
M  V30 16 2 16 17
M  V30 17 1 17 18
M  V30 18 2 18 19
M  V30 19 1 19 20
M  V30 20 1 20 21
M  V30 21 1 21 22
M  V30 22 1 22 23
M  V30 23 1 23 24
M  V30 24 1 24 25
M  V30 25 1 25 26
M  V30 26 2 26 27
M  V30 27 1 27 28
M  V30 28 2 28 29
M  V30 29 1 29 30
M  V30 30 1 29 31
M  V30 31 2 31 32
M  V30 32 1 32 33
M  V30 33 2 33 34
M  V30 34 1 24 35
M  V30 35 1 35 36
M  V30 36 1 19 37
M  V30 37 2 37 38
M  V30 38 2 15 39
M  V30 39 1 39 40
M  V30 40 2 40 41
M  V30 41 1 41 3
M  V30 42 1 40 6
M  V30 43 1 14 9
M  V30 44 1 38 16
M  V30 45 1 36 21
M  V30 46 1 34 25
M  V30 47 1 34 28
M  V30 48 1 1 42
M  V30 49 1 1 43
M  V30 50 1 1 44
M  V30 51 1 5 45
M  V30 52 1 7 46
M  V30 53 1 10 47
M  V30 54 1 11 48
M  V30 55 1 12 49
M  V30 56 1 13 50
M  V30 57 1 14 51
M  V30 58 1 17 52
M  V30 59 1 18 53
M  V30 60 1 20 54
M  V30 61 1 20 55
M  V30 62 1 22 56
M  V30 63 1 22 57
M  V30 64 1 23 58
M  V30 65 1 23 59
M  V30 66 1 24 60
M  V30 67 1 27 61
M  V30 68 1 30 62
M  V30 69 1 30 63
M  V30 70 1 32 64
M  V30 71 1 35 65
M  V30 72 1 35 66
M  V30 73 1 36 67
M  V30 74 1 36 68
M  V30 75 1 37 69
M  V30 76 1 38 70
M  V30 END BOND
M  V30 END CTAB
M  END
>  <Dataset>  (63) 
ChEMBL_Kinases

>  <Ligand_Instance>  (63) 
nan

>  <PDB_ID>  (63) 
nan

>  <Standardized_SMILES>  (63) 
CSc1ncc2cc(-c3ccccc3)c(-c3ccc(CN4CCC(n5ncc6c(N)ncnc65)CC4)cc3)nc2n1

>  <Name>  (63) 
nan

>  <Pocket>  (63) 
nan

>  <ATP_Site>  (63) 
nan

>  <Peripheral>  (63) 
nan

>  <Num_H_Atoms_ProtBoundConf>  (63) 
nan

>  <Num_Resolved_Atoms>  (63) 
nan

>  <Num_Not_Resolved_Atoms>  (63) 
nan

$$$$
CHEMBL4437018
     RDKit          3D

  0  0  0  0  0  0  0  0  0  0999 V3000
M  V30 BEGIN CTAB
M  V30 COUNTS 59 63 0 0 0
M  V30 BEGIN ATOM
M  V30 1 O -3.269650 -0.471253 1.581054 0
M  V30 2 C -2.715008 0.435316 2.302294 0
M  V30 3 N -1.450122 0.045396 2.739328 0
M  V30 4 C -0.748336 -1.162188 2.496529 0
M  V30 5 C 0.137870 -1.537299 1.516118 0
M  V30 6 C 0.736002 -2.787739 1.430172 0
M  V30 7 C 1.631906 -2.885279 0.277546 0
M  V30 8 N 2.708061 -2.091624 0.126554 0
M  V30 9 C 3.292581 -2.447766 -1.043271 0
M  V30 10 S 4.752994 -1.848372 -1.925825 0
M  V30 11 C 4.206526 -0.511068 -3.051724 0
M  V30 12 C 3.721091 0.676035 -2.302846 0
M  V30 13 C 4.630108 1.678829 -1.971935 0
M  V30 14 C 4.075186 2.724737 -1.284011 0
M  V30 15 C 2.769331 2.904115 -0.889998 0
M  V30 16 C 1.917197 1.866201 -1.252535 0
M  V30 17 C 2.394634 0.779798 -1.944650 0
M  V30 18 N 2.604003 -3.455717 -1.637599 0
M  V30 19 C 1.556256 -3.731798 -0.804258 0
M  V30 20 C 0.560623 -4.760828 -1.070038 0
M  V30 21 C -0.233977 -4.406790 -2.169918 0
M  V30 22 C -1.254549 -5.209531 -2.636627 0
M  V30 23 C -1.477586 -6.402959 -1.973476 0
M  V30 24 F -2.467212 -7.226499 -2.391145 0
M  V30 25 C -0.681564 -6.716789 -0.902846 0
M  V30 26 C 0.341072 -5.945265 -0.410164 0
M  V30 27 C 0.406830 -3.703709 2.403582 0
M  V30 28 C -0.475583 -3.319106 3.372503 0
M  V30 29 N -1.045665 -2.110939 3.444898 0
M  V30 30 C -3.453719 1.670959 2.543065 0
M  V30 31 C -3.696768 1.965139 3.997101 0
M  V30 32 C -4.137653 3.411780 3.973988 0
M  V30 33 C -3.679615 3.997629 2.649748 0
M  V30 34 C -2.805360 2.926222 2.044432 0
M  V30 35 H -0.941169 0.762339 3.344677 0
M  V30 36 H 0.302468 -0.721909 0.823598 0
M  V30 37 H 3.132949 -1.329662 0.687675 0
M  V30 38 H 3.425162 -0.950405 -3.703790 0
M  V30 39 H 5.071995 -0.249702 -3.706467 0
M  V30 40 H 5.680088 1.648128 -2.228247 0
M  V30 41 H 4.767779 3.532567 -1.008487 0
M  V30 42 H 2.478199 3.787706 -0.350051 0
M  V30 43 H 0.862602 1.962100 -0.960330 0
M  V30 44 H 1.714006 -0.036614 -2.228790 0
M  V30 45 H -0.140695 -3.487417 -2.763042 0
M  V30 46 H -1.886660 -4.968822 -3.478522 0
M  V30 47 H -0.850249 -7.664976 -0.368461 0
M  V30 48 H 0.997527 -6.140519 0.420819 0
M  V30 49 H 0.914215 -4.644382 2.265926 0
M  V30 50 H -0.691473 -4.098448 4.113890 0
M  V30 51 H -4.460346 1.630619 2.067504 0
M  V30 52 H -4.518594 1.348863 4.415647 0
M  V30 53 H -2.780497 1.831858 4.601043 0
M  V30 54 H -3.719635 4.010846 4.809167 0
M  V30 55 H -5.255002 3.426884 3.958458 0
M  V30 56 H -4.511254 4.166538 1.944346 0
M  V30 57 H -3.147770 4.964757 2.766964 0
M  V30 58 H -2.862407 2.904450 0.936560 0
M  V30 59 H -1.762276 2.950626 2.413415 0
M  V30 END ATOM
M  V30 BEGIN BOND
M  V30 1 2 1 2
M  V30 2 1 2 3
M  V30 3 1 3 4
M  V30 4 2 4 5
M  V30 5 1 5 6
M  V30 6 1 6 7
M  V30 7 1 7 8
M  V30 8 1 8 9
M  V30 9 1 9 10
M  V30 10 1 10 11
M  V30 11 1 11 12
M  V30 12 2 12 13
M  V30 13 1 13 14
M  V30 14 2 14 15
M  V30 15 1 15 16
M  V30 16 2 16 17
M  V30 17 2 9 18
M  V30 18 1 18 19
M  V30 19 1 19 20
M  V30 20 2 20 21
M  V30 21 1 21 22
M  V30 22 2 22 23
M  V30 23 1 23 24
M  V30 24 1 23 25
M  V30 25 2 25 26
M  V30 26 2 6 27
M  V30 27 1 27 28
M  V30 28 2 28 29
M  V30 29 1 2 30
M  V30 30 1 30 31
M  V30 31 1 31 32
M  V30 32 1 32 33
M  V30 33 1 33 34
M  V30 34 1 29 4
M  V30 35 1 34 30
M  V30 36 2 19 7
M  V30 37 1 26 20
M  V30 38 1 17 12
M  V30 39 1 3 35
M  V30 40 1 5 36
M  V30 41 1 8 37
M  V30 42 1 11 38
M  V30 43 1 11 39
M  V30 44 1 13 40
M  V30 45 1 14 41
M  V30 46 1 15 42
M  V30 47 1 16 43
M  V30 48 1 17 44
M  V30 49 1 21 45
M  V30 50 1 22 46
M  V30 51 1 25 47
M  V30 52 1 26 48
M  V30 53 1 27 49
M  V30 54 1 28 50
M  V30 55 1 30 51
M  V30 56 1 31 52
M  V30 57 1 31 53
M  V30 58 1 32 54
M  V30 59 1 32 55
M  V30 60 1 33 56
M  V30 61 1 33 57
M  V30 62 1 34 58
M  V30 63 1 34 59
M  V30 END BOND
M  V30 END CTAB
M  END
>  <Dataset>  (64) 
ChEMBL_Kinases

>  <Ligand_Instance>  (64) 
nan

>  <PDB_ID>  (64) 
nan

>  <Standardized_SMILES>  (64) 
O=C(Nc1cc(-c2[nH]c(SCc3ccccc3)nc2-c2ccc(F)cc2)ccn1)C1CCCC1

>  <Name>  (64) 
nan

>  <Pocket>  (64) 
nan

>  <ATP_Site>  (64) 
nan

>  <Peripheral>  (64) 
nan

>  <Num_H_Atoms_ProtBoundConf>  (64) 
nan

>  <Num_Resolved_Atoms>  (64) 
nan

>  <Num_Not_Resolved_Atoms>  (64) 
nan

$$$$
CHEMBL4445845
     RDKit          3D

  0  0  0  0  0  0  0  0  0  0999 V3000
M  V30 BEGIN CTAB
M  V30 COUNTS 61 64 0 0 0
M  V30 BEGIN ATOM
M  V30 1 C 7.010871 -0.738407 -0.603917 0
M  V30 2 C 5.901972 -1.194660 -1.553312 0 CFG=1
M  V30 3 N 5.762244 -2.621583 -1.483188 0
M  V30 4 C 4.481521 -2.994487 -0.979312 0
M  V30 5 O 4.065075 -4.155399 -0.803936 0
M  V30 6 C 3.817393 -1.717880 -0.734337 0
M  V30 7 C 2.638051 -1.170213 -0.280407 0
M  V30 8 C 2.675222 0.193851 -0.310127 0
M  V30 9 C 1.743728 1.254579 0.041334 0
M  V30 10 C 2.117276 2.569268 -0.119190 0
M  V30 11 C 1.227872 3.596998 0.216148 0
M  V30 12 C -0.000279 3.194333 0.699738 0
M  V30 13 C -0.405517 1.898275 0.872408 0
M  V30 14 C -1.649642 1.586347 1.359410 0
M  V30 15 O -2.371609 2.573413 1.632957 0
M  V30 16 N -2.085860 0.358242 1.541163 0
M  V30 17 C -3.350714 -0.006686 2.058136 0
M  V30 18 C -4.475735 -0.033666 1.054364 0
M  V30 19 C -4.743158 1.324322 0.422139 0
M  V30 20 C -5.761910 -0.538182 1.643882 0
M  V30 21 N -4.092250 -0.976166 -0.005450 0
M  V30 22 C -1.191080 -0.581135 1.206246 0
M  V30 23 N -1.256843 -2.021652 1.285535 0
M  V30 24 C -1.457143 -3.383895 1.009249 0
M  V30 25 C -2.912187 -3.750203 0.949584 0
M  V30 26 C -0.777747 -3.756165 -0.324307 0
M  V30 27 C -0.799428 -4.328690 2.029362 0
M  V30 28 N 0.061533 -0.326231 0.716006 0
M  V30 29 C 0.497862 0.925190 0.531027 0
M  V30 30 N 3.905159 0.473849 -0.793021 0
M  V30 31 C 4.614142 -0.638340 -1.057169 0
M  V30 32 H 6.568422 -0.321597 0.334410 0
M  V30 33 H 7.589168 -1.614453 -0.300274 0
M  V30 34 H 7.639834 -0.005365 -1.123473 0
M  V30 35 H 6.100557 -0.862578 -2.589891 0
M  V30 36 H 6.523084 -3.273548 -1.773022 0
M  V30 37 H 1.802597 -1.736394 0.051784 0
M  V30 38 H 3.067208 2.894211 -0.493425 0
M  V30 39 H 1.506578 4.632748 0.095790 0
M  V30 40 H -0.687903 4.012206 0.958800 0
M  V30 41 H -3.595391 0.724185 2.874188 0
M  V30 42 H -3.340219 -1.012996 2.549367 0
M  V30 43 H -3.984252 1.626362 -0.316790 0
M  V30 44 H -5.697740 1.256542 -0.189920 0
M  V30 45 H -4.988027 2.074670 1.193247 0
M  V30 46 H -5.928394 -0.224161 2.694553 0
M  V30 47 H -6.596649 -0.116070 1.042623 0
M  V30 48 H -5.859774 -1.653538 1.533677 0
M  V30 49 H -4.903438 -0.936662 -0.689264 0
M  V30 50 H -3.262052 -0.603380 -0.528971 0
M  V30 51 H -0.928038 -2.050994 2.309432 0
M  V30 52 H -3.064807 -4.829970 1.252185 0
M  V30 53 H -3.572394 -3.179027 1.607022 0
M  V30 54 H -3.226528 -3.609494 -0.113892 0
M  V30 55 H -1.013984 -3.004744 -1.108039 0
M  V30 56 H 0.324011 -3.798985 -0.211740 0
M  V30 57 H -1.124640 -4.767427 -0.623636 0
M  V30 58 H 0.216369 -3.962555 2.301941 0
M  V30 59 H -1.415684 -4.444604 2.940790 0
M  V30 60 H -0.730980 -5.301025 1.520361 0
M  V30 61 H 4.366432 1.413000 -0.983415 0
M  V30 END ATOM
M  V30 BEGIN BOND
M  V30 1 1 1 2
M  V30 2 1 2 3
M  V30 3 1 3 4
M  V30 4 2 4 5
M  V30 5 1 4 6
M  V30 6 1 6 7
M  V30 7 2 7 8
M  V30 8 1 8 9
M  V30 9 2 9 10
M  V30 10 1 10 11
M  V30 11 2 11 12
M  V30 12 1 12 13
M  V30 13 1 13 14
M  V30 14 2 14 15
M  V30 15 1 14 16
M  V30 16 1 16 17
M  V30 17 1 17 18
M  V30 18 1 18 19
M  V30 19 1 18 20
M  V30 20 1 18 21
M  V30 21 1 16 22
M  V30 22 1 22 23
M  V30 23 1 23 24
M  V30 24 1 24 25
M  V30 25 1 24 26
M  V30 26 1 24 27
M  V30 27 2 22 28
M  V30 28 1 28 29
M  V30 29 1 8 30
M  V30 30 1 30 31
M  V30 31 1 31 2
M  V30 32 2 31 6
M  V30 33 1 29 9
M  V30 34 2 29 13
M  V30 35 1 1 32
M  V30 36 1 1 33
M  V30 37 1 1 34
M  V30 38 1 2 35 CFG=3
M  V30 39 1 3 36
M  V30 40 1 7 37
M  V30 41 1 10 38
M  V30 42 1 11 39
M  V30 43 1 12 40
M  V30 44 1 17 41
M  V30 45 1 17 42
M  V30 46 1 19 43
M  V30 47 1 19 44
M  V30 48 1 19 45
M  V30 49 1 20 46
M  V30 50 1 20 47
M  V30 51 1 20 48
M  V30 52 1 21 49
M  V30 53 1 21 50
M  V30 54 1 23 51
M  V30 55 1 25 52
M  V30 56 1 25 53
M  V30 57 1 25 54
M  V30 58 1 26 55
M  V30 59 1 26 56
M  V30 60 1 26 57
M  V30 61 1 27 58
M  V30 62 1 27 59
M  V30 63 1 27 60
M  V30 64 1 30 61
M  V30 END BOND
M  V30 END CTAB
M  END
>  <Dataset>  (65) 
ChEMBL_Kinases

>  <Ligand_Instance>  (65) 
nan

>  <PDB_ID>  (65) 
nan

>  <Standardized_SMILES>  (65) 
C[C@H]1NC(=O)c2cc(-c3cccc4c(=O)n(CC(C)(C)N)c(NC(C)(C)C)nc34)[nH]c21

>  <Name>  (65) 
nan

>  <Pocket>  (65) 
nan

>  <ATP_Site>  (65) 
nan

>  <Peripheral>  (65) 
nan

>  <Num_H_Atoms_ProtBoundConf>  (65) 
nan

>  <Num_Resolved_Atoms>  (65) 
nan

>  <Num_Not_Resolved_Atoms>  (65) 
nan

$$$$
CHEMBL372736
     RDKit          3D

  0  0  0  0  0  0  0  0  0  0999 V3000
M  V30 BEGIN CTAB
M  V30 COUNTS 68 73 0 0 0
M  V30 BEGIN ATOM
M  V30 1 C 4.198905 -3.832778 3.254239 0
M  V30 2 O 2.935103 -3.752241 2.643753 0
M  V30 3 C 2.289420 -2.526270 2.597974 0
M  V30 4 C 2.861378 -1.399409 3.135898 0
M  V30 5 C 2.262115 -0.160924 3.115966 0
M  V30 6 N 2.907878 0.959102 3.689029 0
M  V30 7 C 2.448090 2.298086 3.765839 0
M  V30 8 N 3.202267 3.239976 4.352105 0
M  V30 9 C 2.832836 4.522441 4.461264 0
M  V30 10 C 1.622619 4.945156 3.959964 0
M  V30 11 C 0.830961 4.001108 3.354626 0
M  V30 12 C -0.490858 4.381692 2.788138 0
M  V30 13 C -1.457284 3.721191 2.162101 0
M  V30 14 C -2.570660 4.378980 1.760992 0
M  V30 15 C -3.675684 3.864904 1.099166 0
M  V30 16 C -4.718640 4.699434 0.772331 0
M  V30 17 C -4.774680 6.048284 1.049052 0
M  V30 18 C -3.690526 6.586143 1.705984 0
M  V30 19 C -2.641146 5.733872 2.032011 0
M  V30 20 S -1.036130 6.041989 2.893784 0
M  V30 21 N 1.284055 2.746493 3.293141 0
M  V30 22 C 1.030271 -0.161183 2.502858 0
M  V30 23 C 0.400225 -1.250431 1.944534 0
M  V30 24 C 1.052026 -2.458316 1.997455 0
M  V30 25 C 0.435357 -3.647373 1.424430 0
M  V30 26 O -0.319806 -4.516453 1.884373 0
M  V30 27 N 0.723323 -3.926884 0.040061 0
M  V30 28 C 0.108911 -5.108778 -0.528100 0
M  V30 29 C -0.854949 -4.598566 -1.605302 0
M  V30 30 C 0.023565 -4.087235 -2.712278 0
M  V30 31 N -0.643900 -3.828338 -3.945574 0
M  V30 32 C -1.255001 -5.011364 -4.458359 0
M  V30 33 C -2.683517 -4.683049 -4.800151 0
M  V30 34 C -2.927831 -3.261729 -4.352596 0
M  V30 35 C -1.584478 -2.758004 -3.938818 0
M  V30 36 C 0.830824 -2.912956 -2.214349 0
M  V30 37 C 1.521056 -3.260095 -0.939157 0
M  V30 38 H 4.549411 -4.883181 3.331209 0
M  V30 39 H 4.893640 -3.195962 2.692139 0
M  V30 40 H 4.185224 -3.434908 4.303720 0
M  V30 41 H 3.842866 -1.530225 3.594949 0
M  V30 42 H 3.846324 0.772769 4.110281 0
M  V30 43 H 3.512625 5.225505 4.956312 0
M  V30 44 H 1.327314 5.980495 4.049392 0
M  V30 45 H -1.257492 2.667835 2.023385 0
M  V30 46 H -3.757554 2.811561 0.821127 0
M  V30 47 H -5.573063 4.277126 0.255005 0
M  V30 48 H -5.568356 6.735200 0.812032 0
M  V30 49 H -3.588057 7.623626 1.990625 0
M  V30 50 H 0.469650 0.757143 2.430082 0
M  V30 51 H -0.571875 -1.180278 1.476427 0
M  V30 52 H 0.853974 -5.726619 -1.090785 0
M  V30 53 H -0.442751 -5.711902 0.196172 0
M  V30 54 H -1.454054 -5.462511 -1.890591 0
M  V30 55 H -1.486185 -3.795058 -1.178480 0
M  V30 56 H 0.770087 -4.901393 -2.928511 0
M  V30 57 H -1.125171 -5.915344 -3.851106 0
M  V30 58 H -0.741844 -5.236740 -5.438604 0
M  V30 59 H -3.412680 -5.377016 -4.288778 0
M  V30 60 H -2.908376 -4.781020 -5.880118 0
M  V30 61 H -3.698669 -3.207194 -3.556794 0
M  V30 62 H -3.343857 -2.672915 -5.205807 0
M  V30 63 H -1.237721 -2.027338 -4.723395 0
M  V30 64 H -1.596901 -2.172502 -3.001185 0
M  V30 65 H 0.239871 -1.999878 -2.087148 0
M  V30 66 H 1.628738 -2.717011 -2.985418 0
M  V30 67 H 2.469218 -3.833585 -1.109626 0
M  V30 68 H 1.882343 -2.296020 -0.478130 0
M  V30 END ATOM
M  V30 BEGIN BOND
M  V30 1 1 1 2
M  V30 2 1 2 3
M  V30 3 2 3 4
M  V30 4 1 4 5
M  V30 5 1 5 6
M  V30 6 1 6 7
M  V30 7 2 7 8
M  V30 8 1 8 9
M  V30 9 2 9 10
M  V30 10 1 10 11
M  V30 11 1 11 12
M  V30 12 2 12 13
M  V30 13 1 13 14
M  V30 14 2 14 15
M  V30 15 1 15 16
M  V30 16 2 16 17
M  V30 17 1 17 18
M  V30 18 2 18 19
M  V30 19 1 19 20
M  V30 20 2 11 21
M  V30 21 2 5 22
M  V30 22 1 22 23
M  V30 23 2 23 24
M  V30 24 1 24 25
M  V30 25 2 25 26
M  V30 26 1 25 27
M  V30 27 1 27 28
M  V30 28 1 28 29
M  V30 29 1 29 30
M  V30 30 1 30 31
M  V30 31 1 31 32
M  V30 32 1 32 33
M  V30 33 1 33 34
M  V30 34 1 34 35
M  V30 35 1 30 36
M  V30 36 1 36 37
M  V30 37 1 24 3
M  V30 38 1 37 27
M  V30 39 1 21 7
M  V30 40 1 35 31
M  V30 41 1 20 12
M  V30 42 1 19 14
M  V30 43 1 1 38
M  V30 44 1 1 39
M  V30 45 1 1 40
M  V30 46 1 4 41
M  V30 47 1 6 42
M  V30 48 1 9 43
M  V30 49 1 10 44
M  V30 50 1 13 45
M  V30 51 1 15 46
M  V30 52 1 16 47
M  V30 53 1 17 48
M  V30 54 1 18 49
M  V30 55 1 22 50
M  V30 56 1 23 51
M  V30 57 1 28 52
M  V30 58 1 28 53
M  V30 59 1 29 54
M  V30 60 1 29 55
M  V30 61 1 30 56
M  V30 62 1 32 57
M  V30 63 1 32 58
M  V30 64 1 33 59
M  V30 65 1 33 60
M  V30 66 1 34 61
M  V30 67 1 34 62
M  V30 68 1 35 63
M  V30 69 1 35 64
M  V30 70 1 36 65
M  V30 71 1 36 66
M  V30 72 1 37 67
M  V30 73 1 37 68
M  V30 END BOND
M  V30 END CTAB
M  END
>  <Dataset>  (66) 
ChEMBL_Kinases

>  <Ligand_Instance>  (66) 
nan

>  <PDB_ID>  (66) 
nan

>  <Standardized_SMILES>  (66) 
COc1cc(Nc2nccc(-c3cc4ccccc4s3)n2)ccc1C(=O)N1CCC(N2CCCC2)CC1

>  <Name>  (66) 
nan

>  <Pocket>  (66) 
nan

>  <ATP_Site>  (66) 
nan

>  <Peripheral>  (66) 
nan

>  <Num_H_Atoms_ProtBoundConf>  (66) 
nan

>  <Num_Resolved_Atoms>  (66) 
nan

>  <Num_Not_Resolved_Atoms>  (66) 
nan

$$$$
CHEMBL3687511
     RDKit          3D

  0  0  0  0  0  0  0  0  0  0999 V3000
M  V30 BEGIN CTAB
M  V30 COUNTS 69 72 0 0 0
M  V30 BEGIN ATOM
M  V30 1 C 0.587700 -1.657585 5.850501 0
M  V30 2 O 1.126926 -0.825640 4.868148 0
M  V30 3 C 0.258564 0.208508 4.548956 0 CFG=2
M  V30 4 C -0.229042 0.004106 3.134166 0 CFG=2
M  V30 5 N -0.764384 -1.310039 2.916076 0
M  V30 6 C 0.990713 0.265557 2.262461 0
M  V30 7 C 1.005025 1.797154 2.161783 0 CFG=2
M  V30 8 C 2.105094 2.301001 1.347703 0
M  V30 9 C 3.356351 2.627597 1.842616 0
M  V30 10 C 4.407655 3.104541 1.089440 0
M  V30 11 N 4.234702 3.278674 -0.244498 0
M  V30 12 C 3.034114 2.983414 -0.823799 0
M  V30 13 C 1.985742 2.500981 -0.033516 0
M  V30 14 N 0.748922 2.203765 -0.671611 0
M  V30 15 C -0.437196 2.883923 -0.977970 0
M  V30 16 O -0.549953 4.073120 -0.651174 0
M  V30 17 C -1.443336 2.094113 -1.670440 0
M  V30 18 C -2.612380 2.750408 -1.976486 0
M  V30 19 C -3.603853 2.056937 -2.631716 0
M  V30 20 C -3.488024 0.733309 -2.999771 0
M  V30 21 F -4.424651 0.007994 -3.640954 0
M  V30 22 C -2.278528 0.123209 -2.661317 0
M  V30 23 C -1.972048 -1.264426 -2.965731 0
M  V30 24 C -2.352504 -2.132155 -1.951847 0
M  V30 25 F -2.951775 -1.772939 -0.778188 0
M  V30 26 C -2.140305 -3.488932 -2.065732 0
M  V30 27 C -1.544981 -4.020356 -3.188804 0
M  V30 28 O -1.252630 -5.324173 -3.484464 0
M  V30 29 C -1.502051 -6.440075 -2.684499 0
M  V30 30 C -2.458261 -7.383889 -3.403650 0
M  V30 31 C -0.212224 -7.150241 -2.327723 0
M  V30 32 C -1.164566 -3.145128 -4.204510 0
M  V30 33 C -1.377080 -1.781969 -4.091515 0
M  V30 34 F -1.039434 -0.863503 -5.027875 0
M  V30 35 N -1.336217 0.820609 -2.026444 0
M  V30 36 C 0.823760 2.438019 3.492558 0
M  V30 37 C 0.880891 1.561649 4.685683 0 CFG=2
M  V30 38 C 2.295464 1.476726 5.267846 0
M  V30 39 H 0.366715 -1.126080 6.799416 0
M  V30 40 H -0.373147 -2.138320 5.525358 0
M  V30 41 H 1.285060 -2.484820 6.086024 0
M  V30 42 H -0.638459 0.048251 5.203008 0
M  V30 43 H -1.022919 0.764020 2.980665 0
M  V30 44 H -0.158184 -1.780510 2.198746 0
M  V30 45 H -1.699553 -1.242549 2.483139 0
M  V30 46 H 1.896275 -0.134832 2.713423 0
M  V30 47 H 0.777697 -0.191205 1.280907 0
M  V30 48 H 0.064678 1.998616 1.565591 0
M  V30 49 H 3.559177 2.515376 2.876181 0
M  V30 50 H 5.366806 3.344894 1.526554 0
M  V30 51 H 2.867293 3.113192 -1.889998 0
M  V30 52 H 0.923462 1.195336 -0.914119 0
M  V30 53 H -2.775013 3.791432 -1.718455 0
M  V30 54 H -4.548294 2.541582 -2.893419 0
M  V30 55 H -2.407254 -4.205122 -1.327780 0
M  V30 56 H -1.979849 -6.154344 -1.739580 0
M  V30 57 H -1.975509 -7.713610 -4.345531 0
M  V30 58 H -3.406537 -6.859836 -3.566601 0
M  V30 59 H -2.626943 -8.298910 -2.802256 0
M  V30 60 H -0.395893 -7.726806 -1.421241 0
M  V30 61 H 0.607762 -6.429849 -2.147742 0
M  V30 62 H 0.130148 -7.779525 -3.192340 0
M  V30 63 H -0.689765 -3.411007 -5.139137 0
M  V30 64 H 1.655795 3.192381 3.610689 0
M  V30 65 H -0.099139 3.073628 3.537489 0
M  V30 66 H 0.310081 2.068662 5.506926 0
M  V30 67 H 2.246603 1.044575 6.273216 0
M  V30 68 H 2.983699 0.917578 4.624703 0
M  V30 69 H 2.657847 2.527758 5.326791 0
M  V30 END ATOM
M  V30 BEGIN BOND
M  V30 1 1 1 2
M  V30 2 1 2 3
M  V30 3 1 3 4
M  V30 4 1 4 5
M  V30 5 1 4 6
M  V30 6 1 6 7
M  V30 7 1 7 8
M  V30 8 2 8 9
M  V30 9 1 9 10
M  V30 10 2 10 11
M  V30 11 1 11 12
M  V30 12 2 12 13
M  V30 13 1 13 14
M  V30 14 1 14 15
M  V30 15 2 15 16
M  V30 16 1 15 17
M  V30 17 2 17 18
M  V30 18 1 18 19
M  V30 19 2 19 20
M  V30 20 1 20 21
M  V30 21 1 20 22
M  V30 22 1 22 23
M  V30 23 2 23 24
M  V30 24 1 24 25
M  V30 25 1 24 26
M  V30 26 2 26 27
M  V30 27 1 27 28
M  V30 28 1 28 29
M  V30 29 1 29 30
M  V30 30 1 29 31
M  V30 31 1 27 32
M  V30 32 2 32 33
M  V30 33 1 33 34
M  V30 34 2 22 35
M  V30 35 1 7 36
M  V30 36 1 36 37
M  V30 37 1 37 38
M  V30 38 1 37 3
M  V30 39 1 13 8
M  V30 40 1 35 17
M  V30 41 1 33 23
M  V30 42 1 1 39
M  V30 43 1 1 40
M  V30 44 1 1 41
M  V30 45 1 3 42 CFG=1
M  V30 46 1 4 43 CFG=3
M  V30 47 1 5 44
M  V30 48 1 5 45
M  V30 49 1 6 46
M  V30 50 1 6 47
M  V30 51 1 7 48 CFG=3
M  V30 52 1 9 49
M  V30 53 1 10 50
M  V30 54 1 12 51
M  V30 55 1 14 52
M  V30 56 1 18 53
M  V30 57 1 19 54
M  V30 58 1 26 55
M  V30 59 1 29 56
M  V30 60 1 30 57
M  V30 61 1 30 58
M  V30 62 1 30 59
M  V30 63 1 31 60
M  V30 64 1 31 61
M  V30 65 1 31 62
M  V30 66 1 32 63
M  V30 67 1 36 64
M  V30 68 1 36 65
M  V30 69 1 37 66 CFG=1
M  V30 70 1 38 67
M  V30 71 1 38 68
M  V30 72 1 38 69
M  V30 END BOND
M  V30 END CTAB
M  END
>  <Dataset>  (67) 
ChEMBL_Kinases

>  <Ligand_Instance>  (67) 
nan

>  <PDB_ID>  (67) 
nan

>  <Standardized_SMILES>  (67) 
CO[C@@H]1[C@H](N)C[C@H](c2ccncc2NC(=O)c2ccc(F)c(-c3c(F)cc(OC(C)C)cc3F)n2)C[C@@H]1C

>  <Name>  (67) 
nan

>  <Pocket>  (67) 
nan

>  <ATP_Site>  (67) 
nan

>  <Peripheral>  (67) 
nan

>  <Num_H_Atoms_ProtBoundConf>  (67) 
nan

>  <Num_Resolved_Atoms>  (67) 
nan

>  <Num_Not_Resolved_Atoms>  (67) 
nan

$$$$
CHEMBL3687510
     RDKit          3D

  0  0  0  0  0  0  0  0  0  0999 V3000
M  V30 BEGIN CTAB
M  V30 COUNTS 69 72 0 0 0
M  V30 BEGIN ATOM
M  V30 1 C 7.361539 -1.085162 4.983466 0
M  V30 2 C 7.505578 -1.601413 3.579950 0
M  V30 3 O 6.666427 -0.862324 2.723837 0
M  V30 4 C 5.345698 -0.963653 3.089440 0
M  V30 5 C 4.493713 -0.172398 2.164516 0
M  V30 6 C 3.978430 -0.764563 1.031940 0
M  V30 7 C 3.177395 -0.091819 0.124081 0
M  V30 8 F 2.670577 -0.691980 -0.999489 0
M  V30 9 C 2.873904 1.243482 0.358185 0
M  V30 10 C 2.028537 1.941094 -0.605595 0
M  V30 11 N 0.742769 1.837751 -0.296044 0
M  V30 12 C -0.251204 2.394534 -1.027453 0
M  V30 13 C -1.683708 2.326052 -0.753290 0
M  V30 14 O -2.559320 2.868247 -1.476789 0
M  V30 15 N -1.993615 1.582176 0.418357 0
M  V30 16 C -3.216352 1.246918 1.075072 0
M  V30 17 C -3.594334 2.181925 2.016587 0
M  V30 18 N -4.731894 1.988946 2.712417 0
M  V30 19 C -5.512054 0.897423 2.507860 0
M  V30 20 C -5.100259 -0.012296 1.559664 0
M  V30 21 C -3.968223 0.104144 0.813187 0
M  V30 22 C -3.424796 -0.797883 -0.221292 0 CFG=1
M  V30 23 C -2.578655 -1.837176 0.467607 0
M  V30 24 C -2.495146 -3.120897 -0.323546 0 CFG=1
M  V30 25 N -3.343817 -4.093551 0.295749 0
M  V30 26 C -2.733863 -2.925690 -1.787196 0 CFG=1
M  V30 27 O -2.628020 -4.129130 -2.437371 0
M  V30 28 C -1.671793 -4.168436 -3.421265 0
M  V30 29 C -4.147298 -2.435227 -1.984693 0 CFG=1
M  V30 30 C -5.068796 -3.625623 -1.821079 0
M  V30 31 C -4.533133 -1.346120 -1.028679 0
M  V30 32 C 0.131450 3.099731 -2.147974 0
M  V30 33 C 1.459204 3.245050 -2.526564 0
M  V30 34 C 2.411027 2.646724 -1.726775 0
M  V30 35 F 3.755209 2.680564 -1.937163 0
M  V30 36 C 3.376564 1.870015 1.489169 0
M  V30 37 F 3.077656 3.173568 1.713807 0
M  V30 38 C 4.179724 1.163763 2.382547 0
M  V30 39 H 8.271240 -1.346383 5.562181 0
M  V30 40 H 6.441430 -1.521110 5.441124 0
M  V30 41 H 7.220107 0.013471 4.935875 0
M  V30 42 H 7.300500 -2.701007 3.493960 0
M  V30 43 H 8.535064 -1.433886 3.192206 0
M  V30 44 H 5.197902 -0.567064 4.136007 0
M  V30 45 H 4.979718 -2.023253 3.157846 0
M  V30 46 H 4.201714 -1.810544 0.825917 0
M  V30 47 H -1.300810 1.122059 1.038113 0
M  V30 48 H -3.041602 3.078596 2.249452 0
M  V30 49 H -6.428235 0.718703 3.051699 0
M  V30 50 H -5.709001 -0.887088 1.388659 0
M  V30 51 H -2.761580 -0.225170 -0.940454 0
M  V30 52 H -2.940147 -2.057947 1.497744 0
M  V30 53 H -1.558651 -1.414841 0.579685 0
M  V30 54 H -1.444113 -3.520281 -0.219595 0
M  V30 55 H -3.317540 -3.902857 1.342911 0
M  V30 56 H -3.029028 -5.086986 0.152655 0
M  V30 57 H -2.027264 -2.180964 -2.165042 0
M  V30 58 H -0.676124 -3.958006 -2.994723 0
M  V30 59 H -1.870288 -3.526328 -4.299515 0
M  V30 60 H -1.626462 -5.243934 -3.761698 0
M  V30 61 H -4.242693 -2.110869 -3.041655 0
M  V30 62 H -4.584539 -4.581614 -2.147325 0
M  V30 63 H -5.993155 -3.531095 -2.450463 0
M  V30 64 H -5.456078 -3.684363 -0.773342 0
M  V30 65 H -5.368638 -1.700129 -0.397817 0
M  V30 66 H -4.957286 -0.505823 -1.627576 0
M  V30 67 H -0.584727 3.581326 -2.797723 0
M  V30 68 H 1.802220 3.781157 -3.384583 0
M  V30 69 H 4.577784 1.653688 3.274621 0
M  V30 END ATOM
M  V30 BEGIN BOND
M  V30 1 1 1 2
M  V30 2 1 2 3
M  V30 3 1 3 4
M  V30 4 1 4 5
M  V30 5 2 5 6
M  V30 6 1 6 7
M  V30 7 1 7 8
M  V30 8 2 7 9
M  V30 9 1 9 10
M  V30 10 2 10 11
M  V30 11 1 11 12
M  V30 12 1 12 13
M  V30 13 2 13 14
M  V30 14 1 13 15
M  V30 15 1 15 16
M  V30 16 2 16 17
M  V30 17 1 17 18
M  V30 18 2 18 19
M  V30 19 1 19 20
M  V30 20 2 20 21
M  V30 21 1 21 22
M  V30 22 1 22 23
M  V30 23 1 23 24
M  V30 24 1 24 25
M  V30 25 1 24 26
M  V30 26 1 26 27
M  V30 27 1 27 28
M  V30 28 1 26 29
M  V30 29 1 29 30
M  V30 30 1 29 31
M  V30 31 2 12 32
M  V30 32 1 32 33
M  V30 33 2 33 34
M  V30 34 1 34 35
M  V30 35 1 9 36
M  V30 36 1 36 37
M  V30 37 2 36 38
M  V30 38 1 38 5
M  V30 39 1 34 10
M  V30 40 1 21 16
M  V30 41 1 31 22
M  V30 42 1 1 39
M  V30 43 1 1 40
M  V30 44 1 1 41
M  V30 45 1 2 42
M  V30 46 1 2 43
M  V30 47 1 4 44
M  V30 48 1 4 45
M  V30 49 1 6 46
M  V30 50 1 15 47
M  V30 51 1 17 48
M  V30 52 1 19 49
M  V30 53 1 20 50
M  V30 54 1 22 51 CFG=3
M  V30 55 1 23 52
M  V30 56 1 23 53
M  V30 57 1 24 54 CFG=3
M  V30 58 1 25 55
M  V30 59 1 25 56
M  V30 60 1 26 57 CFG=3
M  V30 61 1 28 58
M  V30 62 1 28 59
M  V30 63 1 28 60
M  V30 64 1 29 61 CFG=3
M  V30 65 1 30 62
M  V30 66 1 30 63
M  V30 67 1 30 64
M  V30 68 1 31 65
M  V30 69 1 31 66
M  V30 70 1 32 67
M  V30 71 1 33 68
M  V30 72 1 38 69
M  V30 END BOND
M  V30 END CTAB
M  END
>  <Dataset>  (68) 
ChEMBL_Kinases

>  <Ligand_Instance>  (68) 
nan

>  <PDB_ID>  (68) 
nan

>  <Standardized_SMILES>  (68) 
CCOCc1cc(F)c(-c2nc(C(=O)Nc3cnccc3[C@H]3C[C@@H](N)[C@@H](OC)[C@@H](C)C3)ccc2F)c(F)c1

>  <Name>  (68) 
nan

>  <Pocket>  (68) 
nan

>  <ATP_Site>  (68) 
nan

>  <Peripheral>  (68) 
nan

>  <Num_H_Atoms_ProtBoundConf>  (68) 
nan

>  <Num_Resolved_Atoms>  (68) 
nan

>  <Num_Not_Resolved_Atoms>  (68) 
nan

$$$$
CHEMBL3687509
     RDKit          3D

  0  0  0  0  0  0  0  0  0  0999 V3000
M  V30 BEGIN CTAB
M  V30 COUNTS 73 77 0 0 0
M  V30 BEGIN ATOM
M  V30 1 C 1.317161 2.960258 3.969712 0
M  V30 2 O 1.665803 2.440748 2.738527 0
M  V30 3 C 1.081497 3.138867 1.674629 0 CFG=2
M  V30 4 C 0.164357 2.182134 0.987233 0 CFG=2
M  V30 5 N -0.584206 1.324897 1.881469 0
M  V30 6 C 1.029978 1.281221 0.089280 0
M  V30 7 C 1.422828 2.079806 -1.150934 0 CFG=2
M  V30 8 C 2.367377 1.391575 -2.026061 0
M  V30 9 C 3.734385 1.550694 -2.128166 0
M  V30 10 C 4.569871 0.875775 -2.986895 0
M  V30 11 N 4.035716 -0.017940 -3.805290 0
M  V30 12 C 2.728697 -0.255677 -3.795960 0
M  V30 13 C 1.884513 0.427734 -2.926178 0
M  V30 14 N 0.509290 0.076315 -3.009537 0
M  V30 15 C -0.679943 0.441081 -3.699395 0
M  V30 16 O -0.679610 1.364777 -4.550279 0
M  V30 17 C -1.852415 -0.341519 -3.327095 0
M  V30 18 C -3.016493 -0.017881 -3.982190 0
M  V30 19 C -4.166021 -0.711114 -3.691377 0
M  V30 20 C -4.172004 -1.723476 -2.756201 0
M  V30 21 F -5.184809 -2.515321 -2.331985 0
M  V30 22 C -2.992832 -2.029675 -2.113137 0
M  V30 23 C -2.656023 -3.021019 -1.091706 0
M  V30 24 C -2.805527 -2.613118 0.214941 0
M  V30 25 F -3.247499 -1.367631 0.522378 0
M  V30 26 C -2.511809 -3.452757 1.265496 0
M  V30 27 C -2.049412 -4.752960 1.056862 0
M  V30 28 C -1.684061 -5.758108 2.105713 0
M  V30 29 C -2.733796 -5.936252 3.144142 0
M  V30 30 C -2.151907 -5.666266 4.511874 0
M  V30 31 O -1.642368 -4.349462 4.503374 0
M  V30 32 C -0.490889 -4.335397 3.747127 0
M  V30 33 C -0.361245 -5.459819 2.762869 0
M  V30 34 C -1.917073 -5.113222 -0.274823 0
M  V30 35 C -2.203230 -4.295873 -1.347388 0
M  V30 36 F -2.066939 -4.674905 -2.638563 0
M  V30 37 N -1.862278 -1.345575 -2.400843 0
M  V30 38 C 1.774191 3.450826 -0.733194 0
M  V30 39 C 2.090836 3.673633 0.720615 0 CFG=2
M  V30 40 C 3.512332 3.331766 1.104982 0
M  V30 41 H 1.776668 2.410104 4.816276 0
M  V30 42 H 1.650369 4.017207 4.009998 0
M  V30 43 H 0.219382 2.898868 4.096480 0
M  V30 44 H 0.465509 3.949529 2.166007 0
M  V30 45 H -0.602665 2.705676 0.347044 0
M  V30 46 H -1.200699 0.668203 1.393601 0
M  V30 47 H -1.226470 1.963219 2.442372 0
M  V30 48 H 0.358464 0.426313 -0.151723 0
M  V30 49 H 1.867675 0.925458 0.679232 0
M  V30 50 H 0.450923 2.128054 -1.740033 0
M  V30 51 H 4.179231 2.279051 -1.467909 0
M  V30 52 H 5.645613 1.104892 -2.960151 0
M  V30 53 H 2.346419 -0.994781 -4.485099 0
M  V30 54 H 0.518692 -0.705265 -2.285497 0
M  V30 55 H -3.044002 0.763785 -4.713723 0
M  V30 56 H -5.125443 -0.542931 -4.140387 0
M  V30 57 H -2.634178 -3.143275 2.269947 0
M  V30 58 H -1.535893 -6.767376 1.623306 0
M  V30 59 H -3.129520 -6.987510 3.195616 0
M  V30 60 H -3.596912 -5.218290 3.026367 0
M  V30 61 H -1.319918 -6.362484 4.761421 0
M  V30 62 H -2.906467 -5.814369 5.306190 0
M  V30 63 H -0.465797 -3.361810 3.185157 0
M  V30 64 H 0.425329 -4.268013 4.408047 0
M  V30 65 H 0.087130 -6.367292 3.221080 0
M  V30 66 H 0.385199 -5.095986 1.992167 0
M  V30 67 H -1.568106 -6.093480 -0.535380 0
M  V30 68 H 2.538525 3.944201 -1.378551 0
M  V30 69 H 0.869423 4.113700 -0.916168 0
M  V30 70 H 2.048475 4.807831 0.844496 0
M  V30 71 H 3.801242 2.294760 0.946596 0
M  V30 72 H 4.199919 4.051268 0.579807 0
M  V30 73 H 3.586172 3.527976 2.192512 0
M  V30 END ATOM
M  V30 BEGIN BOND
M  V30 1 1 1 2
M  V30 2 1 2 3
M  V30 3 1 3 4
M  V30 4 1 4 5
M  V30 5 1 4 6
M  V30 6 1 6 7
M  V30 7 1 7 8
M  V30 8 2 8 9
M  V30 9 1 9 10
M  V30 10 2 10 11
M  V30 11 1 11 12
M  V30 12 2 12 13
M  V30 13 1 13 14
M  V30 14 1 14 15
M  V30 15 2 15 16
M  V30 16 1 15 17
M  V30 17 2 17 18
M  V30 18 1 18 19
M  V30 19 2 19 20
M  V30 20 1 20 21
M  V30 21 1 20 22
M  V30 22 1 22 23
M  V30 23 2 23 24
M  V30 24 1 24 25
M  V30 25 1 24 26
M  V30 26 2 26 27
M  V30 27 1 27 28
M  V30 28 1 28 29
M  V30 29 1 29 30
M  V30 30 1 30 31
M  V30 31 1 31 32
M  V30 32 1 32 33
M  V30 33 1 27 34
M  V30 34 2 34 35
M  V30 35 1 35 36
M  V30 36 2 22 37
M  V30 37 1 7 38
M  V30 38 1 38 39
M  V30 39 1 39 40
M  V30 40 1 39 3
M  V30 41 1 13 8
M  V30 42 1 37 17
M  V30 43 1 35 23
M  V30 44 1 33 28
M  V30 45 1 1 41
M  V30 46 1 1 42
M  V30 47 1 1 43
M  V30 48 1 3 44 CFG=1
M  V30 49 1 4 45 CFG=3
M  V30 50 1 5 46
M  V30 51 1 5 47
M  V30 52 1 6 48
M  V30 53 1 6 49
M  V30 54 1 7 50 CFG=3
M  V30 55 1 9 51
M  V30 56 1 10 52
M  V30 57 1 12 53
M  V30 58 1 14 54
M  V30 59 1 18 55
M  V30 60 1 19 56
M  V30 61 1 26 57
M  V30 62 1 28 58
M  V30 63 1 29 59
M  V30 64 1 29 60
M  V30 65 1 30 61
M  V30 66 1 30 62
M  V30 67 1 32 63
M  V30 68 1 32 64
M  V30 69 1 33 65
M  V30 70 1 33 66
M  V30 71 1 34 67
M  V30 72 1 38 68
M  V30 73 1 38 69
M  V30 74 1 39 70 CFG=3
M  V30 75 1 40 71
M  V30 76 1 40 72
M  V30 77 1 40 73
M  V30 END BOND
M  V30 END CTAB
M  END
>  <Dataset>  (69) 
ChEMBL_Kinases

>  <Ligand_Instance>  (69) 
nan

>  <PDB_ID>  (69) 
nan

>  <Standardized_SMILES>  (69) 
CO[C@@H]1[C@H](N)C[C@H](c2ccncc2NC(=O)c2ccc(F)c(-c3c(F)cc(C4CCOCC4)cc3F)n2)C[C@@H]1C

>  <Name>  (69) 
nan

>  <Pocket>  (69) 
nan

>  <ATP_Site>  (69) 
nan

>  <Peripheral>  (69) 
nan

>  <Num_H_Atoms_ProtBoundConf>  (69) 
nan

>  <Num_Resolved_Atoms>  (69) 
nan

>  <Num_Not_Resolved_Atoms>  (69) 
nan

$$$$
CHEMBL3687508
     RDKit          3D

  0  0  0  0  0  0  0  0  0  0999 V3000
M  V30 BEGIN CTAB
M  V30 COUNTS 70 74 0 0 0
M  V30 BEGIN ATOM
M  V30 1 C 0.302101 2.381109 3.388631 0
M  V30 2 O 1.352953 1.820279 2.681503 0
M  V30 3 C 2.289355 1.199746 3.491920 0 CFG=2
M  V30 4 C 3.597539 1.932372 3.209724 0 CFG=2
M  V30 5 N 3.405562 3.304565 3.643619 0
M  V30 6 C 3.679145 1.992971 1.673076 0
M  V30 7 C 3.811295 0.552116 1.230504 0 CFG=2
M  V30 8 C 4.366538 0.343742 -0.093881 0
M  V30 9 C 5.725040 0.010396 -0.255331 0
M  V30 10 C 6.255611 -0.193343 -1.504674 0
M  V30 11 N 5.548061 -0.097601 -2.670886 0
M  V30 12 C 4.215492 0.226693 -2.558997 0
M  V30 13 C 3.676907 0.435029 -1.279468 0
M  V30 14 N 2.351167 0.784103 -1.329004 0
M  V30 15 C 1.084671 1.163974 -1.379382 0
M  V30 16 O 1.588591 2.392960 -1.447107 0
M  V30 17 C -0.305916 1.399227 -1.423062 0
M  V30 18 C -1.034098 2.547504 -1.488251 0
M  V30 19 C -2.395522 2.356936 -1.498246 0
M  V30 20 C -2.989619 1.116838 -1.447296 0
M  V30 21 F -4.344777 1.081252 -1.465428 0
M  V30 22 C -2.221058 -0.025445 -1.382169 0
M  V30 23 C -2.976151 -1.269950 -1.338313 0
M  V30 24 C -3.308667 -1.846542 -0.132417 0
M  V30 25 F -2.946512 -1.290098 1.057783 0
M  V30 26 C -4.022595 -3.016568 -0.006838 0
M  V30 27 C -4.446145 -3.674890 -1.164188 0
M  V30 28 C -5.207810 -4.911597 -1.396041 0
M  V30 29 O -4.647995 -5.746039 -2.365188 0
M  V30 30 C -5.619445 -5.710693 -0.188292 0
M  V30 31 C -7.075664 -5.316471 -0.341370 0
M  V30 32 C -6.690432 -4.687034 -1.662971 0
M  V30 33 C -4.106545 -3.086189 -2.367472 0
M  V30 34 C -3.392589 -1.916654 -2.509418 0
M  V30 35 F -3.039464 -1.311171 -3.654653 0
M  V30 36 N -0.891359 0.185768 -1.373591 0
M  V30 37 C 2.586942 -0.263077 1.577567 0
M  V30 38 C 2.561077 -0.240330 3.111834 0 CFG=2
M  V30 39 C 1.612734 -1.207324 3.718289 0
M  V30 40 H 0.669624 3.167459 4.110946 0
M  V30 41 H -0.385080 1.662619 3.840832 0
M  V30 42 H -0.308273 2.948380 2.642219 0
M  V30 43 H 2.026415 1.258682 4.568555 0
M  V30 44 H 4.466795 1.449716 3.657955 0
M  V30 45 H 3.141989 3.335212 4.645471 0
M  V30 46 H 4.318076 3.842450 3.573273 0
M  V30 47 H 4.543622 2.547248 1.316031 0
M  V30 48 H 2.693925 2.424422 1.383008 0
M  V30 49 H 4.600929 0.141792 1.950191 0
M  V30 50 H 6.372692 -0.090104 0.601539 0
M  V30 51 H 7.272824 -0.446022 -1.678699 0
M  V30 52 H 3.657838 0.303472 -3.479291 0
M  V30 53 H 1.995253 -0.253932 -1.244952 0
M  V30 54 H -0.488485 3.456110 -1.524306 0
M  V30 55 H -2.926547 3.323717 -1.552928 0
M  V30 56 H -4.328711 -3.542460 0.880446 0
M  V30 57 H -5.386327 -6.260053 -2.773066 0
M  V30 58 H -5.169052 -5.358173 0.753675 0
M  V30 59 H -5.463087 -6.809221 -0.280401 0
M  V30 60 H -7.408616 -4.602739 0.433633 0
M  V30 61 H -7.736365 -6.204245 -0.440216 0
M  V30 62 H -7.079621 -5.257228 -2.523001 0
M  V30 63 H -6.920268 -3.587812 -1.661242 0
M  V30 64 H -4.353826 -3.461996 -3.376173 0
M  V30 65 H 1.650732 0.119148 1.168008 0
M  V30 66 H 2.779569 -1.309382 1.278645 0
M  V30 67 H 3.597523 -0.522945 3.413346 0
M  V30 68 H 2.039578 -1.603371 4.686829 0
M  V30 69 H 1.355062 -2.085533 3.119296 0
M  V30 70 H 0.705164 -0.636099 4.068365 0
M  V30 END ATOM
M  V30 BEGIN BOND
M  V30 1 1 1 2
M  V30 2 1 2 3
M  V30 3 1 3 4
M  V30 4 1 4 5
M  V30 5 1 4 6
M  V30 6 1 6 7
M  V30 7 1 7 8
M  V30 8 2 8 9
M  V30 9 1 9 10
M  V30 10 2 10 11
M  V30 11 1 11 12
M  V30 12 2 12 13
M  V30 13 1 13 14
M  V30 14 1 14 15
M  V30 15 2 15 16
M  V30 16 1 15 17
M  V30 17 2 17 18
M  V30 18 1 18 19
M  V30 19 2 19 20
M  V30 20 1 20 21
M  V30 21 1 20 22
M  V30 22 1 22 23
M  V30 23 2 23 24
M  V30 24 1 24 25
M  V30 25 1 24 26
M  V30 26 2 26 27
M  V30 27 1 27 28
M  V30 28 1 28 29
M  V30 29 1 28 30
M  V30 30 1 30 31
M  V30 31 1 31 32
M  V30 32 1 27 33
M  V30 33 2 33 34
M  V30 34 1 34 35
M  V30 35 2 22 36
M  V30 36 1 7 37
M  V30 37 1 37 38
M  V30 38 1 38 39
M  V30 39 1 38 3
M  V30 40 1 13 8
M  V30 41 1 36 17
M  V30 42 1 34 23
M  V30 43 1 32 28
M  V30 44 1 1 40
M  V30 45 1 1 41
M  V30 46 1 1 42
M  V30 47 1 3 43 CFG=1
M  V30 48 1 4 44 CFG=1
M  V30 49 1 5 45
M  V30 50 1 5 46
M  V30 51 1 6 47
M  V30 52 1 6 48
M  V30 53 1 7 49 CFG=1
M  V30 54 1 9 50
M  V30 55 1 10 51
M  V30 56 1 12 52
M  V30 57 1 14 53
M  V30 58 1 18 54
M  V30 59 1 19 55
M  V30 60 1 26 56
M  V30 61 1 29 57
M  V30 62 1 30 58
M  V30 63 1 30 59
M  V30 64 1 31 60
M  V30 65 1 31 61
M  V30 66 1 32 62
M  V30 67 1 32 63
M  V30 68 1 33 64
M  V30 69 1 37 65
M  V30 70 1 37 66
M  V30 71 1 38 67 CFG=1
M  V30 72 1 39 68
M  V30 73 1 39 69
M  V30 74 1 39 70
M  V30 END BOND
M  V30 END CTAB
M  END
>  <Dataset>  (70) 
ChEMBL_Kinases

>  <Ligand_Instance>  (70) 
nan

>  <PDB_ID>  (70) 
nan

>  <Standardized_SMILES>  (70) 
CO[C@@H]1[C@H](N)C[C@H](c2ccncc2NC(=O)c2ccc(F)c(-c3c(F)cc(C4(O)CCC4)cc3F)n2)C[C@@H]1C

>  <Name>  (70) 
nan

>  <Pocket>  (70) 
nan

>  <ATP_Site>  (70) 
nan

>  <Peripheral>  (70) 
nan

>  <Num_H_Atoms_ProtBoundConf>  (70) 
nan

>  <Num_Resolved_Atoms>  (70) 
nan

>  <Num_Not_Resolved_Atoms>  (70) 
nan

$$$$
CHEMBL3687507
     RDKit          3D

  0  0  0  0  0  0  0  0  0  0999 V3000
M  V30 BEGIN CTAB
M  V30 COUNTS 69 72 0 0 0
M  V30 BEGIN ATOM
M  V30 1 C 1.692265 -2.112553 5.051017 0
M  V30 2 O 1.649610 -0.846425 4.421254 0
M  V30 3 C 2.138976 -0.931619 3.130183 0 CFG=2
M  V30 4 C 3.434972 -0.161322 2.933139 0 CFG=2
M  V30 5 N 3.349602 1.225179 3.251477 0
M  V30 6 C 3.921072 -0.497833 1.569336 0
M  V30 7 C 2.966551 0.068242 0.483228 0 CFG=2
M  V30 8 C 2.985861 1.492441 0.374848 0
M  V30 9 C 4.279258 1.958314 0.697942 0
M  V30 10 C 4.673160 3.299879 0.743755 0
M  V30 11 N 3.749838 4.234931 0.457168 0
M  V30 12 C 2.511638 3.845583 0.143804 0
M  V30 13 C 2.148770 2.523304 0.104491 0
M  V30 14 N 0.866746 2.143993 -0.267186 0
M  V30 15 C -0.268124 2.918476 -0.595051 0
M  V30 16 O -0.205609 4.176447 -0.574641 0
M  V30 17 C -1.589200 2.411051 -0.979137 0
M  V30 18 C -2.652403 3.201273 -1.284424 0
M  V30 19 C -3.870937 2.706276 -1.638315 0
M  V30 20 C -4.100302 1.351483 -1.708525 0
M  V30 21 F -5.289107 0.837088 -2.053856 0
M  V30 22 C -3.018442 0.574556 -1.397802 0
M  V30 23 C -3.112493 -0.887113 -1.429195 0
M  V30 24 C -3.484785 -1.629304 -0.320884 0
M  V30 25 F -3.766736 -0.963548 0.818630 0
M  V30 26 C -3.553422 -3.006337 -0.419708 0
M  V30 27 C -3.254702 -3.663402 -1.615173 0
M  V30 28 C -3.370294 -5.142188 -1.576126 0
M  V30 29 C -3.022495 -5.752616 -2.930508 0
M  V30 30 C -4.782306 -5.531729 -1.210511 0
M  V30 31 O -2.524722 -5.724077 -0.637386 0
M  V30 32 C -2.886003 -2.900005 -2.705854 0
M  V30 33 C -2.813065 -1.524536 -2.622314 0
M  V30 34 F -2.439173 -0.897841 -3.764411 0
M  V30 35 N -1.819187 1.067364 -1.049501 0
M  V30 36 C 1.715453 -0.695550 0.725712 0
M  V30 37 C 1.100814 -0.613282 2.079582 0 CFG=2
M  V30 38 C 0.258825 0.552702 2.403109 0
M  V30 39 H 1.094455 -2.867216 4.525085 0
M  V30 40 H 1.435211 -2.018491 6.120821 0
M  V30 41 H 2.750829 -2.503480 5.049012 0
M  V30 42 H 2.429146 -1.990771 2.959480 0
M  V30 43 H 4.147945 -0.618181 3.649780 0
M  V30 44 H 2.707745 1.340922 4.070738 0
M  V30 45 H 4.281125 1.575556 3.628510 0
M  V30 46 H 4.964365 -0.387755 1.344647 0
M  V30 47 H 3.744697 -1.624941 1.476671 0
M  V30 48 H 3.409108 -0.370729 -0.464566 0
M  V30 49 H 5.218833 1.447412 0.963861 0
M  V30 50 H 5.663796 3.714158 0.989142 0
M  V30 51 H 1.876244 4.687789 -0.062490 0
M  V30 52 H 0.512552 1.199740 -0.381517 0
M  V30 53 H -2.477770 4.260839 -1.230764 0
M  V30 54 H -4.680187 3.401827 -1.870417 0
M  V30 55 H -3.849452 -3.534326 0.476748 0
M  V30 56 H -3.699968 -5.329712 -3.686030 0
M  V30 57 H -1.959235 -5.452022 -3.152985 0
M  V30 58 H -3.084511 -6.847564 -2.833529 0
M  V30 59 H -4.879838 -6.617225 -1.394781 0
M  V30 60 H -5.492866 -4.975575 -1.861239 0
M  V30 61 H -4.938886 -5.272755 -0.134377 0
M  V30 62 H -2.046341 -4.983064 -0.152975 0
M  V30 63 H -2.665853 -3.468954 -3.607609 0
M  V30 64 H 1.020899 -0.840936 -0.102415 0
M  V30 65 H 2.146486 -1.804116 0.761352 0
M  V30 66 H 0.394015 -1.513442 2.124328 0
M  V30 67 H -0.225568 0.383169 3.372607 0
M  V30 68 H 0.771912 1.519411 2.458996 0
M  V30 69 H -0.579954 0.577355 1.660072 0
M  V30 END ATOM
M  V30 BEGIN BOND
M  V30 1 1 1 2
M  V30 2 1 2 3
M  V30 3 1 3 4
M  V30 4 1 4 5
M  V30 5 1 4 6
M  V30 6 1 6 7
M  V30 7 1 7 8
M  V30 8 2 8 9
M  V30 9 1 9 10
M  V30 10 2 10 11
M  V30 11 1 11 12
M  V30 12 2 12 13
M  V30 13 1 13 14
M  V30 14 1 14 15
M  V30 15 2 15 16
M  V30 16 1 15 17
M  V30 17 2 17 18
M  V30 18 1 18 19
M  V30 19 2 19 20
M  V30 20 1 20 21
M  V30 21 1 20 22
M  V30 22 1 22 23
M  V30 23 2 23 24
M  V30 24 1 24 25
M  V30 25 1 24 26
M  V30 26 2 26 27
M  V30 27 1 27 28
M  V30 28 1 28 29
M  V30 29 1 28 30
M  V30 30 1 28 31
M  V30 31 1 27 32
M  V30 32 2 32 33
M  V30 33 1 33 34
M  V30 34 2 22 35
M  V30 35 1 7 36
M  V30 36 1 36 37
M  V30 37 1 37 38
M  V30 38 1 37 3
M  V30 39 1 13 8
M  V30 40 1 35 17
M  V30 41 1 33 23
M  V30 42 1 1 39
M  V30 43 1 1 40
M  V30 44 1 1 41
M  V30 45 1 3 42 CFG=3
M  V30 46 1 4 43 CFG=1
M  V30 47 1 5 44
M  V30 48 1 5 45
M  V30 49 1 6 46
M  V30 50 1 6 47
M  V30 51 1 7 48 CFG=3
M  V30 52 1 9 49
M  V30 53 1 10 50
M  V30 54 1 12 51
M  V30 55 1 14 52
M  V30 56 1 18 53
M  V30 57 1 19 54
M  V30 58 1 26 55
M  V30 59 1 29 56
M  V30 60 1 29 57
M  V30 61 1 29 58
M  V30 62 1 30 59
M  V30 63 1 30 60
M  V30 64 1 30 61
M  V30 65 1 31 62
M  V30 66 1 32 63
M  V30 67 1 36 64
M  V30 68 1 36 65
M  V30 69 1 37 66 CFG=3
M  V30 70 1 38 67
M  V30 71 1 38 68
M  V30 72 1 38 69
M  V30 END BOND
M  V30 END CTAB
M  END
>  <Dataset>  (71) 
ChEMBL_Kinases

>  <Ligand_Instance>  (71) 
nan

>  <PDB_ID>  (71) 
nan

>  <Standardized_SMILES>  (71) 
CO[C@@H]1[C@H](N)C[C@H](c2ccncc2NC(=O)c2ccc(F)c(-c3c(F)cc(C(C)(C)O)cc3F)n2)C[C@@H]1C

>  <Name>  (71) 
nan

>  <Pocket>  (71) 
nan

>  <ATP_Site>  (71) 
nan

>  <Peripheral>  (71) 
nan

>  <Num_H_Atoms_ProtBoundConf>  (71) 
nan

>  <Num_Resolved_Atoms>  (71) 
nan

>  <Num_Not_Resolved_Atoms>  (71) 
nan

$$$$
CHEMBL4438679
     RDKit          3D

  0  0  0  0  0  0  0  0  0  0999 V3000
M  V30 BEGIN CTAB
M  V30 COUNTS 72 75 0 0 0
M  V30 BEGIN ATOM
M  V30 1 C 1.845473 -4.465257 3.854298 0
M  V30 2 C 2.206568 -3.737013 2.571877 0
M  V30 3 N 3.058183 -2.607684 2.897248 0
M  V30 4 C 4.401266 -2.585200 2.423795 0
M  V30 5 O 4.841342 -3.551233 1.723153 0
M  V30 6 C 5.279624 -1.483264 2.723310 0
M  V30 7 C 6.587989 -1.324864 2.349530 0
M  V30 8 N 7.040927 -0.138010 2.844584 0
M  V30 9 N 6.034414 0.440386 3.518315 0
M  V30 10 C 5.996142 1.689106 4.219660 0
M  V30 11 C 6.031323 2.760311 3.322742 0
M  V30 12 C 6.003720 4.061835 3.772466 0
M  V30 13 C 5.939799 4.291190 5.144916 0
M  V30 14 C 5.905419 3.228262 6.023486 0
M  V30 15 C 5.932766 1.928490 5.577593 0
M  V30 16 C 4.931322 -0.355763 3.467951 0
M  V30 17 C 0.995319 -3.342154 1.844552 0
M  V30 18 C 0.312234 -2.230738 2.352509 0
M  V30 19 C -0.855142 -1.767485 1.734316 0
M  V30 20 C -1.364146 -2.388531 0.613031 0
M  V30 21 C -2.584131 -1.823638 0.051171 0
M  V30 22 O -3.093586 -0.827849 0.620991 0
M  V30 23 N -3.190424 -2.367908 -1.101582 0
M  V30 24 C -4.367524 -2.035311 -1.872275 0 CFG=1
M  V30 25 C -4.187557 -2.091165 -3.348182 0
M  V30 26 C -3.208501 -1.237101 -4.006653 0
M  V30 27 C -3.298713 0.231199 -3.987404 0
M  V30 28 C -3.258839 0.954773 -2.703975 0
M  V30 29 C -4.495019 1.739302 -2.370644 0
M  V30 30 C -4.962864 2.629511 -3.482811 0
M  V30 31 C -4.263977 2.281409 -4.803932 0
M  V30 32 C -4.404253 0.764499 -4.915009 0
M  V30 33 C -5.368548 -3.151727 -1.562893 0
M  V30 34 N -6.600000 -2.979498 -2.245901 0
M  V30 35 O -5.863837 -4.194094 -1.072504 0
M  V30 36 C -0.692897 -3.481719 0.112919 0
M  V30 37 C 0.473117 -3.951702 0.722913 0
M  V30 38 H 2.557805 -5.288973 4.087202 0
M  V30 39 H 0.830960 -4.918263 3.807378 0
M  V30 40 H 1.822702 -3.696809 4.665797 0
M  V30 41 H 2.805677 -4.434051 1.957022 0
M  V30 42 H 2.710193 -1.800551 3.476013 0
M  V30 43 H 7.211038 -2.007877 1.753122 0
M  V30 44 H 6.081459 2.694022 2.237816 0
M  V30 45 H 6.028326 4.935965 3.126211 0
M  V30 46 H 5.916022 5.313144 5.532491 0
M  V30 47 H 5.855308 3.350962 7.111566 0
M  V30 48 H 5.910859 1.016897 6.161291 0
M  V30 49 H 3.956089 -0.193652 3.901350 0
M  V30 50 H 0.685814 -1.707172 3.246232 0
M  V30 51 H -1.316072 -0.892256 2.206612 0
M  V30 52 H -2.774003 -3.198603 -1.579547 0
M  V30 53 H -4.898506 -1.139017 -1.577971 0
M  V30 54 H -5.215624 -2.059342 -3.792691 0
M  V30 55 H -3.879252 -3.169039 -3.564918 0
M  V30 56 H -2.173595 -1.497235 -3.635163 0
M  V30 57 H -3.146352 -1.544563 -5.103860 0
M  V30 58 H -2.367560 0.580059 -4.555486 0
M  V30 59 H -3.039514 0.267806 -1.875349 0
M  V30 60 H -2.401682 1.704637 -2.648349 0
M  V30 61 H -5.346983 1.141872 -2.002741 0
M  V30 62 H -4.221517 2.418951 -1.516994 0
M  V30 63 H -4.852267 3.712094 -3.265882 0
M  V30 64 H -6.047531 2.467344 -3.683090 0
M  V30 65 H -3.195526 2.555809 -4.635255 0
M  V30 66 H -4.742904 2.827894 -5.618460 0
M  V30 67 H -5.407912 0.522095 -4.574655 0
M  V30 68 H -4.165545 0.495780 -5.957095 0
M  V30 69 H -7.489566 -2.609502 -2.663710 0
M  V30 70 H -7.487752 -2.873206 -2.743805 0
M  V30 71 H -1.084484 -3.968079 -0.758575 0
M  V30 72 H 1.007174 -4.806636 0.340567 0
M  V30 END ATOM
M  V30 BEGIN BOND
M  V30 1 1 1 2
M  V30 2 1 2 3
M  V30 3 1 3 4
M  V30 4 2 4 5
M  V30 5 1 4 6
M  V30 6 1 6 7
M  V30 7 2 7 8
M  V30 8 1 8 9
M  V30 9 1 9 10
M  V30 10 2 10 11
M  V30 11 1 11 12
M  V30 12 2 12 13
M  V30 13 1 13 14
M  V30 14 2 14 15
M  V30 15 1 9 16
M  V30 16 1 2 17
M  V30 17 2 17 18
M  V30 18 1 18 19
M  V30 19 2 19 20
M  V30 20 1 20 21
M  V30 21 2 21 22
M  V30 22 1 21 23
M  V30 23 1 23 24
M  V30 24 1 24 25
M  V30 25 1 25 26
M  V30 26 1 26 27
M  V30 27 1 27 28
M  V30 28 1 28 29
M  V30 29 1 29 30
M  V30 30 1 30 31
M  V30 31 1 31 32
M  V30 32 1 24 33
M  V30 33 1 33 34
M  V30 34 2 33 35
M  V30 35 1 20 36
M  V30 36 2 36 37
M  V30 37 2 16 6
M  V30 38 1 37 17
M  V30 39 1 15 10
M  V30 40 1 32 27
M  V30 41 1 1 38
M  V30 42 1 1 39
M  V30 43 1 1 40
M  V30 44 1 2 41
M  V30 45 1 3 42
M  V30 46 1 7 43
M  V30 47 1 11 44
M  V30 48 1 12 45
M  V30 49 1 13 46
M  V30 50 1 14 47
M  V30 51 1 15 48
M  V30 52 1 16 49
M  V30 53 1 18 50
M  V30 54 1 19 51
M  V30 55 1 23 52
M  V30 56 1 24 53 CFG=3
M  V30 57 1 25 54
M  V30 58 1 25 55
M  V30 59 1 26 56
M  V30 60 1 26 57
M  V30 61 1 27 58
M  V30 62 1 28 59
M  V30 63 1 28 60
M  V30 64 1 29 61
M  V30 65 1 29 62
M  V30 66 1 30 63
M  V30 67 1 30 64
M  V30 68 1 31 65
M  V30 69 1 31 66
M  V30 70 1 32 67
M  V30 71 1 32 68
M  V30 72 1 34 69
M  V30 73 1 34 70
M  V30 74 1 36 71
M  V30 75 1 37 72
M  V30 END BOND
M  V30 END CTAB
M  END
>  <Dataset>  (72) 
ChEMBL_Kinases

>  <Ligand_Instance>  (72) 
nan

>  <PDB_ID>  (72) 
nan

>  <Standardized_SMILES>  (72) 
CC(NC(=O)c1cnn(-c2ccccc2)c1)c1ccc(C(=O)N[C@@H](CCC2CCCCC2)C(N)=O)cc1

>  <Name>  (72) 
nan

>  <Pocket>  (72) 
nan

>  <ATP_Site>  (72) 
nan

>  <Peripheral>  (72) 
nan

>  <Num_H_Atoms_ProtBoundConf>  (72) 
nan

>  <Num_Resolved_Atoms>  (72) 
nan

>  <Num_Not_Resolved_Atoms>  (72) 
nan

$$$$
CHEMBL4576703
     RDKit          3D

  0  0  0  0  0  0  0  0  0  0999 V3000
M  V30 BEGIN CTAB
M  V30 COUNTS 50 54 0 0 0
M  V30 BEGIN ATOM
M  V30 1 C 0.479542 -3.295331 3.444550 0
M  V30 2 C 1.243737 -3.047311 2.193042 0
M  V30 3 C 2.347815 -3.872159 1.962625 0
M  V30 4 C 3.067812 -3.655732 0.808112 0
M  V30 5 C 2.758397 -2.682957 -0.115862 0
M  V30 6 C 1.663513 -1.895921 0.152145 0
M  V30 7 C 1.040891 -0.775967 -0.573150 0
M  V30 8 N 1.575512 0.454072 -0.599274 0
M  V30 9 N 0.791831 1.264193 -1.304229 0
M  V30 10 C 1.136660 2.686913 -1.472020 0
M  V30 11 C 0.460827 3.329613 -0.277046 0
M  V30 12 O -0.625273 3.938979 -0.312187 0
M  V30 13 N 1.108973 3.227553 0.966740 0
M  V30 14 C 0.715740 3.718266 2.235451 0
M  V30 15 C -0.393764 4.451648 2.554181 0
M  V30 16 C -0.709900 4.883903 3.824875 0
M  V30 17 C 0.115151 4.583550 4.887054 0
M  V30 18 C 1.245130 3.846367 4.612691 0
M  V30 19 C 1.501431 3.449820 3.334580 0
M  V30 20 C -0.264849 0.575451 -1.750933 0
M  V30 21 C -0.128697 -0.717811 -1.300035 0
M  V30 22 C -0.934472 -1.922226 -1.449598 0
M  V30 23 C -2.203941 -2.410211 -1.066369 0
M  V30 24 C -2.527439 -3.655893 -1.463046 0
M  V30 25 C -3.688312 -4.340481 -1.218369 0
M  V30 26 N -3.880794 -5.563004 -1.665929 0
M  V30 27 C -3.042008 -6.313997 -2.392139 0
M  V30 28 C -1.840491 -5.730191 -2.700779 0
M  V30 29 C -1.617910 -4.445729 -2.239143 0
M  V30 30 S -0.155198 -3.295593 -2.421804 0
M  V30 31 N 0.935469 -2.084505 1.280251 0
M  V30 32 H -0.160954 -4.177237 3.248185 0
M  V30 33 H 1.193055 -3.535556 4.253966 0
M  V30 34 H -0.098922 -2.370728 3.650128 0
M  V30 35 H 2.681770 -4.666812 2.621043 0
M  V30 36 H 3.954288 -4.240642 0.519055 0
M  V30 37 H 3.213636 -2.396679 -1.047072 0
M  V30 38 H 0.746158 3.082893 -2.409203 0
M  V30 39 H 2.233884 2.800250 -1.369984 0
M  V30 40 H 2.027995 2.704668 0.929599 0
M  V30 41 H -1.070744 4.715983 1.775169 0
M  V30 42 H -1.612002 5.461306 3.996837 0
M  V30 43 H -0.099352 4.902179 5.895203 0
M  V30 44 H 1.879513 3.615743 5.431970 0
M  V30 45 H 2.413116 2.870723 3.224453 0
M  V30 46 H -1.069527 0.932245 -2.343509 0
M  V30 47 H -2.789762 -1.727771 -0.491864 0
M  V30 48 H -4.497768 -3.909556 -0.645692 0
M  V30 49 H -3.196615 -7.298485 -2.750895 0
M  V30 50 H -1.021629 -6.109270 -3.252512 0
M  V30 END ATOM
M  V30 BEGIN BOND
M  V30 1 1 1 2
M  V30 2 2 2 3
M  V30 3 1 3 4
M  V30 4 2 4 5
M  V30 5 1 5 6
M  V30 6 1 6 7
M  V30 7 2 7 8
M  V30 8 1 8 9
M  V30 9 1 9 10
M  V30 10 1 10 11
M  V30 11 2 11 12
M  V30 12 1 11 13
M  V30 13 1 13 14
M  V30 14 2 14 15
M  V30 15 1 15 16
M  V30 16 2 16 17
M  V30 17 1 17 18
M  V30 18 2 18 19
M  V30 19 1 9 20
M  V30 20 2 20 21
M  V30 21 1 21 22
M  V30 22 2 22 23
M  V30 23 1 23 24
M  V30 24 2 24 25
M  V30 25 1 25 26
M  V30 26 2 26 27
M  V30 27 1 27 28
M  V30 28 2 28 29
M  V30 29 1 29 30
M  V30 30 2 6 31
M  V30 31 1 31 2
M  V30 32 1 21 7
M  V30 33 1 30 22
M  V30 34 1 19 14
M  V30 35 1 29 24
M  V30 36 1 1 32
M  V30 37 1 1 33
M  V30 38 1 1 34
M  V30 39 1 3 35
M  V30 40 1 4 36
M  V30 41 1 5 37
M  V30 42 1 10 38
M  V30 43 1 10 39
M  V30 44 1 13 40
M  V30 45 1 15 41
M  V30 46 1 16 42
M  V30 47 1 17 43
M  V30 48 1 18 44
M  V30 49 1 19 45
M  V30 50 1 20 46
M  V30 51 1 23 47
M  V30 52 1 25 48
M  V30 53 1 27 49
M  V30 54 1 28 50
M  V30 END BOND
M  V30 END CTAB
M  END
>  <Dataset>  (73) 
ChEMBL_Kinases

>  <Ligand_Instance>  (73) 
nan

>  <PDB_ID>  (73) 
nan

>  <Standardized_SMILES>  (73) 
Cc1cccc(-c2nn(CC(=O)Nc3ccccc3)cc2-c2cc3cnccc3s2)n1

>  <Name>  (73) 
nan

>  <Pocket>  (73) 
nan

>  <ATP_Site>  (73) 
nan

>  <Peripheral>  (73) 
nan

>  <Num_H_Atoms_ProtBoundConf>  (73) 
nan

>  <Num_Resolved_Atoms>  (73) 
nan

>  <Num_Not_Resolved_Atoms>  (73) 
nan

$$$$
CHEMBL4438453
     RDKit          3D

  0  0  0  0  0  0  0  0  0  0999 V3000
M  V30 BEGIN CTAB
M  V30 COUNTS 48 50 0 0 0
M  V30 BEGIN ATOM
M  V30 1 C 3.811894 -1.420170 -1.530556 0
M  V30 2 O 4.480388 -0.188904 -1.752114 0
M  V30 3 C 4.051265 0.910620 -0.997164 0
M  V30 4 C 4.723708 2.098517 -1.236150 0
M  V30 5 C 4.368461 3.236342 -0.537286 0
M  V30 6 C 3.358540 3.137882 0.368354 0
M  V30 7 C 2.657187 1.990115 0.647140 0
M  V30 8 C 1.566799 1.771302 1.588889 0 CFG=1
M  V30 9 C 1.011136 2.940079 2.290543 0
M  V30 10 N 0.546135 0.982937 0.883824 0
M  V30 11 C 0.119175 -0.339525 1.120081 0
M  V30 12 O 0.690184 -0.935974 2.069440 0
M  V30 13 C -0.925924 -0.899537 0.266190 0
M  V30 14 C -1.581039 -0.284215 -0.782101 0
M  V30 15 C -2.552496 -0.959637 -1.493555 0
M  V30 16 C -2.917015 -2.268149 -1.200376 0
M  V30 17 C -3.957103 -2.883195 -2.019571 0
M  V30 18 C -4.798292 -3.820529 -1.488064 0
M  V30 19 C -5.758399 -4.350674 -2.346635 0
M  V30 20 N -5.850907 -3.959110 -3.631103 0
M  V30 21 C -5.042883 -3.042135 -4.186692 0
M  V30 22 C -5.166811 -2.630767 -5.600550 0
M  V30 23 C -4.068636 -2.489380 -3.355625 0
M  V30 24 C -2.256758 -2.873912 -0.151495 0
M  V30 25 C -1.281545 -2.216923 0.573888 0
M  V30 26 C 3.030889 0.848210 -0.070160 0
M  V30 27 H 3.904807 -1.693281 -0.450294 0
M  V30 28 H 2.752702 -1.410408 -1.858671 0
M  V30 29 H 4.365884 -2.190383 -2.117405 0
M  V30 30 H 5.538514 2.194635 -1.961474 0
M  V30 31 H 4.833623 4.199267 -0.656727 0
M  V30 32 H 3.047886 3.997059 0.935463 0
M  V30 33 H 1.938111 1.056131 2.380695 0
M  V30 34 H 1.586081 3.852709 2.344539 0
M  V30 35 H 0.032178 3.195369 1.788376 0
M  V30 36 H 0.700758 2.716091 3.353116 0
M  V30 37 H 0.184798 1.623649 0.142046 0
M  V30 38 H -1.267036 0.732035 -0.975677 0
M  V30 39 H -3.005081 -0.392416 -2.293145 0
M  V30 40 H -4.671820 -4.086868 -0.462314 0
M  V30 41 H -6.441456 -5.102208 -1.940730 0
M  V30 42 H -5.627462 -3.441697 -6.209847 0
M  V30 43 H -4.134952 -2.498819 -6.034882 0
M  V30 44 H -5.763545 -1.722882 -5.733847 0
M  V30 45 H -3.391521 -1.736484 -3.779518 0
M  V30 46 H -2.576438 -3.894124 0.038004 0
M  V30 47 H -0.845188 -2.792154 1.359889 0
M  V30 48 H 2.546250 -0.130425 0.062212 0
M  V30 END ATOM
M  V30 BEGIN BOND
M  V30 1 1 1 2
M  V30 2 1 2 3
M  V30 3 2 3 4
M  V30 4 1 4 5
M  V30 5 2 5 6
M  V30 6 1 6 7
M  V30 7 1 7 8
M  V30 8 1 8 9
M  V30 9 1 8 10
M  V30 10 1 10 11
M  V30 11 2 11 12
M  V30 12 1 11 13
M  V30 13 2 13 14
M  V30 14 1 14 15
M  V30 15 2 15 16
M  V30 16 1 16 17
M  V30 17 2 17 18
M  V30 18 1 18 19
M  V30 19 2 19 20
M  V30 20 1 20 21
M  V30 21 1 21 22
M  V30 22 2 21 23
M  V30 23 1 16 24
M  V30 24 2 24 25
M  V30 25 2 7 26
M  V30 26 1 26 3
M  V30 27 1 25 13
M  V30 28 1 23 17
M  V30 29 1 1 27
M  V30 30 1 1 28
M  V30 31 1 1 29
M  V30 32 1 4 30
M  V30 33 1 5 31
M  V30 34 1 6 32
M  V30 35 1 8 33 CFG=1
M  V30 36 1 9 34
M  V30 37 1 9 35
M  V30 38 1 9 36
M  V30 39 1 10 37
M  V30 40 1 14 38
M  V30 41 1 15 39
M  V30 42 1 18 40
M  V30 43 1 19 41
M  V30 44 1 22 42
M  V30 45 1 22 43
M  V30 46 1 22 44
M  V30 47 1 23 45
M  V30 48 1 24 46
M  V30 49 1 25 47
M  V30 50 1 26 48
M  V30 END BOND
M  V30 END CTAB
M  END
>  <Dataset>  (74) 
ChEMBL_Kinases

>  <Ligand_Instance>  (74) 
nan

>  <PDB_ID>  (74) 
nan

>  <Standardized_SMILES>  (74) 
COc1cccc([C@@H](C)NC(=O)c2ccc(-c3ccnc(C)c3)cc2)c1

>  <Name>  (74) 
nan

>  <Pocket>  (74) 
nan

>  <ATP_Site>  (74) 
nan

>  <Peripheral>  (74) 
nan

>  <Num_H_Atoms_ProtBoundConf>  (74) 
nan

>  <Num_Resolved_Atoms>  (74) 
nan

>  <Num_Not_Resolved_Atoms>  (74) 
nan

$$$$
CHEMBL252457
     RDKit          3D

  0  0  0  0  0  0  0  0  0  0999 V3000
M  V30 BEGIN CTAB
M  V30 COUNTS 61 65 0 0 0
M  V30 BEGIN ATOM
M  V30 1 C 2.528056 -0.665492 9.118087 0
M  V30 2 S 1.341679 0.708348 8.864889 0
M  V30 3 C 1.571596 1.268453 7.161778 0
M  V30 4 N 2.458398 2.233113 6.854879 0
M  V30 5 C 2.653177 2.669384 5.597241 0
M  V30 6 C 1.897656 2.088104 4.582392 0
M  V30 7 C 2.029480 2.471185 3.261086 0
M  V30 8 C 1.253576 1.860465 2.286693 0
M  V30 9 C 1.360968 2.236866 0.877793 0
M  V30 10 C 1.750789 1.488987 -0.214115 0
M  V30 11 C 1.767213 2.084398 -1.455438 0
M  V30 12 C 1.406086 3.398709 -1.629307 0
M  V30 13 C 1.011859 4.166857 -0.548093 0
M  V30 14 C 0.991646 3.571887 0.717048 0
M  V30 15 C 0.333601 0.858546 2.609827 0
M  V30 16 C -0.504555 0.181468 1.625618 0
M  V30 17 C -0.235555 -1.189709 1.607203 0
M  V30 18 C -0.919456 -2.046873 0.739129 0
M  V30 19 C -1.892423 -1.546499 -0.133754 0
M  V30 20 C -2.678545 -2.312152 -1.095828 0
M  V30 21 N -2.148483 -2.391403 -2.425173 0
M  V30 22 C -3.030157 -3.175135 -3.241843 0
M  V30 23 C -2.739302 -4.664000 -3.189973 0
M  V30 24 C -1.304497 -4.999992 -3.430528 0
M  V30 25 C -1.096505 -5.952694 -4.541754 0
M  V30 26 N -1.520780 -5.640843 -5.865820 0
M  V30 27 O -0.557133 -7.086735 -4.482307 0
M  V30 28 C -0.518290 -3.722906 -3.644102 0
M  V30 29 C -0.772431 -2.731130 -2.524642 0
M  V30 30 C -2.116770 -0.190096 -0.073524 0
M  V30 31 C -1.459475 0.679134 0.770590 0
M  V30 32 N 0.224956 0.502492 3.914868 0
M  V30 33 C 0.968599 1.082628 4.876359 0
M  V30 34 N 0.842905 0.710685 6.167798 0
M  V30 35 H 3.445016 -0.302717 9.613527 0
M  V30 36 H 2.108698 -1.488142 9.700758 0
M  V30 37 H 2.830585 -1.100941 8.121846 0
M  V30 38 H 3.355178 3.439377 5.317297 0
M  V30 39 H 2.735000 3.244074 2.988328 0
M  V30 40 H 2.007838 0.474754 0.060061 0
M  V30 41 H 2.087086 1.430534 -2.271212 0
M  V30 42 H 1.431680 3.826886 -2.611469 0
M  V30 43 H 0.735776 5.199941 -0.734099 0
M  V30 44 H 0.668030 4.269809 1.476965 0
M  V30 45 H 0.497460 -1.715334 2.233808 0
M  V30 46 H -0.736087 -3.097073 0.710180 0
M  V30 47 H -3.702143 -1.850932 -1.173585 0
M  V30 48 H -2.771012 -3.368108 -0.704232 0
M  V30 49 H -2.992461 -2.843004 -4.308569 0
M  V30 50 H -4.090827 -3.059855 -2.921585 0
M  V30 51 H -3.098965 -5.051311 -2.206241 0
M  V30 52 H -3.357192 -5.107737 -4.020139 0
M  V30 53 H -0.914226 -5.528586 -2.513072 0
M  V30 54 H -2.177823 -5.753375 -6.667629 0
M  V30 55 H -0.845755 -4.934223 -6.282234 0
M  V30 56 H -0.753757 -3.336774 -4.638372 0
M  V30 57 H 0.550980 -4.011689 -3.619323 0
M  V30 58 H -0.333926 -3.150772 -1.619265 0
M  V30 59 H -0.161656 -1.834173 -2.786293 0
M  V30 60 H -2.858975 0.296786 -0.717373 0
M  V30 61 H -1.584221 1.745921 0.870277 0
M  V30 END ATOM
M  V30 BEGIN BOND
M  V30 1 1 1 2
M  V30 2 1 2 3
M  V30 3 2 3 4
M  V30 4 1 4 5
M  V30 5 2 5 6
M  V30 6 1 6 7
M  V30 7 2 7 8
M  V30 8 1 8 9
M  V30 9 2 9 10
M  V30 10 1 10 11
M  V30 11 2 11 12
M  V30 12 1 12 13
M  V30 13 2 13 14
M  V30 14 1 8 15
M  V30 15 1 15 16
M  V30 16 2 16 17
M  V30 17 1 17 18
M  V30 18 2 18 19
M  V30 19 1 19 20
M  V30 20 1 20 21
M  V30 21 1 21 22
M  V30 22 1 22 23
M  V30 23 1 23 24
M  V30 24 1 24 25
M  V30 25 1 25 26
M  V30 26 2 25 27
M  V30 27 1 24 28
M  V30 28 1 28 29
M  V30 29 1 19 30
M  V30 30 2 30 31
M  V30 31 2 15 32
M  V30 32 1 32 33
M  V30 33 2 33 34
M  V30 34 1 34 3
M  V30 35 1 33 6
M  V30 36 1 14 9
M  V30 37 1 31 16
M  V30 38 1 29 21
M  V30 39 1 1 35
M  V30 40 1 1 36
M  V30 41 1 1 37
M  V30 42 1 5 38
M  V30 43 1 7 39
M  V30 44 1 10 40
M  V30 45 1 11 41
M  V30 46 1 12 42
M  V30 47 1 13 43
M  V30 48 1 14 44
M  V30 49 1 17 45
M  V30 50 1 18 46
M  V30 51 1 20 47
M  V30 52 1 20 48
M  V30 53 1 22 49
M  V30 54 1 22 50
M  V30 55 1 23 51
M  V30 56 1 23 52
M  V30 57 1 24 53
M  V30 58 1 26 54
M  V30 59 1 26 55
M  V30 60 1 28 56
M  V30 61 1 28 57
M  V30 62 1 29 58
M  V30 63 1 29 59
M  V30 64 1 30 60
M  V30 65 1 31 61
M  V30 END BOND
M  V30 END CTAB
M  END
>  <Dataset>  (75) 
ChEMBL_Kinases

>  <Ligand_Instance>  (75) 
nan

>  <PDB_ID>  (75) 
nan

>  <Standardized_SMILES>  (75) 
CSc1ncc2cc(-c3ccccc3)c(-c3ccc(CN4CCC(C(N)=O)CC4)cc3)nc2n1

>  <Name>  (75) 
nan

>  <Pocket>  (75) 
nan

>  <ATP_Site>  (75) 
nan

>  <Peripheral>  (75) 
nan

>  <Num_H_Atoms_ProtBoundConf>  (75) 
nan

>  <Num_Resolved_Atoms>  (75) 
nan

>  <Num_Not_Resolved_Atoms>  (75) 
nan

$$$$
CHEMBL3687506
     RDKit          3D

  0  0  0  0  0  0  0  0  0  0999 V3000
M  V30 BEGIN CTAB
M  V30 COUNTS 73 77 0 0 0
M  V30 BEGIN ATOM
M  V30 1 C 2.923167 -5.186652 -4.786275 0
M  V30 2 O 2.174776 -4.075394 -4.459598 0
M  V30 3 C 2.711367 -3.361902 -3.390035 0 CFG=2
M  V30 4 C 1.590985 -3.261035 -2.365941 0 CFG=2
M  V30 5 N 1.427507 -4.519776 -1.707430 0
M  V30 6 C 0.356574 -2.858468 -3.191581 0
M  V30 7 C 0.554903 -1.455757 -3.616950 0 CFG=2
M  V30 8 C -0.530601 -0.799734 -4.329090 0
M  V30 9 C -0.753090 -0.875786 -5.688000 0
M  V30 10 C -1.781862 -0.240482 -6.353437 0
M  V30 11 N -2.657359 0.518867 -5.671922 0
M  V30 12 C -2.532530 0.662298 -4.330923 0
M  V30 13 C -1.487617 0.006321 -3.714972 0
M  V30 14 N -1.428295 0.211539 -2.284575 0
M  V30 15 C -2.289556 -0.808421 -1.758172 0
M  V30 16 O -2.771545 -1.489369 -2.729005 0
M  V30 17 C -2.632301 -1.112852 -0.394808 0
M  V30 18 C -3.507349 -2.153634 -0.177101 0
M  V30 19 C -3.860626 -2.470590 1.117883 0
M  V30 20 C -3.305941 -1.709979 2.155196 0
M  V30 21 F -3.733008 -2.122208 3.372003 0
M  V30 22 C -2.421283 -0.663007 1.872503 0
M  V30 23 C -1.996966 -0.047504 3.117054 0
M  V30 24 C -2.635422 1.019428 3.720584 0
M  V30 25 F -3.728663 1.537831 3.110039 0
M  V30 26 C -2.210031 1.567389 4.899162 0
M  V30 27 C -1.088818 1.064124 5.560244 0
M  V30 28 C -0.547740 1.578089 6.845600 0
M  V30 29 F -0.692438 0.601626 7.836658 0
M  V30 30 C -1.434868 2.729247 7.280418 0
M  V30 31 C -0.947981 3.325449 8.586609 0
M  V30 32 O 0.441756 3.457479 8.589395 0
M  V30 33 C 0.953731 3.455702 7.292235 0
M  V30 34 C 0.872597 2.035839 6.772034 0
M  V30 35 C -0.431252 -0.005591 4.974417 0
M  V30 36 C -0.882639 -0.551096 3.768849 0
M  V30 37 F -0.233402 -1.605861 3.191287 0
M  V30 38 N -2.091618 -0.372307 0.605068 0
M  V30 39 C 1.835859 -1.212195 -4.367909 0
M  V30 40 C 3.026016 -1.941022 -3.794133 0 CFG=2
M  V30 41 C 4.134952 -1.860970 -4.829596 0
M  V30 42 H 3.021686 -5.917477 -3.960350 0
M  V30 43 H 2.369603 -5.694385 -5.629103 0
M  V30 44 H 3.886953 -4.845513 -5.206772 0
M  V30 45 H 3.640125 -3.796703 -2.980809 0
M  V30 46 H 1.777094 -2.404636 -1.671637 0
M  V30 47 H 2.267360 -5.146194 -1.820909 0
M  V30 48 H 1.351768 -4.302041 -0.672769 0
M  V30 49 H 0.305664 -3.602621 -3.999320 0
M  V30 50 H -0.463525 -2.932880 -2.454411 0
M  V30 51 H 0.679290 -0.866227 -2.650568 0
M  V30 52 H -0.104648 -1.466056 -6.320534 0
M  V30 53 H -1.928551 -0.322742 -7.429283 0
M  V30 54 H -3.237496 1.271671 -3.786110 0
M  V30 55 H -0.992634 0.821589 -1.525773 0
M  V30 56 H -3.918921 -2.723392 -1.021008 0
M  V30 57 H -4.547218 -3.289699 1.260226 0
M  V30 58 H -2.707375 2.391870 5.361227 0
M  V30 59 H -2.450602 2.361216 7.419649 0
M  V30 60 H -1.464310 3.526751 6.512986 0
M  V30 61 H -1.368827 4.348509 8.654570 0
M  V30 62 H -1.344588 2.747149 9.433053 0
M  V30 63 H 2.022287 3.760114 7.393629 0
M  V30 64 H 0.461116 4.167794 6.614064 0
M  V30 65 H 1.485255 1.394832 7.476285 0
M  V30 66 H 1.310991 1.982363 5.745213 0
M  V30 67 H 0.446269 -0.490480 5.375414 0
M  V30 68 H 2.068634 -0.125463 -4.294250 0
M  V30 69 H 1.688574 -1.464923 -5.429482 0
M  V30 70 H 3.370217 -1.405186 -2.890270 0
M  V30 71 H 3.677609 -2.002982 -5.849834 0
M  V30 72 H 4.634450 -0.871527 -4.797410 0
M  V30 73 H 4.915093 -2.617992 -4.618373 0
M  V30 END ATOM
M  V30 BEGIN BOND
M  V30 1 1 1 2
M  V30 2 1 2 3
M  V30 3 1 3 4
M  V30 4 1 4 5
M  V30 5 1 4 6
M  V30 6 1 6 7
M  V30 7 1 7 8
M  V30 8 2 8 9
M  V30 9 1 9 10
M  V30 10 2 10 11
M  V30 11 1 11 12
M  V30 12 2 12 13
M  V30 13 1 13 14
M  V30 14 1 14 15
M  V30 15 2 15 16
M  V30 16 1 15 17
M  V30 17 2 17 18
M  V30 18 1 18 19
M  V30 19 2 19 20
M  V30 20 1 20 21
M  V30 21 1 20 22
M  V30 22 1 22 23
M  V30 23 2 23 24
M  V30 24 1 24 25
M  V30 25 1 24 26
M  V30 26 2 26 27
M  V30 27 1 27 28
M  V30 28 1 28 29
M  V30 29 1 28 30
M  V30 30 1 30 31
M  V30 31 1 31 32
M  V30 32 1 32 33
M  V30 33 1 33 34
M  V30 34 1 27 35
M  V30 35 2 35 36
M  V30 36 1 36 37
M  V30 37 2 22 38
M  V30 38 1 7 39
M  V30 39 1 39 40
M  V30 40 1 40 41
M  V30 41 1 40 3
M  V30 42 1 13 8
M  V30 43 1 38 17
M  V30 44 1 36 23
M  V30 45 1 34 28
M  V30 46 1 1 42
M  V30 47 1 1 43
M  V30 48 1 1 44
M  V30 49 1 3 45 CFG=1
M  V30 50 1 4 46 CFG=1
M  V30 51 1 5 47
M  V30 52 1 5 48
M  V30 53 1 6 49
M  V30 54 1 6 50
M  V30 55 1 7 51 CFG=1
M  V30 56 1 9 52
M  V30 57 1 10 53
M  V30 58 1 12 54
M  V30 59 1 14 55
M  V30 60 1 18 56
M  V30 61 1 19 57
M  V30 62 1 26 58
M  V30 63 1 30 59
M  V30 64 1 30 60
M  V30 65 1 31 61
M  V30 66 1 31 62
M  V30 67 1 33 63
M  V30 68 1 33 64
M  V30 69 1 34 65
M  V30 70 1 34 66
M  V30 71 1 35 67
M  V30 72 1 39 68
M  V30 73 1 39 69
M  V30 74 1 40 70 CFG=1
M  V30 75 1 41 71
M  V30 76 1 41 72
M  V30 77 1 41 73
M  V30 END BOND
M  V30 END CTAB
M  END
>  <Dataset>  (76) 
ChEMBL_Kinases

>  <Ligand_Instance>  (76) 
nan

>  <PDB_ID>  (76) 
nan

>  <Standardized_SMILES>  (76) 
CO[C@@H]1[C@H](N)C[C@H](c2ccncc2NC(=O)c2ccc(F)c(-c3c(F)cc(C4(F)CCOCC4)cc3F)n2)C[C@@H]1C

>  <Name>  (76) 
nan

>  <Pocket>  (76) 
nan

>  <ATP_Site>  (76) 
nan

>  <Peripheral>  (76) 
nan

>  <Num_H_Atoms_ProtBoundConf>  (76) 
nan

>  <Num_Resolved_Atoms>  (76) 
nan

>  <Num_Not_Resolved_Atoms>  (76) 
nan

$$$$
CHEMBL3687505
     RDKit          3D

  0  0  0  0  0  0  0  0  0  0999 V3000
M  V30 BEGIN CTAB
M  V30 COUNTS 68 71 0 0 0
M  V30 BEGIN ATOM
M  V30 1 C 5.053621 -0.288117 4.801560 0
M  V30 2 O 4.205611 0.285822 3.851715 0
M  V30 3 C 3.054570 -0.494646 3.671107 0 CFG=2
M  V30 4 C 2.942383 -0.846545 2.230398 0 CFG=2
M  V30 5 N 4.131565 -0.487282 1.524724 0
M  V30 6 C 1.678231 -0.387066 1.551805 0
M  V30 7 C 1.391423 1.069904 1.728115 0 CFG=2
M  V30 8 C 1.856970 1.957111 0.674652 0
M  V30 9 C 3.087654 2.554811 0.560706 0
M  V30 10 C 3.498938 3.389693 -0.454616 0
M  V30 11 N 2.636654 3.674931 -1.458384 0
M  V30 12 C 1.392117 3.132941 -1.439404 0
M  V30 13 C 1.022414 2.301436 -0.401861 0
M  V30 14 N -0.310183 1.770207 -0.457579 0
M  V30 15 C -1.530611 2.244927 0.038648 0
M  V30 16 O -1.514855 3.320368 0.647878 0
M  V30 17 C -2.733316 1.446518 -0.193042 0
M  V30 18 C -3.913756 1.951523 0.314065 0
M  V30 19 C -5.071041 1.226904 0.116481 0
M  V30 20 C -5.063591 0.022252 -0.571114 0
M  V30 21 F -6.110830 -0.778974 -0.832919 0
M  V30 22 C -3.859968 -0.446562 -1.061993 0
M  V30 23 C -3.590729 -1.672814 -1.810888 0
M  V30 24 C -3.285216 -2.754703 -0.995708 0
M  V30 25 F -3.236934 -2.700576 0.357329 0
M  V30 26 C -3.005170 -3.988212 -1.556216 0
M  V30 27 C -3.034824 -4.124065 -2.937260 0
M  V30 28 C -2.731508 -5.460632 -3.563145 0
M  V30 29 C -3.725299 -6.501147 -3.121424 0
M  V30 30 C -1.358080 -5.897193 -3.171320 0
M  V30 31 C -3.338805 -3.046429 -3.740944 0
M  V30 32 C -3.620101 -1.809460 -3.189409 0
M  V30 33 F -3.928217 -0.690743 -3.857079 0
M  V30 34 N -2.743737 0.291893 -0.848825 0
M  V30 35 C 1.829558 1.519431 3.087681 0
M  V30 36 C 1.859894 0.339556 4.070307 0 CFG=2
M  V30 37 C 2.019831 0.927835 5.455508 0
M  V30 38 H 5.332106 -1.310321 4.410116 0
M  V30 39 H 4.609657 -0.348609 5.796715 0
M  V30 40 H 6.006425 0.279206 4.768448 0
M  V30 41 H 3.099689 -1.397988 4.342270 0
M  V30 42 H 2.900917 -1.976107 2.174940 0
M  V30 43 H 3.897173 -0.237416 0.535023 0
M  V30 44 H 4.726813 0.232274 1.988895 0
M  V30 45 H 1.708931 -0.714608 0.514290 0
M  V30 46 H 0.858142 -0.944921 2.052459 0
M  V30 47 H 0.262320 1.177923 1.741832 0
M  V30 48 H 3.819477 2.361295 1.332585 0
M  V30 49 H 4.493207 3.825648 -0.473812 0
M  V30 50 H 0.700100 3.355720 -2.235454 0
M  V30 51 H -0.282733 0.849168 -0.987102 0
M  V30 52 H -4.008246 2.881728 0.861562 0
M  V30 53 H -6.056007 1.515221 0.463584 0
M  V30 54 H -2.760270 -4.869624 -0.980579 0
M  V30 55 H -2.793964 -5.404976 -4.660403 0
M  V30 56 H -3.864602 -6.533164 -2.015886 0
M  V30 57 H -3.320439 -7.493912 -3.391626 0
M  V30 58 H -4.684475 -6.372785 -3.663004 0
M  V30 59 H -0.890330 -6.421925 -4.028487 0
M  V30 60 H -1.435061 -6.671748 -2.360981 0
M  V30 61 H -0.685747 -5.077333 -2.843720 0
M  V30 62 H -3.371986 -3.111791 -4.817707 0
M  V30 63 H 1.162722 2.279027 3.538155 0
M  V30 64 H 2.880461 1.862456 3.039399 0
M  V30 65 H 0.936722 -0.238765 4.051917 0
M  V30 66 H 2.170254 0.122478 6.178631 0
M  V30 67 H 1.047505 1.413422 5.693071 0
M  V30 68 H 2.769355 1.736666 5.490087 0
M  V30 END ATOM
M  V30 BEGIN BOND
M  V30 1 1 1 2
M  V30 2 1 2 3
M  V30 3 1 3 4
M  V30 4 1 4 5
M  V30 5 1 4 6
M  V30 6 1 6 7
M  V30 7 1 7 8
M  V30 8 2 8 9
M  V30 9 1 9 10
M  V30 10 2 10 11
M  V30 11 1 11 12
M  V30 12 2 12 13
M  V30 13 1 13 14
M  V30 14 1 14 15
M  V30 15 2 15 16
M  V30 16 1 15 17
M  V30 17 2 17 18
M  V30 18 1 18 19
M  V30 19 2 19 20
M  V30 20 1 20 21
M  V30 21 1 20 22
M  V30 22 1 22 23
M  V30 23 2 23 24
M  V30 24 1 24 25
M  V30 25 1 24 26
M  V30 26 2 26 27
M  V30 27 1 27 28
M  V30 28 1 28 29
M  V30 29 1 28 30
M  V30 30 1 27 31
M  V30 31 2 31 32
M  V30 32 1 32 33
M  V30 33 2 22 34
M  V30 34 1 7 35
M  V30 35 1 35 36
M  V30 36 1 36 37
M  V30 37 1 36 3
M  V30 38 1 13 8
M  V30 39 1 34 17
M  V30 40 1 32 23
M  V30 41 1 1 38
M  V30 42 1 1 39
M  V30 43 1 1 40
M  V30 44 1 3 41 CFG=1
M  V30 45 1 4 42 CFG=1
M  V30 46 1 5 43
M  V30 47 1 5 44
M  V30 48 1 6 45
M  V30 49 1 6 46
M  V30 50 1 7 47 CFG=1
M  V30 51 1 9 48
M  V30 52 1 10 49
M  V30 53 1 12 50
M  V30 54 1 14 51
M  V30 55 1 18 52
M  V30 56 1 19 53
M  V30 57 1 26 54
M  V30 58 1 28 55
M  V30 59 1 29 56
M  V30 60 1 29 57
M  V30 61 1 29 58
M  V30 62 1 30 59
M  V30 63 1 30 60
M  V30 64 1 30 61
M  V30 65 1 31 62
M  V30 66 1 35 63
M  V30 67 1 35 64
M  V30 68 1 36 65 CFG=1
M  V30 69 1 37 66
M  V30 70 1 37 67
M  V30 71 1 37 68
M  V30 END BOND
M  V30 END CTAB
M  END
>  <Dataset>  (77) 
ChEMBL_Kinases

>  <Ligand_Instance>  (77) 
nan

>  <PDB_ID>  (77) 
nan

>  <Standardized_SMILES>  (77) 
CO[C@@H]1[C@H](N)C[C@H](c2ccncc2NC(=O)c2ccc(F)c(-c3c(F)cc(C(C)C)cc3F)n2)C[C@@H]1C

>  <Name>  (77) 
nan

>  <Pocket>  (77) 
nan

>  <ATP_Site>  (77) 
nan

>  <Peripheral>  (77) 
nan

>  <Num_H_Atoms_ProtBoundConf>  (77) 
nan

>  <Num_Resolved_Atoms>  (77) 
nan

>  <Num_Not_Resolved_Atoms>  (77) 
nan

$$$$
CHEMBL2177736
     RDKit          3D

  0  0  0  0  0  0  0  0  0  0999 V3000
M  V30 BEGIN CTAB
M  V30 COUNTS 52 55 0 0 0
M  V30 BEGIN ATOM
M  V30 1 N -0.925367 -2.027886 4.444109 0
M  V30 2 C -1.584105 -1.910535 3.191306 0
M  V30 3 O -2.579616 -2.596805 2.861646 0
M  V30 4 C -1.081754 -0.939499 2.226526 0
M  V30 5 C 0.006063 -0.132468 2.483023 0
M  V30 6 N 0.457058 0.755193 1.588120 0
M  V30 7 C -0.123707 0.911785 0.387695 0
M  V30 8 N 0.350313 1.856153 -0.573522 0
M  V30 9 C 1.497823 2.727684 -0.313002 0 CFG=2
M  V30 10 C 2.741066 1.973303 0.039071 0
M  V30 11 C 3.569509 2.653919 1.090916 0
M  V30 12 C 2.763039 2.990803 2.322229 0
M  V30 13 C 1.497429 3.720380 2.021329 0
M  V30 14 C 1.198780 3.880384 0.574172 0 CFG=2
M  V30 15 N -0.173236 4.305888 0.378333 0
M  V30 16 N -1.184632 0.131337 0.125546 0
M  V30 17 C -1.672741 -0.772854 0.991781 0
M  V30 18 N -2.805716 -1.552301 0.613891 0
M  V30 19 C -2.829907 -2.816167 -0.053032 0
M  V30 20 C -4.044877 -3.401322 -0.324337 0
M  V30 21 C -4.043326 -4.623635 -0.970247 0
M  V30 22 C -2.846072 -5.242947 -1.334824 0
M  V30 23 C -1.649795 -4.593200 -1.028807 0
M  V30 24 N -0.455266 -5.262407 -1.419706 0
M  V30 25 N 0.431540 -5.103996 -2.392436 0
M  V30 26 C 1.394010 -6.026711 -2.307876 0
M  V30 27 C 1.079684 -6.816667 -1.198691 0
M  V30 28 N -0.069166 -6.308335 -0.681834 0
M  V30 29 C -1.615957 -3.373699 -0.385483 0
M  V30 30 H 0.094211 -2.121221 4.653625 0
M  V30 31 H 0.092842 -2.119977 4.631438 0
M  V30 32 H 0.491065 -0.239706 3.442862 0
M  V30 33 H -0.184572 1.887861 -1.494464 0
M  V30 34 H 1.720846 3.184954 -1.334049 0
M  V30 35 H 3.432953 1.809708 -0.829268 0
M  V30 36 H 2.489785 0.925513 0.363157 0
M  V30 37 H 4.355778 1.928484 1.413352 0
M  V30 38 H 4.046305 3.552567 0.681989 0
M  V30 39 H 3.440236 3.578996 2.975114 0
M  V30 40 H 2.574683 2.047667 2.913904 0
M  V30 41 H 0.635735 3.321217 2.627952 0
M  V30 42 H 1.605446 4.770442 2.440101 0
M  V30 43 H 1.822223 4.756067 0.220719 0
M  V30 44 H -0.794126 3.594607 -0.021564 0
M  V30 45 H -0.557560 4.810499 1.210866 0
M  V30 46 H -3.690785 -1.070455 0.894883 0
M  V30 47 H -4.974408 -2.935890 -0.049413 0
M  V30 48 H -4.961824 -5.120836 -1.204325 0
M  V30 49 H -2.853990 -6.205326 -1.843096 0
M  V30 50 H 2.240739 -6.106439 -2.996029 0
M  V30 51 H 1.706021 -7.647580 -0.903596 0
M  V30 52 H -0.668334 -2.903093 -0.166365 0
M  V30 END ATOM
M  V30 BEGIN BOND
M  V30 1 1 1 2
M  V30 2 2 2 3
M  V30 3 1 2 4
M  V30 4 2 4 5
M  V30 5 1 5 6
M  V30 6 2 6 7
M  V30 7 1 7 8
M  V30 8 1 8 9
M  V30 9 1 9 10
M  V30 10 1 10 11
M  V30 11 1 11 12
M  V30 12 1 12 13
M  V30 13 1 13 14
M  V30 14 1 14 15
M  V30 15 1 7 16
M  V30 16 2 16 17
M  V30 17 1 17 18
M  V30 18 1 18 19
M  V30 19 2 19 20
M  V30 20 1 20 21
M  V30 21 2 21 22
M  V30 22 1 22 23
M  V30 23 1 23 24
M  V30 24 1 24 25
M  V30 25 2 25 26
M  V30 26 1 26 27
M  V30 27 2 27 28
M  V30 28 2 23 29
M  V30 29 1 17 4
M  V30 30 1 29 19
M  V30 31 1 14 9
M  V30 32 1 28 24
M  V30 33 1 1 30
M  V30 34 1 1 31
M  V30 35 1 5 32
M  V30 36 1 8 33
M  V30 37 1 9 34 CFG=3
M  V30 38 1 10 35
M  V30 39 1 10 36
M  V30 40 1 11 37
M  V30 41 1 11 38
M  V30 42 1 12 39
M  V30 43 1 12 40
M  V30 44 1 13 41
M  V30 45 1 13 42
M  V30 46 1 14 43 CFG=3
M  V30 47 1 15 44
M  V30 48 1 15 45
M  V30 49 1 18 46
M  V30 50 1 20 47
M  V30 51 1 21 48
M  V30 52 1 22 49
M  V30 53 1 26 50
M  V30 54 1 27 51
M  V30 55 1 29 52
M  V30 END BOND
M  V30 END CTAB
M  END
>  <Dataset>  (78) 
ChEMBL_Kinases

>  <Ligand_Instance>  (78) 
nan

>  <PDB_ID>  (78) 
nan

>  <Standardized_SMILES>  (78) 
NC(=O)c1cnc(N[C@@H]2CCCC[C@@H]2N)nc1Nc1cccc(-n2nccn2)c1

>  <Name>  (78) 
nan

>  <Pocket>  (78) 
nan

>  <ATP_Site>  (78) 
nan

>  <Peripheral>  (78) 
nan

>  <Num_H_Atoms_ProtBoundConf>  (78) 
nan

>  <Num_Resolved_Atoms>  (78) 
nan

>  <Num_Not_Resolved_Atoms>  (78) 
nan

$$$$
CHEMBL3687504
     RDKit          3D

  0  0  0  0  0  0  0  0  0  0999 V3000
M  V30 BEGIN CTAB
M  V30 COUNTS 75 79 0 0 0
M  V30 BEGIN ATOM
M  V30 1 C -2.230657 -4.884464 -2.935261 0
M  V30 2 O -1.290761 -4.264052 -3.765218 0
M  V30 3 C -0.271716 -3.659646 -3.005470 0 CFG=2
M  V30 4 C -0.370116 -2.189138 -3.258618 0 CFG=2
M  V30 5 N -0.648385 -1.986376 -4.675579 0
M  V30 6 C 0.797170 -1.384755 -2.777266 0
M  V30 7 C 2.042917 -2.211802 -2.701874 0 CFG=2
M  V30 8 C 3.273843 -1.391270 -2.639921 0
M  V30 9 C 3.862571 -1.053863 -3.852320 0
M  V30 10 C 5.020448 -0.285492 -3.874690 0
M  V30 11 N 5.527578 0.103296 -2.706371 0
M  V30 12 C 4.980999 -0.206904 -1.511755 0
M  V30 13 C 3.833000 -0.966208 -1.433026 0
M  V30 14 N 3.132348 -1.380862 -0.289265 0
M  V30 15 C 3.171755 -2.504501 0.576108 0
M  V30 16 O 3.986445 -3.452102 0.405117 0
M  V30 17 C 2.203664 -2.471879 1.665638 0
M  V30 18 C 2.200887 -3.538823 2.533813 0
M  V30 19 C 1.327977 -3.613201 3.600314 0
M  V30 20 C 0.411531 -2.578752 3.818066 0
M  V30 21 F -0.488924 -2.559820 4.840703 0
M  V30 22 C 0.443709 -1.513582 2.917474 0
M  V30 23 C -0.474848 -0.385298 3.061590 0
M  V30 24 C -1.736717 -0.275135 2.496454 0
M  V30 25 F -2.141211 -1.328987 1.737979 0
M  V30 26 C -2.475624 0.870832 2.738745 0
M  V30 27 C -1.969667 1.888015 3.527878 0
M  V30 28 C -2.802194 3.084873 3.751082 0
M  V30 29 C -3.129635 3.257288 5.240056 0
M  V30 30 C -4.549255 3.808438 5.328175 0
M  V30 31 S -4.777466 4.925415 3.967362 0
M  V30 32 O -5.653474 4.354255 2.889940 0
M  V30 33 O -5.471732 6.144711 4.507303 0
M  V30 34 C -3.226503 5.449664 3.289129 0
M  V30 35 C -2.179488 4.354639 3.294594 0
M  V30 36 C -0.711591 1.782871 4.093772 0
M  V30 37 C 0.021327 0.636797 3.848476 0
M  V30 38 F 1.259492 0.597102 4.439173 0
M  V30 39 N 1.307395 -1.470355 1.886838 0
M  V30 40 C 2.030899 -3.186016 -3.849824 0
M  V30 41 C 1.020022 -4.271775 -3.459624 0 CFG=2
M  V30 42 C 0.869923 -5.252060 -4.589691 0
M  V30 43 H -2.710337 -4.161123 -2.247619 0
M  V30 44 H -2.984607 -5.323822 -3.636079 0
M  V30 45 H -1.732058 -5.689832 -2.348551 0
M  V30 46 H -0.504653 -3.849325 -1.924957 0
M  V30 47 H -1.270928 -1.829830 -2.707384 0
M  V30 48 H -1.380957 -2.704180 -4.907517 0
M  V30 49 H -1.080871 -1.052067 -4.825705 0
M  V30 50 H 0.623858 -0.957038 -1.759511 0
M  V30 51 H 0.910149 -0.522531 -3.472831 0
M  V30 52 H 1.976765 -2.823584 -1.771571 0
M  V30 53 H 3.436206 -1.378676 -4.790114 0
M  V30 54 H 5.489513 -0.015984 -4.826388 0
M  V30 55 H 5.375625 0.097894 -0.550938 0
M  V30 56 H 2.468669 -0.585619 -0.168865 0
M  V30 57 H 2.883131 -4.372601 2.423428 0
M  V30 58 H 1.310002 -4.455025 4.303573 0
M  V30 59 H -3.455670 0.908919 2.274674 0
M  V30 60 H -3.758125 2.945119 3.204864 0
M  V30 61 H -3.032273 2.301693 5.778861 0
M  V30 62 H -2.450144 4.005904 5.696013 0
M  V30 63 H -4.790111 4.233217 6.304998 0
M  V30 64 H -5.222417 2.934767 5.117607 0
M  V30 65 H -3.451739 5.825544 2.254873 0
M  V30 66 H -2.873882 6.375234 3.829266 0
M  V30 67 H -1.388380 4.689845 4.023418 0
M  V30 68 H -1.771861 4.317584 2.267090 0
M  V30 69 H -0.372589 2.607956 4.698585 0
M  V30 70 H 3.025976 -3.652477 -3.964026 0
M  V30 71 H 1.707122 -2.719499 -4.793414 0
M  V30 72 H 1.476129 -4.774628 -2.562891 0
M  V30 73 H 1.873720 -5.423888 -5.033208 0
M  V30 74 H 0.210640 -4.821460 -5.357522 0
M  V30 75 H 0.494279 -6.202682 -4.157318 0
M  V30 END ATOM
M  V30 BEGIN BOND
M  V30 1 1 1 2
M  V30 2 1 2 3
M  V30 3 1 3 4
M  V30 4 1 4 5
M  V30 5 1 4 6
M  V30 6 1 6 7
M  V30 7 1 7 8
M  V30 8 2 8 9
M  V30 9 1 9 10
M  V30 10 2 10 11
M  V30 11 1 11 12
M  V30 12 2 12 13
M  V30 13 1 13 14
M  V30 14 1 14 15
M  V30 15 2 15 16
M  V30 16 1 15 17
M  V30 17 2 17 18
M  V30 18 1 18 19
M  V30 19 2 19 20
M  V30 20 1 20 21
M  V30 21 1 20 22
M  V30 22 1 22 23
M  V30 23 2 23 24
M  V30 24 1 24 25
M  V30 25 1 24 26
M  V30 26 2 26 27
M  V30 27 1 27 28
M  V30 28 1 28 29
M  V30 29 1 29 30
M  V30 30 1 30 31
M  V30 31 2 31 32
M  V30 32 2 31 33
M  V30 33 1 31 34
M  V30 34 1 34 35
M  V30 35 1 27 36
M  V30 36 2 36 37
M  V30 37 1 37 38
M  V30 38 2 22 39
M  V30 39 1 7 40
M  V30 40 1 40 41
M  V30 41 1 41 42
M  V30 42 1 41 3
M  V30 43 1 13 8
M  V30 44 1 39 17
M  V30 45 1 37 23
M  V30 46 1 35 28
M  V30 47 1 1 43
M  V30 48 1 1 44
M  V30 49 1 1 45
M  V30 50 1 3 46 CFG=1
M  V30 51 1 4 47 CFG=1
M  V30 52 1 5 48
M  V30 53 1 5 49
M  V30 54 1 6 50
M  V30 55 1 6 51
M  V30 56 1 7 52 CFG=1
M  V30 57 1 9 53
M  V30 58 1 10 54
M  V30 59 1 12 55
M  V30 60 1 14 56
M  V30 61 1 18 57
M  V30 62 1 19 58
M  V30 63 1 26 59
M  V30 64 1 28 60
M  V30 65 1 29 61
M  V30 66 1 29 62
M  V30 67 1 30 63
M  V30 68 1 30 64
M  V30 69 1 34 65
M  V30 70 1 34 66
M  V30 71 1 35 67
M  V30 72 1 35 68
M  V30 73 1 36 69
M  V30 74 1 40 70
M  V30 75 1 40 71
M  V30 76 1 41 72 CFG=1
M  V30 77 1 42 73
M  V30 78 1 42 74
M  V30 79 1 42 75
M  V30 END BOND
M  V30 END CTAB
M  END
>  <Dataset>  (79) 
ChEMBL_Kinases

>  <Ligand_Instance>  (79) 
nan

>  <PDB_ID>  (79) 
nan

>  <Standardized_SMILES>  (79) 
CO[C@@H]1[C@H](N)C[C@H](c2ccncc2NC(=O)c2ccc(F)c(-c3c(F)cc(C4CCS(=O)(=O)CC4)cc3F)n2)C[C@@H]1C

>  <Name>  (79) 
nan

>  <Pocket>  (79) 
nan

>  <ATP_Site>  (79) 
nan

>  <Peripheral>  (79) 
nan

>  <Num_H_Atoms_ProtBoundConf>  (79) 
nan

>  <Num_Resolved_Atoms>  (79) 
nan

>  <Num_Not_Resolved_Atoms>  (79) 
nan

$$$$
CHEMBL4438334
     RDKit          3D

  0  0  0  0  0  0  0  0  0  0999 V3000
M  V30 BEGIN CTAB
M  V30 COUNTS 47 50 0 0 0
M  V30 BEGIN ATOM
M  V30 1 C 3.013705 0.402315 -1.748822 0
M  V30 2 C 1.630547 0.464391 -1.219705 0
M  V30 3 C 0.574950 -0.308083 -1.878878 0 CFG=1
M  V30 4 C 0.817151 -1.764278 -1.893252 0
M  V30 5 C -0.190987 -2.648947 -1.457182 0
M  V30 6 C -0.116709 -4.024496 -1.422520 0
M  V30 7 C 1.049901 -4.615925 -1.853224 0
M  V30 8 C 2.103473 -3.849437 -2.302947 0
M  V30 9 C 1.908795 -2.490132 -2.289615 0
M  V30 10 C -0.738652 -0.119858 -1.096405 0
M  V30 11 C -1.949523 0.283455 -1.423421 0
M  V30 12 C -3.120937 0.412541 -0.543590 0
M  V30 13 C -2.775157 0.676965 0.893440 0
M  V30 14 C -2.664797 2.184049 1.056900 0
M  V30 15 C -3.927862 0.263688 1.818312 0
M  V30 16 C -1.532459 0.051060 1.394742 0
M  V30 17 C -0.604574 -0.460696 0.347771 0
M  V30 18 O 0.291903 -1.212895 0.876994 0
M  V30 19 N -2.084723 0.612500 -2.799611 0
M  V30 20 C -1.005418 0.506280 -3.712203 0
M  V30 21 N -0.986487 0.761457 -5.037199 0
M  V30 22 N 0.250952 0.499710 -5.495988 0
M  V30 23 C 0.958334 0.088508 -4.427261 0
M  V30 24 C 0.223566 0.069145 -3.260743 0
M  V30 25 H 3.528061 1.352488 -1.327817 0
M  V30 26 H 3.598536 -0.386282 -1.176553 0
M  V30 27 H 3.155794 0.377911 -2.821447 0
M  V30 28 H 1.317679 1.567798 -1.325355 0
M  V30 29 H 1.716503 0.241501 -0.125772 0
M  V30 30 H -1.172595 -2.314562 -1.106021 0
M  V30 31 H -0.880076 -4.680906 -1.091996 0
M  V30 32 H 1.176290 -5.685949 -1.852693 0
M  V30 33 H 3.023683 -4.263604 -2.645283 0
M  V30 34 H 2.721285 -1.893893 -2.662501 0
M  V30 35 H -3.806819 -0.459463 -0.598836 0
M  V30 36 H -3.725994 1.264182 -0.967501 0
M  V30 37 H -3.672994 2.653204 1.069374 0
M  V30 38 H -2.039926 2.578548 0.253468 0
M  V30 39 H -2.147076 2.432449 2.017342 0
M  V30 40 H -4.738851 1.021383 1.830762 0
M  V30 41 H -4.368956 -0.697906 1.471071 0
M  V30 42 H -3.545655 0.117242 2.844002 0
M  V30 43 H -0.925062 0.779017 1.998211 0
M  V30 44 H -1.771243 -0.790108 2.077499 0
M  V30 45 H -3.014303 0.941741 -3.134853 0
M  V30 46 H 0.405668 0.655425 -6.512554 0
M  V30 47 H 1.969222 -0.156199 -4.698732 0
M  V30 END ATOM
M  V30 BEGIN BOND
M  V30 1 1 1 2
M  V30 2 1 3 2 CFG=1
M  V30 3 1 3 4
M  V30 4 2 4 5
M  V30 5 1 5 6
M  V30 6 2 6 7
M  V30 7 1 7 8
M  V30 8 2 8 9
M  V30 9 1 3 10
M  V30 10 2 10 11
M  V30 11 1 11 12
M  V30 12 1 12 13
M  V30 13 1 13 14
M  V30 14 1 13 15
M  V30 15 1 13 16
M  V30 16 1 16 17
M  V30 17 2 17 18
M  V30 18 1 11 19
M  V30 19 1 19 20
M  V30 20 2 20 21
M  V30 21 1 21 22
M  V30 22 1 22 23
M  V30 23 2 23 24
M  V30 24 1 24 3
M  V30 25 1 9 4
M  V30 26 1 17 10
M  V30 27 1 24 20
M  V30 28 1 1 25
M  V30 29 1 1 26
M  V30 30 1 1 27
M  V30 31 1 2 28
M  V30 32 1 2 29
M  V30 33 1 5 30
M  V30 34 1 6 31
M  V30 35 1 7 32
M  V30 36 1 8 33
M  V30 37 1 9 34
M  V30 38 1 12 35
M  V30 39 1 12 36
M  V30 40 1 14 37
M  V30 41 1 14 38
M  V30 42 1 14 39
M  V30 43 1 15 40
M  V30 44 1 15 41
M  V30 45 1 15 42
M  V30 46 1 16 43
M  V30 47 1 16 44
M  V30 48 1 19 45
M  V30 49 1 22 46
M  V30 50 1 23 47
M  V30 END BOND
M  V30 END CTAB
M  END
>  <Dataset>  (80) 
ChEMBL_Kinases

>  <Ligand_Instance>  (80) 
nan

>  <PDB_ID>  (80) 
nan

>  <Standardized_SMILES>  (80) 
CC[C@@]1(c2ccccc2)C2=C(CC(C)(C)CC2=O)Nc2n[nH]cc21

>  <Name>  (80) 
nan

>  <Pocket>  (80) 
nan

>  <ATP_Site>  (80) 
nan

>  <Peripheral>  (80) 
nan

>  <Num_H_Atoms_ProtBoundConf>  (80) 
nan

>  <Num_Resolved_Atoms>  (80) 
nan

>  <Num_Not_Resolved_Atoms>  (80) 
nan

$$$$
CHEMBL4437940
     RDKit          3D

  0  0  0  0  0  0  0  0  0  0999 V3000
M  V30 BEGIN CTAB
M  V30 COUNTS 54 57 0 0 0
M  V30 BEGIN ATOM
M  V30 1 C -1.709441 -4.849184 3.614659 0
M  V30 2 N -0.937331 -3.642545 3.418017 0
M  V30 3 N -0.190275 -3.104119 4.401972 0
M  V30 4 C 0.406124 -2.001334 3.953883 0
M  V30 5 C 0.001998 -1.867921 2.643691 0
M  V30 6 N 0.552711 -0.724612 2.006512 0
M  V30 7 C 1.761476 -0.586347 1.259907 0
M  V30 8 O 2.447761 -1.620516 1.139944 0
M  V30 9 C 2.179104 0.682397 0.668409 0
M  V30 10 N 1.488700 1.812689 0.781370 0
M  V30 11 C 1.842713 2.863739 0.289994 0
M  V30 12 C 1.221704 4.246218 0.295318 0
M  V30 13 C 1.866652 5.251531 -0.359513 0
M  V30 14 F 3.034371 5.093847 -1.020531 0
M  V30 15 C 1.219671 6.474793 -0.294335 0
M  V30 16 C 0.012061 6.675080 0.379645 0
M  V30 17 C -0.567970 5.589863 1.016573 0
M  V30 18 C 0.032956 4.347742 0.984026 0
M  V30 19 F -0.548482 3.307076 1.610383 0
M  V30 20 S 3.377856 2.565837 -0.550395 0
M  V30 21 C 3.374805 0.738002 -0.062629 0
M  V30 22 N 4.296526 -0.273753 -0.346383 0
M  V30 23 C -0.846754 -2.899142 2.293276 0
M  V30 24 N -1.411378 -3.036076 1.012646 0
M  V30 25 C -2.228577 -4.183136 0.701533 0
M  V30 26 C -2.381473 -4.549166 -0.725232 0
M  V30 27 C -1.215458 -4.281453 -1.616369 0
M  V30 28 C -1.458879 -2.901865 -2.213429 0 CFG=2
M  V30 29 N -0.251499 -2.452763 -2.819888 0
M  V30 30 C -2.006151 -1.967114 -1.145368 0
M  V30 31 C -1.129688 -1.990798 0.087970 0
M  V30 32 H -2.750048 -4.798110 3.265399 0
M  V30 33 H -1.170777 -5.782559 3.341667 0
M  V30 34 H -1.840381 -4.982401 4.742717 0
M  V30 35 H 1.039439 -1.472448 4.655576 0
M  V30 36 H 0.003523 0.186983 2.089661 0
M  V30 37 H 1.642900 7.357885 -0.783138 0
M  V30 38 H -0.434120 7.650048 0.390068 0
M  V30 39 H -1.503414 5.779508 1.529278 0
M  V30 40 H 3.866836 -1.000550 -0.935818 0
M  V30 41 H 5.269351 -0.236990 0.019500 0
M  V30 42 H -3.261304 -4.069545 1.109571 0
M  V30 43 H -1.672746 -5.048565 1.171201 0
M  V30 44 H -3.341967 -4.152639 -1.177619 0
M  V30 45 H -2.555860 -5.666616 -0.781570 0
M  V30 46 H -1.237256 -4.985907 -2.475328 0
M  V30 47 H -0.273835 -4.334038 -1.070672 0
M  V30 48 H -2.242010 -2.993551 -2.987811 0
M  V30 49 H -0.033659 -3.086247 -3.622855 0
M  V30 50 H 0.576417 -2.409186 -2.219664 0
M  V30 51 H -3.063403 -2.150474 -0.960823 0
M  V30 52 H -1.916027 -0.945627 -1.571240 0
M  V30 53 H -1.347798 -1.034886 0.601403 0
M  V30 54 H -0.096737 -2.064515 -0.326455 0
M  V30 END ATOM
M  V30 BEGIN BOND
M  V30 1 1 1 2
M  V30 2 1 2 3
M  V30 3 2 3 4
M  V30 4 1 4 5
M  V30 5 1 5 6
M  V30 6 1 6 7
M  V30 7 2 7 8
M  V30 8 1 7 9
M  V30 9 1 9 10
M  V30 10 2 10 11
M  V30 11 1 11 12
M  V30 12 2 12 13
M  V30 13 1 13 14
M  V30 14 1 13 15
M  V30 15 2 15 16
M  V30 16 1 16 17
M  V30 17 2 17 18
M  V30 18 1 18 19
M  V30 19 1 11 20
M  V30 20 1 20 21
M  V30 21 1 21 22
M  V30 22 2 5 23
M  V30 23 1 23 24
M  V30 24 1 24 25
M  V30 25 1 25 26
M  V30 26 1 26 27
M  V30 27 1 27 28
M  V30 28 1 28 29
M  V30 29 1 28 30
M  V30 30 1 30 31
M  V30 31 1 23 2
M  V30 32 1 31 24
M  V30 33 2 21 9
M  V30 34 1 18 12
M  V30 35 1 1 32
M  V30 36 1 1 33
M  V30 37 1 1 34
M  V30 38 1 4 35
M  V30 39 1 6 36
M  V30 40 1 15 37
M  V30 41 1 16 38
M  V30 42 1 17 39
M  V30 43 1 22 40
M  V30 44 1 22 41
M  V30 45 1 25 42
M  V30 46 1 25 43
M  V30 47 1 26 44
M  V30 48 1 26 45
M  V30 49 1 27 46
M  V30 50 1 27 47
M  V30 51 1 28 48 CFG=3
M  V30 52 1 29 49
M  V30 53 1 29 50
M  V30 54 1 30 51
M  V30 55 1 30 52
M  V30 56 1 31 53
M  V30 57 1 31 54
M  V30 END BOND
M  V30 END CTAB
M  END
>  <Dataset>  (81) 
ChEMBL_Kinases

>  <Ligand_Instance>  (81) 
nan

>  <PDB_ID>  (81) 
nan

>  <Standardized_SMILES>  (81) 
Cn1ncc(NC(=O)c2nc(-c3c(F)cccc3F)sc2N)c1N1CCC[C@H](N)CC1

>  <Name>  (81) 
nan

>  <Pocket>  (81) 
nan

>  <ATP_Site>  (81) 
nan

>  <Peripheral>  (81) 
nan

>  <Num_H_Atoms_ProtBoundConf>  (81) 
nan

>  <Num_Resolved_Atoms>  (81) 
nan

>  <Num_Not_Resolved_Atoms>  (81) 
nan

$$$$
CHEMBL4437283
     RDKit          3D

  0  0  0  0  0  0  0  0  0  0999 V3000
M  V30 BEGIN CTAB
M  V30 COUNTS 51 54 0 0 0
M  V30 BEGIN ATOM
M  V30 1 O 1.182424 -1.710315 4.220086 0
M  V30 2 C 1.431752 -0.509680 3.846844 0
M  V30 3 C 2.829635 -0.246787 4.191206 0
M  V30 4 O 3.325401 1.009880 3.870016 0
M  V30 5 C 3.409430 1.536957 2.597494 0
M  V30 6 C 3.067814 1.038889 1.353410 0
M  V30 7 C 3.261465 1.792360 0.220488 0
M  V30 8 C 3.798185 3.061020 0.278342 0
M  V30 9 C 3.956266 3.744063 -0.911627 0
M  V30 10 O 3.635854 3.266489 -2.037721 0
M  V30 11 C 4.497189 5.022775 -0.853719 0
M  V30 12 C 4.825665 5.485226 0.406702 0
M  V30 13 O 4.653130 4.790849 1.506051 0
M  V30 14 C 4.147353 3.581217 1.506514 0
M  V30 15 C 3.952352 2.818360 2.663482 0
M  V30 16 N 0.372530 0.218659 3.237243 0
M  V30 17 C -0.885106 -0.426790 3.078555 0
M  V30 18 C -1.840453 -0.342170 4.069928 0
M  V30 19 C -3.043931 -0.985859 3.867837 0
M  V30 20 C -3.219489 -1.675238 2.686787 0
M  V30 21 C -2.304594 -1.781602 1.688412 0
M  V30 22 N -2.441569 -2.476548 0.463132 0
M  V30 23 C -3.535400 -3.219578 -0.026686 0
M  V30 24 O -4.569044 -3.317147 0.679498 0
M  V30 25 C -3.582996 -3.904896 -1.310664 0
M  V30 26 C -4.722829 -4.593385 -1.655650 0
M  V30 27 C -4.827312 -5.271071 -2.875590 0
M  V30 28 C -3.785709 -5.270390 -3.775516 0
M  V30 29 C -2.653275 -4.591221 -3.442151 0
M  V30 30 N -1.544952 -4.561237 -4.343115 0 CHG=1 VAL=4
M  V30 31 O -1.603933 -5.150043 -5.430552 0
M  V30 32 O -0.396030 -3.874599 -4.009554 0 CHG=-1 VAL=1
M  V30 33 C -2.576720 -3.942196 -2.253468 0
M  V30 34 C -1.116516 -1.128072 1.922873 0
M  V30 35 H 2.933253 -0.346757 5.312851 0
M  V30 36 H 3.522298 -0.994046 3.736498 0
M  V30 37 H 2.659277 0.037878 1.447221 0
M  V30 38 H 2.957729 1.302078 -0.700547 0
M  V30 39 H 4.658835 5.634793 -1.733297 0
M  V30 40 H 5.251490 6.491118 0.455159 0
M  V30 41 H 4.277248 3.367866 3.550771 0
M  V30 42 H 0.724737 1.175542 2.996192 0
M  V30 43 H -1.597097 0.221822 4.949767 0
M  V30 44 H -3.806097 -0.937152 4.622383 0
M  V30 45 H -4.172022 -2.154392 2.585460 0
M  V30 46 H -1.659185 -2.482399 -0.225555 0
M  V30 47 H -5.606001 -4.655644 -1.011884 0
M  V30 48 H -5.742460 -5.804557 -3.115290 0
M  V30 49 H -3.865993 -5.793788 -4.718058 0
M  V30 50 H -1.663076 -3.415270 -2.025165 0
M  V30 51 H -0.321820 -1.161720 1.169264 0
M  V30 END ATOM
M  V30 BEGIN BOND
M  V30 1 2 1 2
M  V30 2 1 2 3
M  V30 3 1 3 4
M  V30 4 1 4 5
M  V30 5 2 5 6
M  V30 6 1 6 7
M  V30 7 2 7 8
M  V30 8 1 8 9
M  V30 9 2 9 10
M  V30 10 1 9 11
M  V30 11 2 11 12
M  V30 12 1 12 13
M  V30 13 1 13 14
M  V30 14 2 14 15
M  V30 15 1 2 16
M  V30 16 1 16 17
M  V30 17 2 17 18
M  V30 18 1 18 19
M  V30 19 2 19 20
M  V30 20 1 20 21
M  V30 21 1 21 22
M  V30 22 1 22 23
M  V30 23 2 23 24
M  V30 24 1 23 25
M  V30 25 2 25 26
M  V30 26 1 26 27
M  V30 27 2 27 28
M  V30 28 1 28 29
M  V30 29 1 29 30
M  V30 30 2 30 31
M  V30 31 1 30 32
M  V30 32 2 29 33
M  V30 33 2 21 34
M  V30 34 1 15 5
M  V30 35 1 34 17
M  V30 36 1 14 8
M  V30 37 1 33 25
M  V30 38 1 3 35
M  V30 39 1 3 36
M  V30 40 1 6 37
M  V30 41 1 7 38
M  V30 42 1 11 39
M  V30 43 1 12 40
M  V30 44 1 15 41
M  V30 45 1 16 42
M  V30 46 1 18 43
M  V30 47 1 19 44
M  V30 48 1 20 45
M  V30 49 1 22 46
M  V30 50 1 26 47
M  V30 51 1 27 48
M  V30 52 1 28 49
M  V30 53 1 33 50
M  V30 54 1 34 51
M  V30 END BOND
M  V30 END CTAB
M  END
>  <Dataset>  (82) 
ChEMBL_Kinases

>  <Ligand_Instance>  (82) 
nan

>  <PDB_ID>  (82) 
nan

>  <Standardized_SMILES>  (82) 
O=C(COc1ccc2c(=O)ccoc2c1)Nc1cccc(NC(=O)c2cccc([N+](=O)[O-])c2)c1

>  <Name>  (82) 
nan

>  <Pocket>  (82) 
nan

>  <ATP_Site>  (82) 
nan

>  <Peripheral>  (82) 
nan

>  <Num_H_Atoms_ProtBoundConf>  (82) 
nan

>  <Num_Resolved_Atoms>  (82) 
nan

>  <Num_Not_Resolved_Atoms>  (82) 
nan

$$$$
CHEMBL245884
     RDKit          3D

  0  0  0  0  0  0  0  0  0  0999 V3000
M  V30 BEGIN CTAB
M  V30 COUNTS 55 58 0 0 0
M  V30 BEGIN ATOM
M  V30 1 C 1.643286 1.094579 4.708068 0
M  V30 2 C 3.122156 1.381304 4.824109 0
M  V30 3 C 3.526362 0.971828 6.234353 0
M  V30 4 N 4.959028 0.940971 6.412439 0
M  V30 5 C 5.731319 0.227746 5.426422 0
M  V30 6 O 6.847912 -0.251112 5.732662 0
M  V30 7 C 5.159831 0.093507 4.081256 0
M  V30 8 N 5.608318 -0.496994 2.962635 0
M  V30 9 C 4.713723 -0.357932 1.957559 0
M  V30 10 C 4.777707 -0.814292 0.641702 0
M  V30 11 C 3.674375 -0.490846 -0.122019 0
M  V30 12 C 2.563217 0.216450 0.296078 0
M  V30 13 C 1.459464 0.483408 -0.622230 0
M  V30 14 O 1.588747 0.007255 -1.779935 0
M  V30 15 N 0.337038 1.224224 -0.220752 0
M  V30 16 C -0.727045 1.443943 -1.205599 0
M  V30 17 N -1.716792 0.411538 -1.156101 0
M  V30 18 C -2.654910 0.634713 -2.048877 0
M  V30 19 C -3.783534 -0.314614 -2.164987 0
M  V30 20 O -4.722800 -0.202665 -2.987167 0
M  V30 21 N -3.995585 -1.474872 -1.397412 0
M  V30 22 C -4.797654 -2.588730 -1.151734 0
M  V30 23 C -4.951786 -3.713957 -2.089208 0
M  V30 24 N -5.419676 -3.526407 -3.395648 0
M  V30 25 C -4.508441 -2.950342 -4.321094 0
M  V30 26 C -6.241428 -4.589361 -3.913438 0
M  V30 27 C -2.747054 1.763319 -3.003070 0
M  V30 28 S -1.146540 2.606173 -2.437020 0
M  V30 29 C 2.584284 0.630809 1.615866 0
M  V30 30 C 3.640072 0.362827 2.475292 0
M  V30 31 C 3.913920 0.646710 3.800838 0
M  V30 32 H 1.488480 0.109625 4.228609 0
M  V30 33 H 1.166442 1.027884 5.714949 0
M  V30 34 H 1.130917 1.934728 4.191523 0
M  V30 35 H 3.272203 2.477821 4.758731 0
M  V30 36 H 3.077223 -0.049111 6.399107 0
M  V30 37 H 3.041748 1.653576 6.945251 0
M  V30 38 H 5.446435 1.413649 7.223620 0
M  V30 39 H 6.537102 -1.002082 2.877559 0
M  V30 40 H 5.606409 -1.365350 0.255896 0
M  V30 41 H 3.729269 -0.852302 -1.152760 0
M  V30 42 H 0.224366 1.617427 0.721414 0
M  V30 43 H -3.178805 -1.529586 -0.695751 0
M  V30 44 H -5.872767 -2.172530 -0.991564 0
M  V30 45 H -4.581220 -3.063642 -0.132841 0
M  V30 46 H -5.618442 -4.472897 -1.533762 0
M  V30 47 H -3.951145 -4.294500 -2.145138 0
M  V30 48 H -4.253155 -3.738293 -5.101749 0
M  V30 49 H -3.587770 -2.558896 -3.878336 0
M  V30 50 H -5.039197 -2.121563 -4.873312 0
M  V30 51 H -6.428593 -5.371891 -3.136047 0
M  V30 52 H -5.782896 -5.033252 -4.809303 0
M  V30 53 H -7.221979 -4.104223 -4.181049 0
M  V30 54 H -3.449562 2.003394 -3.729468 0
M  V30 55 H 1.752502 1.181895 1.998677 0
M  V30 END ATOM
M  V30 BEGIN BOND
M  V30 1 1 1 2
M  V30 2 1 2 3
M  V30 3 1 3 4
M  V30 4 1 4 5
M  V30 5 2 5 6
M  V30 6 1 5 7
M  V30 7 1 7 8
M  V30 8 1 8 9
M  V30 9 2 9 10
M  V30 10 1 10 11
M  V30 11 2 11 12
M  V30 12 1 12 13
M  V30 13 2 13 14
M  V30 14 1 13 15
M  V30 15 1 15 16
M  V30 16 2 16 17
M  V30 17 1 17 18
M  V30 18 1 18 19
M  V30 19 2 19 20
M  V30 20 1 19 21
M  V30 21 1 21 22
M  V30 22 1 22 23
M  V30 23 1 23 24
M  V30 24 1 24 25
M  V30 25 1 24 26
M  V30 26 2 18 27
M  V30 27 1 27 28
M  V30 28 1 12 29
M  V30 29 2 29 30
M  V30 30 1 30 31
M  V30 31 1 31 2
M  V30 32 2 31 7
M  V30 33 1 30 9
M  V30 34 1 28 16
M  V30 35 1 1 32
M  V30 36 1 1 33
M  V30 37 1 1 34
M  V30 38 1 2 35
M  V30 39 1 3 36
M  V30 40 1 3 37
M  V30 41 1 4 38
M  V30 42 1 8 39
M  V30 43 1 10 40
M  V30 44 1 11 41
M  V30 45 1 15 42
M  V30 46 1 21 43
M  V30 47 1 22 44
M  V30 48 1 22 45
M  V30 49 1 23 46
M  V30 50 1 23 47
M  V30 51 1 25 48
M  V30 52 1 25 49
M  V30 53 1 25 50
M  V30 54 1 26 51
M  V30 55 1 26 52
M  V30 56 1 26 53
M  V30 57 1 27 54
M  V30 58 1 29 55
M  V30 END BOND
M  V30 END CTAB
M  END
>  <Dataset>  (83) 
ChEMBL_Kinases

>  <Ligand_Instance>  (83) 
nan

>  <PDB_ID>  (83) 
nan

>  <Standardized_SMILES>  (83) 
CC1CNC(=O)c2[nH]c3ccc(C(=O)Nc4nc(C(=O)NCCN(C)C)cs4)cc3c21

>  <Name>  (83) 
nan

>  <Pocket>  (83) 
nan

>  <ATP_Site>  (83) 
nan

>  <Peripheral>  (83) 
nan

>  <Num_H_Atoms_ProtBoundConf>  (83) 
nan

>  <Num_Resolved_Atoms>  (83) 
nan

>  <Num_Not_Resolved_Atoms>  (83) 
nan

$$$$
CHEMBL4445356
     RDKit          3D

  0  0  0  0  0  0  0  0  0  0999 V3000
M  V30 BEGIN CTAB
M  V30 COUNTS 53 55 0 0 0
M  V30 BEGIN ATOM
M  V30 1 C -2.106105 -8.113245 3.586321 0
M  V30 2 C -1.245043 -7.829727 2.369034 0
M  V30 3 N -0.095757 -7.006039 2.712184 0
M  V30 4 C 1.081279 -6.330237 2.267124 0
M  V30 5 C 0.937845 -4.998138 1.865056 0
M  V30 6 C 2.064767 -4.307991 1.425455 0
M  V30 7 C 1.982783 -2.917724 0.994235 0
M  V30 8 C 1.018020 -2.130619 1.638963 0
M  V30 9 C 0.916018 -0.808507 1.251252 0
M  V30 10 C 1.692831 -0.213720 0.279989 0
M  V30 11 C 1.584026 1.183370 -0.129461 0
M  V30 12 O 2.319490 1.665015 -1.009712 0
M  V30 13 N 0.630270 2.042014 0.466708 0
M  V30 14 C 0.568109 3.415108 0.021444 0 CFG=2
M  V30 15 C 0.860226 4.331167 1.191655 0
M  V30 16 C -0.818088 3.777734 -0.440852 0
M  V30 17 C -1.868187 3.377491 0.360113 0
M  V30 18 C -3.135808 3.708632 -0.064133 0
M  V30 19 C -3.368003 4.412050 -1.239850 0
M  V30 20 C -2.296709 4.812841 -2.044010 0
M  V30 21 O -2.413501 5.516496 -3.233103 0
M  V30 22 C -3.699001 5.883344 -3.717261 0
M  V30 23 C -1.005872 4.483107 -1.624787 0
M  V30 24 C 2.647388 -1.015459 -0.349542 0
M  V30 25 C 2.770963 -2.341270 0.018667 0
M  V30 26 C 3.228548 -5.044134 1.438580 0
M  V30 27 C 3.373173 -6.356788 1.834142 0
M  V30 28 N 2.252624 -6.973261 2.248925 0
M  V30 29 H -2.371966 -9.183448 3.698546 0
M  V30 30 H -1.545506 -7.768447 4.483868 0
M  V30 31 H -3.060311 -7.540502 3.566617 0
M  V30 32 H -0.933590 -8.819777 1.970700 0
M  V30 33 H -1.902863 -7.351808 1.615640 0
M  V30 34 H -0.001874 -6.730863 3.734438 0
M  V30 35 H -0.034384 -4.514433 1.896344 0
M  V30 36 H 0.357981 -2.512977 2.419329 0
M  V30 37 H 0.171327 -0.211527 1.752834 0
M  V30 38 H -0.032331 1.737619 1.211966 0
M  V30 39 H 1.311518 3.639953 -0.764600 0
M  V30 40 H 0.050681 4.311290 1.956265 0
M  V30 41 H 1.119552 5.354813 0.868662 0
M  V30 42 H 1.773969 3.927447 1.713996 0
M  V30 43 H -1.759305 2.831415 1.280900 0
M  V30 44 H -4.044099 3.442891 0.490909 0
M  V30 45 H -4.358829 4.674741 -1.578564 0
M  V30 46 H -4.204174 6.554200 -3.014408 0
M  V30 47 H -4.275168 4.914918 -3.717490 0
M  V30 48 H -3.660167 6.250825 -4.752702 0
M  V30 49 H -0.165109 4.785464 -2.234752 0
M  V30 50 H 3.301168 -0.638718 -1.121361 0
M  V30 51 H 3.488757 -3.021628 -0.426334 0
M  V30 52 H 4.123484 -4.538415 1.103679 0
M  V30 53 H 4.361025 -6.828528 1.795984 0
M  V30 END ATOM
M  V30 BEGIN BOND
M  V30 1 1 1 2
M  V30 2 1 2 3
M  V30 3 1 3 4
M  V30 4 2 4 5
M  V30 5 1 5 6
M  V30 6 1 6 7
M  V30 7 2 7 8
M  V30 8 1 8 9
M  V30 9 2 9 10
M  V30 10 1 10 11
M  V30 11 2 11 12
M  V30 12 1 11 13
M  V30 13 1 13 14
M  V30 14 1 14 15
M  V30 15 1 14 16
M  V30 16 2 16 17
M  V30 17 1 17 18
M  V30 18 2 18 19
M  V30 19 1 19 20
M  V30 20 1 20 21
M  V30 21 1 21 22
M  V30 22 2 20 23
M  V30 23 1 10 24
M  V30 24 2 24 25
M  V30 25 2 6 26
M  V30 26 1 26 27
M  V30 27 2 27 28
M  V30 28 1 28 4
M  V30 29 1 25 7
M  V30 30 1 23 16
M  V30 31 1 1 29
M  V30 32 1 1 30
M  V30 33 1 1 31
M  V30 34 1 2 32
M  V30 35 1 2 33
M  V30 36 1 3 34
M  V30 37 1 5 35
M  V30 38 1 8 36
M  V30 39 1 9 37
M  V30 40 1 13 38
M  V30 41 1 14 39 CFG=3
M  V30 42 1 15 40
M  V30 43 1 15 41
M  V30 44 1 15 42
M  V30 45 1 17 43
M  V30 46 1 18 44
M  V30 47 1 19 45
M  V30 48 1 22 46
M  V30 49 1 22 47
M  V30 50 1 22 48
M  V30 51 1 23 49
M  V30 52 1 24 50
M  V30 53 1 25 51
M  V30 54 1 26 52
M  V30 55 1 27 53
M  V30 END BOND
M  V30 END CTAB
M  END
>  <Dataset>  (84) 
ChEMBL_Kinases

>  <Ligand_Instance>  (84) 
nan

>  <PDB_ID>  (84) 
nan

>  <Standardized_SMILES>  (84) 
CCNc1cc(-c2ccc(C(=O)N[C@H](C)c3cccc(OC)c3)cc2)ccn1

>  <Name>  (84) 
nan

>  <Pocket>  (84) 
nan

>  <ATP_Site>  (84) 
nan

>  <Peripheral>  (84) 
nan

>  <Num_H_Atoms_ProtBoundConf>  (84) 
nan

>  <Num_Resolved_Atoms>  (84) 
nan

>  <Num_Not_Resolved_Atoms>  (84) 
nan

$$$$
CHEMBL4576822
     RDKit          3D

  0  0  0  0  0  0  0  0  0  0999 V3000
M  V30 BEGIN CTAB
M  V30 COUNTS 71 74 0 0 0
M  V30 BEGIN ATOM
M  V30 1 C 3.566777 -2.280576 3.317579 0
M  V30 2 N 2.522738 -1.702658 4.167578 0
M  V30 3 C 1.600549 -0.833213 3.523118 0
M  V30 4 O 1.948504 -0.788722 2.316907 0
M  V30 5 C 0.510944 -0.184336 4.234555 0
M  V30 6 C 0.339976 -0.477137 5.565440 0
M  V30 7 C -0.703490 0.109484 6.245353 0
M  V30 8 C -1.598788 0.982781 5.668839 0
M  V30 9 C -1.340013 1.212032 4.326978 0
M  V30 10 C -0.313647 0.673740 3.538662 0
M  V30 11 N -0.210786 1.013170 2.192779 0
M  V30 12 C 0.666018 1.660354 1.327501 0
M  V30 13 N 0.370858 1.665019 0.016660 0
M  V30 14 C 1.108354 2.254345 -0.924680 0
M  V30 15 N 0.791589 2.264845 -2.306586 0
M  V30 16 C -0.311617 1.722012 -3.006955 0
M  V30 17 C -1.329808 1.045962 -2.370878 0
M  V30 18 C -2.440806 0.490170 -2.965894 0
M  V30 19 C -3.538847 -0.236837 -2.325362 0
M  V30 20 N -3.257760 -1.643529 -2.304454 0
M  V30 21 C -2.376013 -2.354961 -1.458355 0
M  V30 22 O -1.720056 -1.744171 -0.587304 0
M  V30 23 C -2.205391 -3.807574 -1.573079 0
M  V30 24 C -1.385048 -4.462630 -0.783770 0
M  V30 25 C -1.247283 -5.954441 -0.944268 0
M  V30 26 N -1.647185 -6.520599 0.342972 0
M  V30 27 C -0.628019 -6.137545 1.307262 0
M  V30 28 C -2.874263 -5.834581 0.755880 0
M  V30 29 C -2.559356 0.617106 -4.349577 0
M  V30 30 C -1.562940 1.285763 -5.023871 0
M  V30 31 C -0.467232 1.828117 -4.396717 0
M  V30 32 O 0.524558 2.497944 -5.100242 0
M  V30 33 C 0.371748 2.606875 -6.501676 0
M  V30 34 N 2.225969 2.890050 -0.544079 0
M  V30 35 C 2.632135 2.959248 0.732052 0
M  V30 36 N 3.671324 3.518524 1.343625 0
M  V30 37 C 3.566592 3.270382 2.659641 0
M  V30 38 C 2.410629 2.524025 2.869127 0
M  V30 39 C 1.824305 2.329638 1.651921 0
M  V30 40 H 4.267996 -2.832687 3.989072 0
M  V30 41 H 4.090237 -1.493063 2.741988 0
M  V30 42 H 3.074255 -3.018426 2.652445 0
M  V30 43 H 2.476482 -1.932206 5.197985 0
M  V30 44 H 0.939000 -1.132762 6.173441 0
M  V30 45 H -0.883472 -0.089299 7.307171 0
M  V30 46 H -2.437236 1.481239 6.127948 0
M  V30 47 H -2.021168 1.903027 3.804246 0
M  V30 48 H -1.109736 0.612318 1.803935 0
M  V30 49 H 1.458034 2.743132 -2.955504 0
M  V30 50 H -1.361275 0.878014 -1.305024 0
M  V30 51 H -3.673352 0.159120 -1.284322 0
M  V30 52 H -4.494912 -0.047442 -2.831610 0
M  V30 53 H -3.764365 -2.257408 -3.007259 0
M  V30 54 H -2.773071 -4.357937 -2.332130 0
M  V30 55 H -0.825726 -3.942330 -0.040780 0
M  V30 56 H -1.926470 -6.300721 -1.755156 0
M  V30 57 H -0.215478 -6.244631 -1.187719 0
M  V30 58 H -0.852288 -5.111413 1.661344 0
M  V30 59 H -0.683817 -6.837557 2.153442 0
M  V30 60 H 0.392136 -6.225278 0.865871 0
M  V30 61 H -2.716106 -4.733210 0.837415 0
M  V30 62 H -3.216943 -6.169905 1.745441 0
M  V30 63 H -3.675828 -5.968661 -0.009044 0
M  V30 64 H -3.370922 0.233421 -4.941912 0
M  V30 65 H -1.599569 1.416418 -6.099483 0
M  V30 66 H 0.318824 1.592731 -6.959053 0
M  V30 67 H 1.170601 3.185972 -6.976290 0
M  V30 68 H -0.613440 3.074153 -6.761341 0
M  V30 69 H 4.401178 4.045831 0.809743 0
M  V30 70 H 4.272423 3.604847 3.400765 0
M  V30 71 H 2.056062 2.177205 3.807290 0
M  V30 END ATOM
M  V30 BEGIN BOND
M  V30 1 1 1 2
M  V30 2 1 2 3
M  V30 3 2 3 4
M  V30 4 1 3 5
M  V30 5 2 5 6
M  V30 6 1 6 7
M  V30 7 2 7 8
M  V30 8 1 8 9
M  V30 9 2 9 10
M  V30 10 1 10 11
M  V30 11 1 11 12
M  V30 12 2 12 13
M  V30 13 1 13 14
M  V30 14 1 14 15
M  V30 15 1 15 16
M  V30 16 2 16 17
M  V30 17 1 17 18
M  V30 18 1 18 19
M  V30 19 1 19 20
M  V30 20 1 20 21
M  V30 21 2 21 22
M  V30 22 1 21 23
M  V30 23 2 23 24
M  V30 24 1 24 25
M  V30 25 1 25 26
M  V30 26 1 26 27
M  V30 27 1 26 28
M  V30 28 2 18 29
M  V30 29 1 29 30
M  V30 30 2 30 31
M  V30 31 1 31 32
M  V30 32 1 32 33
M  V30 33 2 14 34
M  V30 34 1 34 35
M  V30 35 1 35 36
M  V30 36 1 36 37
M  V30 37 2 37 38
M  V30 38 1 38 39
M  V30 39 1 10 5
M  V30 40 1 39 12
M  V30 41 1 31 16
M  V30 42 2 39 35
M  V30 43 1 1 40
M  V30 44 1 1 41
M  V30 45 1 1 42
M  V30 46 1 2 43
M  V30 47 1 6 44
M  V30 48 1 7 45
M  V30 49 1 8 46
M  V30 50 1 9 47
M  V30 51 1 11 48
M  V30 52 1 15 49
M  V30 53 1 17 50
M  V30 54 1 19 51
M  V30 55 1 19 52
M  V30 56 1 20 53
M  V30 57 1 23 54
M  V30 58 1 24 55
M  V30 59 1 25 56
M  V30 60 1 25 57
M  V30 61 1 27 58
M  V30 62 1 27 59
M  V30 63 1 27 60
M  V30 64 1 28 61
M  V30 65 1 28 62
M  V30 66 1 28 63
M  V30 67 1 29 64
M  V30 68 1 30 65
M  V30 69 1 33 66
M  V30 70 1 33 67
M  V30 71 1 33 68
M  V30 72 1 36 69
M  V30 73 1 37 70
M  V30 74 1 38 71
M  V30 END BOND
M  V30 END CTAB
M  END
>  <Dataset>  (85) 
ChEMBL_Kinases

>  <Ligand_Instance>  (85) 
nan

>  <PDB_ID>  (85) 
nan

>  <Standardized_SMILES>  (85) 
CNC(=O)c1ccccc1Nc1nc(Nc2cc(CNC(=O)/C=C/CN(C)C)ccc2OC)nc2[nH]ccc12

>  <Name>  (85) 
nan

>  <Pocket>  (85) 
nan

>  <ATP_Site>  (85) 
nan

>  <Peripheral>  (85) 
nan

>  <Num_H_Atoms_ProtBoundConf>  (85) 
nan

>  <Num_Resolved_Atoms>  (85) 
nan

>  <Num_Not_Resolved_Atoms>  (85) 
nan

$$$$
CHEMBL4436502
     RDKit          3D

  0  0  0  0  0  0  0  0  0  0999 V3000
M  V30 BEGIN CTAB
M  V30 COUNTS 59 62 0 0 0
M  V30 BEGIN ATOM
M  V30 1 C 2.151118 -4.045501 3.793393 0
M  V30 2 C 2.204092 -2.748007 4.564786 0 CFG=1
M  V30 3 N 3.346957 -2.627004 5.420707 0
M  V30 4 C 4.144583 -1.486940 5.089034 0
M  V30 5 O 5.207484 -1.114342 5.656200 0
M  V30 6 C 3.443153 -0.883985 3.967688 0
M  V30 7 C 3.472623 0.162739 3.071276 0
M  V30 8 C 2.394962 0.115038 2.205732 0
M  V30 9 C 2.179919 1.101971 1.155955 0
M  V30 10 C 3.047533 2.155387 0.959798 0
M  V30 11 C 2.866704 3.101568 -0.025366 0
M  V30 12 C 1.761778 2.968837 -0.839495 0
M  V30 13 C 0.834449 1.927760 -0.704495 0
M  V30 14 C -0.269228 1.804148 -1.524847 0
M  V30 15 O -0.346264 2.695987 -2.374178 0
M  V30 16 N -1.142730 0.811183 -1.386843 0
M  V30 17 C -2.290929 0.711097 -2.217802 0
M  V30 18 C -2.025034 -0.241776 -3.358668 0
M  V30 19 C -3.559193 0.291052 -1.483143 0
M  V30 20 C -2.645894 2.035557 -2.875976 0
M  V30 21 C -0.897916 -0.066427 -0.410830 0
M  V30 22 N -1.625268 -1.241312 -0.073466 0
M  V30 23 C -1.793323 -2.667870 -0.243387 0
M  V30 24 C -0.567482 -3.417476 0.282267 0
M  V30 25 C -2.941414 -3.120951 0.628194 0
M  V30 26 C -1.999542 -3.139071 -1.641422 0
M  V30 27 N 0.180301 0.051051 0.394940 0
M  V30 28 C 1.078214 1.017485 0.302044 0
M  V30 29 N 1.717738 -0.976011 2.595677 0
M  V30 30 C 2.307789 -1.592085 3.634780 0
M  V30 31 H 2.860730 -4.805930 4.122914 0
M  V30 32 H 2.253069 -3.814377 2.695317 0
M  V30 33 H 1.132586 -4.506266 3.872222 0
M  V30 34 H 1.261009 -2.669201 5.173407 0
M  V30 35 H 3.554580 -3.306775 6.193795 0
M  V30 36 H 4.265699 0.917809 3.074601 0
M  V30 37 H 3.922948 2.276309 1.590973 0
M  V30 38 H 3.577170 3.908351 -0.136875 0
M  V30 39 H 1.600388 3.709291 -1.627193 0
M  V30 40 H -2.044212 0.273865 -4.366770 0
M  V30 41 H -2.783046 -1.030679 -3.448112 0
M  V30 42 H -0.972072 -0.635861 -3.273403 0
M  V30 43 H -3.669672 0.849147 -0.528830 0
M  V30 44 H -3.665481 -0.799034 -1.381577 0
M  V30 45 H -4.466275 0.599791 -2.084426 0
M  V30 46 H -3.714382 1.920065 -3.215435 0
M  V30 47 H -2.656928 2.876793 -2.157750 0
M  V30 48 H -2.086238 2.198758 -3.800065 0
M  V30 49 H -2.306584 -0.746756 0.584039 0
M  V30 50 H 0.371093 -3.068659 -0.153308 0
M  V30 51 H -0.544219 -3.338276 1.368780 0
M  V30 52 H -0.676822 -4.487880 0.012089 0
M  V30 53 H -2.903663 -2.489189 1.550764 0
M  V30 54 H -2.778057 -4.163073 0.993975 0
M  V30 55 H -3.917306 -2.939349 0.179917 0
M  V30 56 H -1.173992 -2.789022 -2.291241 0
M  V30 57 H -2.992249 -2.965399 -2.060532 0
M  V30 58 H -1.870386 -4.256544 -1.608579 0
M  V30 59 H 0.856001 -1.314950 2.168298 0
M  V30 END ATOM
M  V30 BEGIN BOND
M  V30 1 1 1 2
M  V30 2 1 2 3
M  V30 3 1 3 4
M  V30 4 2 4 5
M  V30 5 1 4 6
M  V30 6 1 6 7
M  V30 7 2 7 8
M  V30 8 1 8 9
M  V30 9 2 9 10
M  V30 10 1 10 11
M  V30 11 2 11 12
M  V30 12 1 12 13
M  V30 13 1 13 14
M  V30 14 2 14 15
M  V30 15 1 14 16
M  V30 16 1 16 17
M  V30 17 1 17 18
M  V30 18 1 17 19
M  V30 19 1 17 20
M  V30 20 1 16 21
M  V30 21 1 21 22
M  V30 22 1 22 23
M  V30 23 1 23 24
M  V30 24 1 23 25
M  V30 25 1 23 26
M  V30 26 2 21 27
M  V30 27 1 27 28
M  V30 28 1 8 29
M  V30 29 1 29 30
M  V30 30 1 30 2
M  V30 31 2 30 6
M  V30 32 1 28 9
M  V30 33 2 28 13
M  V30 34 1 1 31
M  V30 35 1 1 32
M  V30 36 1 1 33
M  V30 37 1 2 34 CFG=1
M  V30 38 1 3 35
M  V30 39 1 7 36
M  V30 40 1 10 37
M  V30 41 1 11 38
M  V30 42 1 12 39
M  V30 43 1 18 40
M  V30 44 1 18 41
M  V30 45 1 18 42
M  V30 46 1 19 43
M  V30 47 1 19 44
M  V30 48 1 19 45
M  V30 49 1 20 46
M  V30 50 1 20 47
M  V30 51 1 20 48
M  V30 52 1 22 49
M  V30 53 1 24 50
M  V30 54 1 24 51
M  V30 55 1 24 52
M  V30 56 1 25 53
M  V30 57 1 25 54
M  V30 58 1 25 55
M  V30 59 1 26 56
M  V30 60 1 26 57
M  V30 61 1 26 58
M  V30 62 1 29 59
M  V30 END BOND
M  V30 END CTAB
M  END
>  <Dataset>  (86) 
ChEMBL_Kinases

>  <Ligand_Instance>  (86) 
nan

>  <PDB_ID>  (86) 
nan

>  <Standardized_SMILES>  (86) 
C[C@H]1NC(=O)c2cc(-c3cccc4c(=O)n(C(C)(C)C)c(NC(C)(C)C)nc34)[nH]c21

>  <Name>  (86) 
nan

>  <Pocket>  (86) 
nan

>  <ATP_Site>  (86) 
nan

>  <Peripheral>  (86) 
nan

>  <Num_H_Atoms_ProtBoundConf>  (86) 
nan

>  <Num_Resolved_Atoms>  (86) 
nan

>  <Num_Not_Resolved_Atoms>  (86) 
nan

$$$$
CHEMBL3702063
     RDKit          3D

  0  0  0  0  0  0  0  0  0  0999 V3000
M  V30 BEGIN CTAB
M  V30 COUNTS 67 71 0 0 0
M  V30 BEGIN ATOM
M  V30 1 C 2.451321 1.589101 3.569659 0
M  V30 2 C 2.661749 2.065957 2.175226 0
M  V30 3 C 2.831806 0.920981 1.160878 0
M  V30 4 C 4.018482 0.153775 1.600022 0
M  V30 5 C 1.565986 0.082606 1.321735 0
M  V30 6 N 2.868507 1.530924 -0.119472 0
M  V30 7 C 3.733850 1.741217 -1.121044 0
M  V30 8 C 5.046193 1.338136 -1.155431 0
M  V30 9 N 5.776778 1.631068 -2.236259 0
M  V30 10 C 5.307716 2.300166 -3.300660 0
M  V30 11 C 3.989890 2.712669 -3.282403 0
M  V30 12 C 3.201513 2.430692 -2.186346 0
M  V30 13 C 1.896778 2.649147 -1.777368 0
M  V30 14 C 0.892311 3.302294 -2.468411 0
M  V30 15 N -0.350132 3.428258 -1.917717 0
M  V30 16 C -0.559273 2.897959 -0.688588 0
M  V30 17 N -1.674025 2.787508 0.203748 0
M  V30 18 C -2.283801 1.486724 0.169139 0
M  V30 19 C -1.803861 0.503904 -0.684324 0
M  V30 20 C -2.314040 -0.798187 -0.772787 0
M  V30 21 C -3.369236 -1.061431 0.076137 0
M  V30 22 N -3.967954 -2.348625 0.069302 0
M  V30 23 C -3.740127 -3.394830 -0.906479 0
M  V30 24 C -3.243017 -4.643445 -0.168617 0
M  V30 25 C -2.970743 -4.296064 1.289397 0
M  V30 26 N -2.363212 -5.445216 1.874128 0
M  V30 27 C -1.135317 -5.826295 1.233214 0
M  V30 28 C -2.175174 -5.411052 3.288537 0
M  V30 29 C -4.157793 -3.748868 1.988739 0
M  V30 30 C -4.905337 -2.816430 1.067204 0
M  V30 31 N -3.830902 -0.109141 0.898762 0
M  V30 32 N -3.325869 1.111045 0.956450 0
M  V30 33 N 0.445829 2.276256 -0.062859 0
M  V30 34 C 1.695630 2.106401 -0.528697 0
M  V30 35 H 3.347490 1.628798 4.225547 0
M  V30 36 H 1.915379 0.627652 3.618415 0
M  V30 37 H 1.745002 2.332326 4.049126 0
M  V30 38 H 1.926451 2.805168 1.818523 0
M  V30 39 H 3.647319 2.616889 2.148929 0
M  V30 40 H 4.901943 0.719756 1.895067 0
M  V30 41 H 3.755200 -0.424712 2.549803 0
M  V30 42 H 4.217215 -0.701334 0.891544 0
M  V30 43 H 1.300500 -0.430819 0.367990 0
M  V30 44 H 1.729603 -0.702227 2.091609 0
M  V30 45 H 0.736724 0.707918 1.697260 0
M  V30 46 H 5.518306 0.797866 -0.354558 0
M  V30 47 H 5.894334 2.545444 -4.188118 0
M  V30 48 H 3.499051 3.258982 -4.077109 0
M  V30 49 H 1.034034 3.725377 -3.431778 0
M  V30 50 H -2.036254 3.519947 0.817244 0
M  V30 51 H -0.974745 0.686193 -1.360624 0
M  V30 52 H -1.890203 -1.513281 -1.461168 0
M  V30 53 H -4.705526 -3.656937 -1.380263 0
M  V30 54 H -3.031690 -3.169286 -1.689737 0
M  V30 55 H -2.294888 -4.963591 -0.636738 0
M  V30 56 H -4.003457 -5.438522 -0.181090 0
M  V30 57 H -2.208514 -3.470121 1.253621 0
M  V30 58 H -0.510576 -4.937724 0.960130 0
M  V30 59 H -0.524661 -6.421953 1.961161 0
M  V30 60 H -1.306176 -6.481131 0.340464 0
M  V30 61 H -1.349769 -6.128514 3.530544 0
M  V30 62 H -1.818511 -4.431802 3.665242 0
M  V30 63 H -3.047461 -5.808937 3.859346 0
M  V30 64 H -3.841036 -3.126807 2.872421 0
M  V30 65 H -4.820160 -4.519839 2.433349 0
M  V30 66 H -5.757489 -3.389135 0.650683 0
M  V30 67 H -5.251201 -1.903067 1.603130 0
M  V30 END ATOM
M  V30 BEGIN BOND
M  V30 1 1 1 2
M  V30 2 1 2 3
M  V30 3 1 3 4
M  V30 4 1 3 5
M  V30 5 1 3 6
M  V30 6 1 6 7
M  V30 7 2 7 8
M  V30 8 1 8 9
M  V30 9 2 9 10
M  V30 10 1 10 11
M  V30 11 2 11 12
M  V30 12 1 12 13
M  V30 13 2 13 14
M  V30 14 1 14 15
M  V30 15 2 15 16
M  V30 16 1 16 17
M  V30 17 1 17 18
M  V30 18 2 18 19
M  V30 19 1 19 20
M  V30 20 2 20 21
M  V30 21 1 21 22
M  V30 22 1 22 23
M  V30 23 1 23 24
M  V30 24 1 24 25
M  V30 25 1 25 26
M  V30 26 1 26 27
M  V30 27 1 26 28
M  V30 28 1 25 29
M  V30 29 1 29 30
M  V30 30 1 21 31
M  V30 31 2 31 32
M  V30 32 1 16 33
M  V30 33 2 33 34
M  V30 34 1 34 6
M  V30 35 1 12 7
M  V30 36 1 34 13
M  V30 37 1 32 18
M  V30 38 1 30 22
M  V30 39 1 1 35
M  V30 40 1 1 36
M  V30 41 1 1 37
M  V30 42 1 2 38
M  V30 43 1 2 39
M  V30 44 1 4 40
M  V30 45 1 4 41
M  V30 46 1 4 42
M  V30 47 1 5 43
M  V30 48 1 5 44
M  V30 49 1 5 45
M  V30 50 1 8 46
M  V30 51 1 10 47
M  V30 52 1 11 48
M  V30 53 1 14 49
M  V30 54 1 17 50
M  V30 55 1 19 51
M  V30 56 1 20 52
M  V30 57 1 23 53
M  V30 58 1 23 54
M  V30 59 1 24 55
M  V30 60 1 24 56
M  V30 61 1 25 57
M  V30 62 1 27 58
M  V30 63 1 27 59
M  V30 64 1 27 60
M  V30 65 1 28 61
M  V30 66 1 28 62
M  V30 67 1 28 63
M  V30 68 1 29 64
M  V30 69 1 29 65
M  V30 70 1 30 66
M  V30 71 1 30 67
M  V30 END BOND
M  V30 END CTAB
M  END
>  <Dataset>  (87) 
ChEMBL_Kinases

>  <Ligand_Instance>  (87) 
nan

>  <PDB_ID>  (87) 
nan

>  <Standardized_SMILES>  (87) 
CCC(C)(C)n1c2cnccc2c2cnc(Nc3ccc(N4CCC(N(C)C)CC4)nn3)nc21

>  <Name>  (87) 
nan

>  <Pocket>  (87) 
nan

>  <ATP_Site>  (87) 
nan

>  <Peripheral>  (87) 
nan

>  <Num_H_Atoms_ProtBoundConf>  (87) 
nan

>  <Num_Resolved_Atoms>  (87) 
nan

>  <Num_Not_Resolved_Atoms>  (87) 
nan

$$$$
CHEMBL3687490
     RDKit          3D

  0  0  0  0  0  0  0  0  0  0999 V3000
M  V30 BEGIN CTAB
M  V30 COUNTS 65 68 0 0 0
M  V30 BEGIN ATOM
M  V30 1 C 6.072514 -0.056574 3.624937 0
M  V30 2 O 5.035528 0.617021 2.896387 0
M  V30 3 C 3.775178 0.077018 2.793261 0
M  V30 4 O 3.714296 -1.019092 3.404508 0
M  V30 5 N 2.674940 0.634260 2.110901 0
M  V30 6 C 1.383501 0.026852 2.036440 0 CFG=2
M  V30 7 C 0.932525 -0.307456 0.629992 0 CFG=2
M  V30 8 N 1.638652 -1.462083 0.105090 0
M  V30 9 C 1.110170 0.909798 -0.210890 0
M  V30 10 N 0.294163 1.965914 0.357191 0
M  V30 11 C -0.407046 2.928552 -0.427466 0
M  V30 12 C 0.093697 4.210637 -0.246638 0
M  V30 13 C -0.413645 5.327669 -0.916289 0
M  V30 14 N -1.447495 5.075108 -1.771752 0
M  V30 15 C -1.903529 3.834917 -1.921375 0
M  V30 16 C -1.442723 2.711547 -1.290845 0
M  V30 17 N -1.918273 1.389809 -1.432423 0
M  V30 18 C -2.955097 0.892364 -2.264134 0
M  V30 19 O -3.574871 1.696316 -3.003451 0
M  V30 20 C -3.338855 -0.514252 -2.303156 0
M  V30 21 C -4.353468 -0.944861 -3.128637 0
M  V30 22 C -4.729517 -2.290917 -3.173591 0
M  V30 23 C -4.056917 -3.210165 -2.361371 0
M  V30 24 F -4.405548 -4.535807 -2.385882 0
M  V30 25 C -3.045208 -2.734707 -1.548353 0
M  V30 26 C -2.363023 -3.722155 -0.712419 0
M  V30 27 C -2.676327 -4.131679 0.569629 0
M  V30 28 F -3.766597 -3.507042 1.073809 0
M  V30 29 C -1.903609 -5.081291 1.190835 0
M  V30 30 C -0.820514 -5.641289 0.572985 0
M  V30 31 C -0.005067 -6.669548 1.278171 0
M  V30 32 C -0.491406 -5.240698 -0.716535 0
M  V30 33 C -1.264210 -4.284032 -1.351205 0
M  V30 34 F -0.830791 -3.994769 -2.589825 0
M  V30 35 N -2.713537 -1.432857 -1.533909 0
M  V30 36 C 0.088186 2.179578 1.788915 0
M  V30 37 C 0.350059 0.956153 2.610393 0 CFG=2
M  V30 38 C 0.723076 1.360519 4.013731 0
M  V30 39 H 6.267600 -1.041901 3.162647 0
M  V30 40 H 6.957011 0.605670 3.678574 0
M  V30 41 H 5.689064 -0.205346 4.655430 0
M  V30 42 H 2.912594 1.544218 1.668285 0
M  V30 43 H 1.319543 -0.928463 2.600355 0
M  V30 44 H -0.162741 -0.524307 0.736994 0
M  V30 45 H 1.043632 -2.284524 0.337773 0
M  V30 46 H 2.577232 -1.457577 0.542759 0
M  V30 47 H 0.824102 0.808444 -1.271775 0
M  V30 48 H 2.196457 1.187953 -0.188108 0
M  V30 49 H 0.902615 4.467112 0.410792 0
M  V30 50 H -0.044462 6.316431 -0.791677 0
M  V30 51 H -2.714474 3.754738 -2.615639 0
M  V30 52 H -1.498223 0.618769 -0.873535 0
M  V30 53 H -4.887241 -0.275603 -3.760109 0
M  V30 54 H -5.532636 -2.603125 -3.833524 0
M  V30 55 H -2.206929 -5.356740 2.198256 0
M  V30 56 H 0.691394 -7.140476 0.558314 0
M  V30 57 H -0.690733 -7.451727 1.661623 0
M  V30 58 H 0.582746 -6.242426 2.109753 0
M  V30 59 H 0.377427 -5.719397 -1.155138 0
M  V30 60 H -0.935019 2.511205 1.989953 0
M  V30 61 H 0.751932 2.999038 2.151993 0
M  V30 62 H -0.601074 0.354036 2.685726 0
M  V30 63 H 0.331952 2.378401 4.243444 0
M  V30 64 H 1.803634 1.391914 4.153171 0
M  V30 65 H 0.304318 0.673120 4.781422 0
M  V30 END ATOM
M  V30 BEGIN BOND
M  V30 1 1 1 2
M  V30 2 1 2 3
M  V30 3 2 3 4
M  V30 4 1 3 5
M  V30 5 1 5 6
M  V30 6 1 6 7
M  V30 7 1 7 8
M  V30 8 1 7 9
M  V30 9 1 9 10
M  V30 10 1 10 11
M  V30 11 2 11 12
M  V30 12 1 12 13
M  V30 13 2 13 14
M  V30 14 1 14 15
M  V30 15 2 15 16
M  V30 16 1 16 17
M  V30 17 1 17 18
M  V30 18 2 18 19
M  V30 19 1 18 20
M  V30 20 2 20 21
M  V30 21 1 21 22
M  V30 22 2 22 23
M  V30 23 1 23 24
M  V30 24 1 23 25
M  V30 25 1 25 26
M  V30 26 2 26 27
M  V30 27 1 27 28
M  V30 28 1 27 29
M  V30 29 2 29 30
M  V30 30 1 30 31
M  V30 31 1 30 32
M  V30 32 2 32 33
M  V30 33 1 33 34
M  V30 34 2 25 35
M  V30 35 1 10 36
M  V30 36 1 36 37
M  V30 37 1 37 38
M  V30 38 1 37 6
M  V30 39 1 16 11
M  V30 40 1 35 20
M  V30 41 1 33 26
M  V30 42 1 1 39
M  V30 43 1 1 40
M  V30 44 1 1 41
M  V30 45 1 5 42
M  V30 46 1 6 43 CFG=1
M  V30 47 1 7 44 CFG=1
M  V30 48 1 8 45
M  V30 49 1 8 46
M  V30 50 1 9 47
M  V30 51 1 9 48
M  V30 52 1 12 49
M  V30 53 1 13 50
M  V30 54 1 15 51
M  V30 55 1 17 52
M  V30 56 1 21 53
M  V30 57 1 22 54
M  V30 58 1 29 55
M  V30 59 1 31 56
M  V30 60 1 31 57
M  V30 61 1 31 58
M  V30 62 1 32 59
M  V30 63 1 36 60
M  V30 64 1 36 61
M  V30 65 1 37 62 CFG=1
M  V30 66 1 38 63
M  V30 67 1 38 64
M  V30 68 1 38 65
M  V30 END BOND
M  V30 END CTAB
M  END
>  <Dataset>  (88) 
ChEMBL_Kinases

>  <Ligand_Instance>  (88) 
nan

>  <PDB_ID>  (88) 
nan

>  <Standardized_SMILES>  (88) 
COC(=O)N[C@@H]1[C@H](N)CN(c2ccncc2NC(=O)c2ccc(F)c(-c3c(F)cc(C)cc3F)n2)C[C@@H]1C

>  <Name>  (88) 
nan

>  <Pocket>  (88) 
nan

>  <ATP_Site>  (88) 
nan

>  <Peripheral>  (88) 
nan

>  <Num_H_Atoms_ProtBoundConf>  (88) 
nan

>  <Num_Resolved_Atoms>  (88) 
nan

>  <Num_Not_Resolved_Atoms>  (88) 
nan

$$$$
CHEMBL255427
     RDKit          3D

  0  0  0  0  0  0  0  0  0  0999 V3000
M  V30 BEGIN CTAB
M  V30 COUNTS 62 67 0 0 0
M  V30 BEGIN ATOM
M  V30 1 C -0.034200 -1.212650 3.789609 0
M  V30 2 N -0.272197 -1.603440 2.437248 0
M  V30 3 C 0.408516 -1.242779 1.329519 0
M  V30 4 C 1.506253 -0.407529 1.216522 0
M  V30 5 C 2.111117 -0.125264 -0.018894 0
M  V30 6 O 3.121467 0.653090 -0.039990 0
M  V30 7 C 4.147058 1.459852 0.045542 0
M  V30 8 C 3.959473 2.837693 0.584823 0
M  V30 9 C 3.058073 3.779292 -0.085644 0
M  V30 10 N 3.305769 4.191933 -1.416569 0
M  V30 11 C 2.430659 5.297001 -1.751150 0
M  V30 12 C 1.874612 5.086580 -3.111944 0
M  V30 13 C 2.187823 3.667899 -3.444437 0
M  V30 14 C 3.245847 3.270284 -2.466115 0
M  V30 15 C 1.574968 -0.711704 -1.148739 0
M  V30 16 O 2.169778 -0.434494 -2.369114 0
M  V30 17 C 0.481007 -1.542271 -1.020992 0
M  V30 18 C -0.097116 -1.809293 0.183276 0
M  V30 19 C -1.146074 -2.556460 0.636025 0
M  V30 20 C -2.045353 -3.353254 0.011146 0
M  V30 21 C -3.028298 -4.014612 0.706114 0
M  V30 22 C -3.132572 -3.886082 2.083306 0
M  V30 23 C -4.161397 -4.568041 2.858288 0
M  V30 24 C -3.778034 -5.843122 3.298149 0
M  V30 25 C -4.663022 -6.601272 4.043126 0
M  V30 26 C -5.927308 -6.140762 4.373490 0
M  V30 27 C -6.298606 -4.871109 3.930859 0
M  V30 28 C -5.423669 -4.106841 3.187228 0
M  V30 29 Cl -5.769933 -2.499810 2.576090 0
M  V30 30 C -2.220219 -3.076343 2.726789 0
M  V30 31 C -1.243516 -2.424384 2.003751 0
M  V30 32 C -3.895746 -4.824317 -0.132355 0
M  V30 33 O -4.874249 -5.540883 0.189146 0
M  V30 34 N -3.375823 -4.623838 -1.460704 0
M  V30 35 C -2.269253 -3.741324 -1.354028 0
M  V30 36 O -1.706677 -3.467961 -2.424388 0
M  V30 37 H 1.043700 -1.008820 4.019305 0
M  V30 38 H -0.388263 -1.976935 4.521092 0
M  V30 39 H -0.536730 -0.230136 3.993263 0
M  V30 40 H 1.911710 0.044452 2.127484 0
M  V30 41 H 4.866596 0.992980 0.839201 0
M  V30 42 H 4.871949 1.535986 -0.808924 0
M  V30 43 H 4.996241 3.307180 0.559158 0
M  V30 44 H 3.774708 2.784266 1.705433 0
M  V30 45 H 3.055710 4.728906 0.540325 0
M  V30 46 H 1.976637 3.475572 -0.045025 0
M  V30 47 H 2.992236 6.265729 -1.775508 0
M  V30 48 H 1.588614 5.375352 -1.016544 0
M  V30 49 H 0.794429 5.333584 -3.194020 0
M  V30 50 H 2.375081 5.724341 -3.898789 0
M  V30 51 H 2.533246 3.546992 -4.511755 0
M  V30 52 H 1.286895 3.002067 -3.389391 0
M  V30 53 H 3.146415 2.189653 -2.189718 0
M  V30 54 H 4.228652 3.325115 -3.026845 0
M  V30 55 H 2.613471 -1.139884 -2.941817 0
M  V30 56 H 0.131409 -1.950999 -1.935376 0
M  V30 57 H -2.830468 -6.342004 3.123559 0
M  V30 58 H -4.438547 -7.596902 4.419133 0
M  V30 59 H -6.639221 -6.724146 4.959617 0
M  V30 60 H -7.256365 -4.422946 4.133578 0
M  V30 61 H -2.285049 -2.965657 3.787805 0
M  V30 62 H -3.833400 -5.109778 -2.276516 0
M  V30 END ATOM
M  V30 BEGIN BOND
M  V30 1 1 1 2
M  V30 2 1 2 3
M  V30 3 2 3 4
M  V30 4 1 4 5
M  V30 5 1 5 6
M  V30 6 1 6 7
M  V30 7 1 7 8
M  V30 8 1 8 9
M  V30 9 1 9 10
M  V30 10 1 10 11
M  V30 11 1 11 12
M  V30 12 1 12 13
M  V30 13 1 13 14
M  V30 14 2 5 15
M  V30 15 1 15 16
M  V30 16 1 15 17
M  V30 17 2 17 18
M  V30 18 1 18 19
M  V30 19 2 19 20
M  V30 20 1 20 21
M  V30 21 2 21 22
M  V30 22 1 22 23
M  V30 23 2 23 24
M  V30 24 1 24 25
M  V30 25 2 25 26
M  V30 26 1 26 27
M  V30 27 2 27 28
M  V30 28 1 28 29
M  V30 29 1 22 30
M  V30 30 2 30 31
M  V30 31 1 21 32
M  V30 32 2 32 33
M  V30 33 1 32 34
M  V30 34 1 34 35
M  V30 35 2 35 36
M  V30 36 1 31 2
M  V30 37 1 18 3
M  V30 38 1 31 19
M  V30 39 1 14 10
M  V30 40 1 35 20
M  V30 41 1 28 23
M  V30 42 1 1 37
M  V30 43 1 1 38
M  V30 44 1 1 39
M  V30 45 1 4 40
M  V30 46 1 7 41
M  V30 47 1 7 42
M  V30 48 1 8 43
M  V30 49 1 8 44
M  V30 50 1 9 45
M  V30 51 1 9 46
M  V30 52 1 11 47
M  V30 53 1 11 48
M  V30 54 1 12 49
M  V30 55 1 12 50
M  V30 56 1 13 51
M  V30 57 1 13 52
M  V30 58 1 14 53
M  V30 59 1 14 54
M  V30 60 1 16 55
M  V30 61 1 17 56
M  V30 62 1 24 57
M  V30 63 1 25 58
M  V30 64 1 26 59
M  V30 65 1 27 60
M  V30 66 1 30 61
M  V30 67 1 34 62
M  V30 END BOND
M  V30 END CTAB
M  END
>  <Dataset>  (89) 
ChEMBL_Kinases

>  <Ligand_Instance>  (89) 
nan

>  <PDB_ID>  (89) 
nan

>  <Standardized_SMILES>  (89) 
Cn1c2cc(OCCCN3CCCC3)c(O)cc2c2c3c(c(-c4ccccc4Cl)cc21)C(=O)NC3=O

>  <Name>  (89) 
nan

>  <Pocket>  (89) 
nan

>  <ATP_Site>  (89) 
nan

>  <Peripheral>  (89) 
nan

>  <Num_H_Atoms_ProtBoundConf>  (89) 
nan

>  <Num_Resolved_Atoms>  (89) 
nan

>  <Num_Not_Resolved_Atoms>  (89) 
nan

$$$$
CHEMBL4436416
     RDKit          3D

  0  0  0  0  0  0  0  0  0  0999 V3000
M  V30 BEGIN CTAB
M  V30 COUNTS 61 65 0 0 0
M  V30 BEGIN ATOM
M  V30 1 C 3.917625 -5.702703 3.163959 0
M  V30 2 N 4.467355 -4.670659 2.292562 0
M  V30 3 C 3.830181 -3.541435 1.932763 0
M  V30 4 C 4.633722 -2.767528 1.091458 0
M  V30 5 C 4.297979 -1.478497 0.493208 0
M  V30 6 C 4.765877 -1.050507 -0.718799 0
M  V30 7 C 4.428413 0.180578 -1.262010 0
M  V30 8 C 3.573998 0.946957 -0.473610 0
M  V30 9 N 3.079886 2.167502 -0.734515 0
M  V30 10 C 2.300933 2.567773 0.257685 0
M  V30 11 N 1.504468 3.718852 0.586469 0
M  V30 12 C 0.126658 3.687336 0.153161 0
M  V30 13 C -0.328592 2.580384 -0.535106 0
M  V30 14 C -1.634686 2.503607 -0.966209 0
M  V30 15 C -2.302976 1.427579 -1.684092 0
M  V30 16 N -3.049366 0.484075 -0.907329 0
M  V30 17 C -3.616186 -0.503540 -1.735998 0
M  V30 18 C -3.098566 -1.901251 -1.503877 0
M  V30 19 N -3.260702 -2.149267 -0.081078 0
M  V30 20 C -4.192899 -3.148876 0.309505 0
M  V30 21 O -4.729365 -3.656816 -0.727972 0
M  V30 22 C -4.372421 -3.413790 1.736152 0
M  V30 23 C -5.384825 -4.492024 2.025436 0
M  V30 24 F -5.523312 -4.709503 3.384002 0
M  V30 25 F -6.640594 -4.160284 1.545784 0
M  V30 26 F -5.044701 -5.706953 1.460094 0
M  V30 27 C -2.401983 -1.294352 0.709609 0
M  V30 28 C -2.405115 0.129294 0.283750 0
M  V30 29 C -2.409504 3.601281 -0.653590 0
M  V30 30 C -1.987608 4.729079 0.034472 0
M  V30 31 N -0.696844 4.718112 0.418058 0
M  V30 32 N 2.297794 1.582209 1.171191 0
M  V30 33 C 3.072485 0.562452 0.757046 0
M  V30 34 C 3.452531 -0.678632 1.235097 0
M  V30 35 C 5.794358 -3.525352 0.981348 0
M  V30 36 N 5.651301 -4.642961 1.708344 0
M  V30 37 H 4.322428 -6.708708 2.867972 0
M  V30 38 H 2.817886 -5.684926 3.033119 0
M  V30 39 H 4.126980 -5.477409 4.232057 0
M  V30 40 H 2.837606 -3.292268 2.261893 0
M  V30 41 H 5.430142 -1.695492 -1.286423 0
M  V30 42 H 4.785249 0.529543 -2.206590 0
M  V30 43 H 1.835065 4.560985 1.104051 0
M  V30 44 H 0.321035 1.759338 -0.762927 0
M  V30 45 H -1.490449 0.918936 -2.292651 0
M  V30 46 H -2.944724 1.880727 -2.503891 0
M  V30 47 H -4.715825 -0.552199 -1.490833 0
M  V30 48 H -3.562355 -0.186945 -2.793072 0
M  V30 49 H -2.016667 -1.985283 -1.752171 0
M  V30 50 H -3.724670 -2.565464 -2.115838 0
M  V30 51 H -3.450262 -3.641321 2.293689 0
M  V30 52 H -4.809074 -2.476703 2.189712 0
M  V30 53 H -2.786812 -1.361415 1.762125 0
M  V30 54 H -1.377899 -1.731952 0.784124 0
M  V30 55 H -2.827613 0.747387 1.115441 0
M  V30 56 H -1.332189 0.467224 0.228012 0
M  V30 57 H -3.470749 3.653346 -0.947622 0
M  V30 58 H -2.644297 5.558997 0.249126 0
M  V30 59 H 1.825797 1.456163 2.111923 0
M  V30 60 H 3.061063 -0.989453 2.205085 0
M  V30 61 H 6.647205 -3.235865 0.402148 0
M  V30 END ATOM
M  V30 BEGIN BOND
M  V30 1 1 1 2
M  V30 2 1 2 3
M  V30 3 2 3 4
M  V30 4 1 4 5
M  V30 5 2 5 6
M  V30 6 1 6 7
M  V30 7 2 7 8
M  V30 8 1 8 9
M  V30 9 2 9 10
M  V30 10 1 10 11
M  V30 11 1 11 12
M  V30 12 2 12 13
M  V30 13 1 13 14
M  V30 14 1 14 15
M  V30 15 1 15 16
M  V30 16 1 16 17
M  V30 17 1 17 18
M  V30 18 1 18 19
M  V30 19 1 19 20
M  V30 20 2 20 21
M  V30 21 1 20 22
M  V30 22 1 22 23
M  V30 23 1 23 24
M  V30 24 1 23 25
M  V30 25 1 23 26
M  V30 26 1 19 27
M  V30 27 1 27 28
M  V30 28 2 14 29
M  V30 29 1 29 30
M  V30 30 2 30 31
M  V30 31 1 10 32
M  V30 32 1 32 33
M  V30 33 2 33 34
M  V30 34 1 4 35
M  V30 35 2 35 36
M  V30 36 1 36 2
M  V30 37 1 34 5
M  V30 38 1 33 8
M  V30 39 1 31 12
M  V30 40 1 28 16
M  V30 41 1 1 37
M  V30 42 1 1 38
M  V30 43 1 1 39
M  V30 44 1 3 40
M  V30 45 1 6 41
M  V30 46 1 7 42
M  V30 47 1 11 43
M  V30 48 1 13 44
M  V30 49 1 15 45
M  V30 50 1 15 46
M  V30 51 1 17 47
M  V30 52 1 17 48
M  V30 53 1 18 49
M  V30 54 1 18 50
M  V30 55 1 22 51
M  V30 56 1 22 52
M  V30 57 1 27 53
M  V30 58 1 27 54
M  V30 59 1 28 55
M  V30 60 1 28 56
M  V30 61 1 29 57
M  V30 62 1 30 58
M  V30 63 1 32 59
M  V30 64 1 34 60
M  V30 65 1 35 61
M  V30 END BOND
M  V30 END CTAB
M  END
>  <Dataset>  (90) 
ChEMBL_Kinases

>  <Ligand_Instance>  (90) 
nan

>  <PDB_ID>  (90) 
nan

>  <Standardized_SMILES>  (90) 
Cn1cc(-c2ccc3nc(Nc4cc(CN5CCN(C(=O)CC(F)(F)F)CC5)ccn4)[nH]c3c2)cn1

>  <Name>  (90) 
nan

>  <Pocket>  (90) 
nan

>  <ATP_Site>  (90) 
nan

>  <Peripheral>  (90) 
nan

>  <Num_H_Atoms_ProtBoundConf>  (90) 
nan

>  <Num_Resolved_Atoms>  (90) 
nan

>  <Num_Not_Resolved_Atoms>  (90) 
nan

$$$$
CHEMBL3687489
     RDKit          3D

  0  0  0  0  0  0  0  0  0  0999 V3000
M  V30 BEGIN CTAB
M  V30 COUNTS 60 63 0 0 0
M  V30 BEGIN ATOM
M  V30 1 C 4.456021 -2.835309 2.551924 0
M  V30 2 O 3.164610 -2.458606 2.427203 0
M  V30 3 C 2.822840 -1.550820 1.481507 0 CFG=2
M  V30 4 C 2.391463 -0.284052 2.178748 0 CFG=2
M  V30 5 N 1.382712 -0.657211 3.147817 0
M  V30 6 C 1.934768 0.794214 1.266712 0
M  V30 7 C 2.214321 0.492858 -0.220567 0 CFG=2
M  V30 8 C 1.799427 1.675827 -0.937854 0
M  V30 9 C 2.729027 2.664824 -1.347737 0
M  V30 10 C 2.494600 3.813978 -2.036622 0
M  V30 11 N 1.222031 4.050816 -2.376533 0
M  V30 12 C 0.272127 3.172789 -2.032320 0
M  V30 13 C 0.517817 2.015301 -1.336568 0
M  V30 14 N -0.528352 1.156038 -1.009036 0
M  V30 15 C -1.917758 1.205359 -1.286648 0
M  V30 16 O -2.391665 2.153821 -1.939380 0
M  V30 17 C -2.913106 0.233192 -0.882036 0
M  V30 18 N -2.589944 -0.864161 -0.167550 0
M  V30 19 C -3.503049 -1.773210 0.213886 0
M  V30 20 C -3.159612 -2.961659 0.986375 0
M  V30 21 C -3.124387 -3.095992 2.365517 0
M  V30 22 F -3.448964 -1.986060 3.045693 0
M  V30 23 C -2.773266 -4.308825 2.917997 0
M  V30 24 C -2.448676 -5.417867 2.159626 0
M  V30 25 C -2.486555 -5.274382 0.781299 0
M  V30 26 C -2.837827 -4.060801 0.202293 0
M  V30 27 F -2.837939 -4.047443 -1.150714 0
M  V30 28 N -4.802432 -1.640478 -0.097136 0
M  V30 29 C -5.182840 -0.559142 -0.812234 0
M  V30 30 C -4.227093 0.386757 -1.208135 0
M  V30 31 N -4.686882 1.501049 -1.957029 0
M  V30 32 C 1.974034 -0.868412 -0.643958 0
M  V30 33 C 1.822455 -1.893083 0.458233 0 CFG=2
M  V30 34 C 0.422713 -2.066946 0.962034 0
M  V30 35 H 4.583290 -3.580919 3.364418 0
M  V30 36 H 4.986454 -3.172843 1.669409 0
M  V30 37 H 5.028582 -1.934370 2.924437 0
M  V30 38 H 3.771548 -1.281727 0.956595 0
M  V30 39 H 3.276394 0.015856 2.787722 0
M  V30 40 H 0.857391 0.209972 3.440155 0
M  V30 41 H 1.758383 -1.171643 3.951962 0
M  V30 42 H 0.865682 0.996093 1.449004 0
M  V30 43 H 2.450264 1.732265 1.568563 0
M  V30 44 H 3.363236 0.593994 -0.210136 0
M  V30 45 H 3.794751 2.520165 -1.092797 0
M  V30 46 H 3.293685 4.497992 -2.294936 0
M  V30 47 H -0.685443 3.523683 -2.385326 0
M  V30 48 H -0.366976 0.290085 -0.453034 0
M  V30 49 H -2.757739 -4.372775 4.016576 0
M  V30 50 H -2.175741 -6.360525 2.586634 0
M  V30 51 H -2.232092 -6.143511 0.166142 0
M  V30 52 H -6.217785 -0.436467 -1.070167 0
M  V30 53 H -5.216108 2.195790 -1.382149 0
M  V30 54 H -4.490653 1.572874 -2.975504 0
M  V30 55 H 1.228485 -1.101506 -1.415784 0
M  V30 56 H 2.905669 -1.268731 -1.181020 0
M  V30 57 H 2.057222 -2.889381 -0.045123 0
M  V30 58 H -0.070714 -1.201423 1.375221 0
M  V30 59 H 0.401679 -2.864653 1.699444 0
M  V30 60 H -0.213409 -2.425616 0.109756 0
M  V30 END ATOM
M  V30 BEGIN BOND
M  V30 1 1 1 2
M  V30 2 1 2 3
M  V30 3 1 3 4
M  V30 4 1 4 5
M  V30 5 1 4 6
M  V30 6 1 6 7
M  V30 7 1 7 8
M  V30 8 2 8 9
M  V30 9 1 9 10
M  V30 10 2 10 11
M  V30 11 1 11 12
M  V30 12 2 12 13
M  V30 13 1 13 14
M  V30 14 1 14 15
M  V30 15 2 15 16
M  V30 16 1 15 17
M  V30 17 2 17 18
M  V30 18 1 18 19
M  V30 19 1 19 20
M  V30 20 2 20 21
M  V30 21 1 21 22
M  V30 22 1 21 23
M  V30 23 2 23 24
M  V30 24 1 24 25
M  V30 25 2 25 26
M  V30 26 1 26 27
M  V30 27 2 19 28
M  V30 28 1 28 29
M  V30 29 2 29 30
M  V30 30 1 30 31
M  V30 31 1 7 32
M  V30 32 1 32 33
M  V30 33 1 33 34
M  V30 34 1 33 3
M  V30 35 1 13 8
M  V30 36 1 30 17
M  V30 37 1 26 20
M  V30 38 1 1 35
M  V30 39 1 1 36
M  V30 40 1 1 37
M  V30 41 1 3 38 CFG=3
M  V30 42 1 4 39 CFG=1
M  V30 43 1 5 40
M  V30 44 1 5 41
M  V30 45 1 6 42
M  V30 46 1 6 43
M  V30 47 1 7 44 CFG=1
M  V30 48 1 9 45
M  V30 49 1 10 46
M  V30 50 1 12 47
M  V30 51 1 14 48
M  V30 52 1 23 49
M  V30 53 1 24 50
M  V30 54 1 25 51
M  V30 55 1 29 52
M  V30 56 1 31 53
M  V30 57 1 31 54
M  V30 58 1 32 55
M  V30 59 1 32 56
M  V30 60 1 33 57 CFG=3
M  V30 61 1 34 58
M  V30 62 1 34 59
M  V30 63 1 34 60
M  V30 END BOND
M  V30 END CTAB
M  END
>  <Dataset>  (91) 
ChEMBL_Kinases

>  <Ligand_Instance>  (91) 
nan

>  <PDB_ID>  (91) 
nan

>  <Standardized_SMILES>  (91) 
CO[C@@H]1[C@H](N)C[C@H](c2ccncc2NC(=O)c2nc(-c3c(F)cccc3F)ncc2N)C[C@@H]1C

>  <Name>  (91) 
nan

>  <Pocket>  (91) 
nan

>  <ATP_Site>  (91) 
nan

>  <Peripheral>  (91) 
nan

>  <Num_H_Atoms_ProtBoundConf>  (91) 
nan

>  <Num_Resolved_Atoms>  (91) 
nan

>  <Num_Not_Resolved_Atoms>  (91) 
nan

$$$$
CHEMBL3687488
     RDKit          3D

  0  0  0  0  0  0  0  0  0  0999 V3000
M  V30 BEGIN CTAB
M  V30 COUNTS 68 71 0 0 0
M  V30 BEGIN ATOM
M  V30 1 C 2.483926 -2.086685 3.854557 0
M  V30 2 C 1.851608 -2.567208 2.577967 0 CFG=2
M  V30 3 C 2.447156 -1.884050 1.356445 0
M  V30 4 C 2.166791 -2.879827 0.229679 0 CFG=2
M  V30 5 C 2.731736 -2.517754 -1.052039 0
M  V30 6 C 4.009942 -2.940308 -1.458763 0
M  V30 7 C 4.649217 -2.666553 -2.648050 0
M  V30 8 N 4.000276 -1.912985 -3.537054 0
M  V30 9 C 2.751788 -1.450222 -3.241078 0
M  V30 10 C 2.165166 -1.757902 -2.034645 0
M  V30 11 N 0.875506 -1.186929 -1.915881 0
M  V30 12 C 0.813933 0.150538 -1.366379 0
M  V30 13 O 1.953494 0.639442 -1.051138 0
M  V30 14 C -0.431676 0.887713 -1.184835 0
M  V30 15 C -0.338421 2.154511 -0.656203 0
M  V30 16 C -1.440112 2.954392 -0.439253 0
M  V30 17 C -2.710080 2.513884 -0.747661 0
M  V30 18 F -3.853088 3.207447 -0.578485 0
M  V30 19 C -2.764244 1.243203 -1.273940 0
M  V30 20 C -4.002419 0.581852 -1.669681 0
M  V30 21 C -4.635526 -0.155765 -0.713186 0
M  V30 22 F -4.203303 -0.319473 0.570025 0
M  V30 23 C -5.820577 -0.808074 -1.036187 0
M  V30 24 C -6.364186 -0.715665 -2.320693 0
M  V30 25 C -5.694595 0.039224 -3.259099 0
M  V30 26 C -4.520243 0.687347 -2.943949 0
M  V30 27 F -3.860148 1.433561 -3.874971 0
M  V30 28 N -1.683952 0.503275 -1.468467 0
M  V30 29 C 0.785683 -3.400296 0.261196 0
M  V30 30 C -0.163930 -2.850111 1.239617 0 CFG=2
M  V30 31 N -0.991623 -1.835279 0.575085 0
M  V30 32 C 0.379366 -2.290831 2.507882 0 CFG=2
M  V30 33 O 0.232580 -0.877195 2.485104 0
M  V30 34 C -0.527831 -0.440815 3.539061 0
M  V30 35 C -0.726908 1.046904 3.616136 0
M  V30 36 S 0.779410 1.956555 3.792202 0
M  V30 37 C 1.893072 1.698683 2.450090 0
M  V30 38 O 0.439841 3.427065 3.826522 0
M  V30 39 O 1.430886 1.660642 5.122516 0
M  V30 40 H 2.290133 -1.030696 4.074081 0
M  V30 41 H 3.546479 -2.357333 3.817102 0
M  V30 42 H 2.029288 -2.684518 4.670804 0
M  V30 43 H 2.080744 -3.649404 2.503621 0
M  V30 44 H 3.545292 -1.838950 1.470894 0
M  V30 45 H 1.964632 -0.925007 1.229563 0
M  V30 46 H 2.814446 -3.761133 0.580691 0
M  V30 47 H 4.582519 -3.567088 -0.751825 0
M  V30 48 H 5.638514 -3.056747 -2.834517 0
M  V30 49 H 2.317300 -0.852788 -4.025074 0
M  V30 50 H -0.105770 -1.527705 -2.152812 0
M  V30 51 H 0.598133 2.610629 -0.374933 0
M  V30 52 H -1.355040 3.959734 -0.018606 0
M  V30 53 H -6.397090 -1.417309 -0.346508 0
M  V30 54 H -7.289846 -1.223511 -2.577849 0
M  V30 55 H -6.112940 0.111288 -4.250393 0
M  V30 56 H 0.832228 -4.520153 0.465523 0
M  V30 57 H 0.268743 -3.380748 -0.729631 0
M  V30 58 H -0.891634 -3.670885 1.569051 0
M  V30 59 H -1.870783 -1.671738 1.151218 0
M  V30 60 H -1.363328 -2.340970 -0.281326 0
M  V30 61 H -0.162481 -2.693985 3.402400 0
M  V30 62 H -0.189478 -0.861680 4.499332 0
M  V30 63 H -1.558439 -0.875088 3.389555 0
M  V30 64 H -1.222714 1.448102 2.694785 0
M  V30 65 H -1.406381 1.322686 4.446904 0
M  V30 66 H 2.407685 2.658266 2.153832 0
M  V30 67 H 2.719301 1.005185 2.692407 0
M  V30 68 H 1.364750 1.368370 1.534031 0
M  V30 END ATOM
M  V30 BEGIN BOND
M  V30 1 1 1 2
M  V30 2 1 2 3
M  V30 3 1 3 4
M  V30 4 1 4 5
M  V30 5 2 5 6
M  V30 6 1 6 7
M  V30 7 2 7 8
M  V30 8 1 8 9
M  V30 9 2 9 10
M  V30 10 1 10 11
M  V30 11 1 11 12
M  V30 12 2 12 13
M  V30 13 1 12 14
M  V30 14 2 14 15
M  V30 15 1 15 16
M  V30 16 2 16 17
M  V30 17 1 17 18
M  V30 18 1 17 19
M  V30 19 1 19 20
M  V30 20 2 20 21
M  V30 21 1 21 22
M  V30 22 1 21 23
M  V30 23 2 23 24
M  V30 24 1 24 25
M  V30 25 2 25 26
M  V30 26 1 26 27
M  V30 27 2 19 28
M  V30 28 1 4 29
M  V30 29 1 29 30
M  V30 30 1 30 31
M  V30 31 1 30 32
M  V30 32 1 32 33
M  V30 33 1 33 34
M  V30 34 1 34 35
M  V30 35 1 35 36
M  V30 36 1 36 37
M  V30 37 2 36 38
M  V30 38 2 36 39
M  V30 39 1 32 2
M  V30 40 1 10 5
M  V30 41 1 28 14
M  V30 42 1 26 20
M  V30 43 1 1 40
M  V30 44 1 1 41
M  V30 45 1 1 42
M  V30 46 1 2 43 CFG=3
M  V30 47 1 3 44
M  V30 48 1 3 45
M  V30 49 1 4 46 CFG=1
M  V30 50 1 6 47
M  V30 51 1 7 48
M  V30 52 1 9 49
M  V30 53 1 11 50
M  V30 54 1 15 51
M  V30 55 1 16 52
M  V30 56 1 23 53
M  V30 57 1 24 54
M  V30 58 1 25 55
M  V30 59 1 29 56
M  V30 60 1 29 57
M  V30 61 1 30 58 CFG=1
M  V30 62 1 31 59
M  V30 63 1 31 60
M  V30 64 1 32 61 CFG=1
M  V30 65 1 34 62
M  V30 66 1 34 63
M  V30 67 1 35 64
M  V30 68 1 35 65
M  V30 69 1 37 66
M  V30 70 1 37 67
M  V30 71 1 37 68
M  V30 END BOND
M  V30 END CTAB
M  END
>  <Dataset>  (92) 
ChEMBL_Kinases

>  <Ligand_Instance>  (92) 
nan

>  <PDB_ID>  (92) 
nan

>  <Standardized_SMILES>  (92) 
C[C@@H]1C[C@H](c2ccncc2NC(=O)c2ccc(F)c(-c3c(F)cccc3F)n2)C[C@H](N)[C@@H]1OCCS(C)(=O)=O

>  <Name>  (92) 
nan

>  <Pocket>  (92) 
nan

>  <ATP_Site>  (92) 
nan

>  <Peripheral>  (92) 
nan

>  <Num_H_Atoms_ProtBoundConf>  (92) 
nan

>  <Num_Resolved_Atoms>  (92) 
nan

>  <Num_Not_Resolved_Atoms>  (92) 
nan

$$$$
CHEMBL3687499
     RDKit          3D

  0  0  0  0  0  0  0  0  0  0999 V3000
M  V30 BEGIN CTAB
M  V30 COUNTS 65 68 0 0 0
M  V30 BEGIN ATOM
M  V30 1 C 2.693079 -2.134826 3.936425 0
M  V30 2 C 3.672630 -1.014323 3.773441 0
M  V30 3 O 3.698859 -0.435419 2.526471 0
M  V30 4 C 2.492936 0.126362 2.125790 0 CFG=2
M  V30 5 C 1.915318 -0.557584 0.911305 0 CFG=2
M  V30 6 C 2.887136 -1.655438 0.517424 0
M  V30 7 C 1.723521 0.369015 -0.253166 0
M  V30 8 C 0.851224 1.548283 0.160500 0 CFG=2
M  V30 9 C 0.596392 2.459662 -0.955740 0
M  V30 10 C 1.512069 3.499334 -1.078614 0
M  V30 11 C 1.456619 4.487766 -2.068287 0
M  V30 12 N 0.419811 4.391352 -2.954526 0
M  V30 13 C -0.456020 3.380004 -2.821691 0
M  V30 14 C -0.432215 2.395784 -1.866098 0
M  V30 15 N -1.361415 1.338857 -1.750211 0
M  V30 16 C -2.507726 1.060024 -2.536309 0
M  V30 17 O -2.799565 1.822483 -3.491292 0
M  V30 18 C -3.392667 -0.069331 -2.315288 0
M  V30 19 C -4.495019 -0.302582 -3.102556 0
M  V30 20 C -5.346466 -1.379097 -2.899000 0
M  V30 21 C -5.081274 -2.265195 -1.856428 0
M  V30 22 F -5.874349 -3.354363 -1.588530 0
M  V30 23 C -3.970078 -2.006802 -1.083900 0
M  V30 24 C -3.598899 -2.871613 0.035231 0
M  V30 25 C -2.751551 -3.898057 -0.347255 0
M  V30 26 F -2.299389 -4.102175 -1.616436 0
M  V30 27 C -2.299261 -4.811673 0.581914 0
M  V30 28 C -2.694266 -4.700601 1.898770 0
M  V30 29 C -2.217260 -5.677056 2.918749 0
M  V30 30 C -3.538913 -3.677297 2.279639 0
M  V30 31 C -3.999405 -2.754103 1.355308 0
M  V30 32 F -4.824286 -1.710559 1.590263 0
M  V30 33 N -3.154309 -0.946637 -1.304982 0
M  V30 34 C 1.378345 2.211551 1.412324 0
M  V30 35 C 2.652430 1.615506 1.910004 0 CFG=2
M  V30 36 N 3.832196 1.950577 1.179894 0
M  V30 37 H 3.136063 -3.088727 3.557348 0
M  V30 38 H 1.739499 -2.016516 3.424082 0
M  V30 39 H 2.483141 -2.212475 5.035058 0
M  V30 40 H 3.539752 -0.267737 4.588196 0
M  V30 41 H 4.682405 -1.453093 3.936944 0
M  V30 42 H 1.765659 -0.034798 2.948353 0
M  V30 43 H 0.953063 -1.070744 1.116094 0
M  V30 44 H 3.926661 -1.395446 0.824811 0
M  V30 45 H 2.646099 -2.604694 1.060060 0
M  V30 46 H 2.877802 -1.787394 -0.575122 0
M  V30 47 H 1.132560 -0.214850 -1.000123 0
M  V30 48 H 2.634293 0.660912 -0.775327 0
M  V30 49 H -0.113198 1.097579 0.471385 0
M  V30 50 H 2.364794 3.674121 -0.448107 0
M  V30 51 H 2.158651 5.300767 -2.177366 0
M  V30 52 H -1.221368 3.412023 -3.574612 0
M  V30 53 H -1.271654 0.608873 -1.016603 0
M  V30 54 H -4.679639 0.405943 -3.911431 0
M  V30 55 H -6.194514 -1.542305 -3.519331 0
M  V30 56 H -1.646744 -5.620399 0.344039 0
M  V30 57 H -2.593852 -6.692952 2.727713 0
M  V30 58 H -1.091143 -5.734091 2.917092 0
M  V30 59 H -2.523471 -5.362774 3.917178 0
M  V30 60 H -3.887962 -3.532654 3.299287 0
M  V30 61 H 0.658681 2.118934 2.284328 0
M  V30 62 H 1.513074 3.306112 1.325388 0
M  V30 63 H 2.812453 2.036341 2.944012 0
M  V30 64 H 4.273012 2.841267 1.501339 0
M  V30 65 H 4.556589 1.229138 1.156964 0
M  V30 END ATOM
M  V30 BEGIN BOND
M  V30 1 1 1 2
M  V30 2 1 2 3
M  V30 3 1 3 4
M  V30 4 1 4 5
M  V30 5 1 5 6
M  V30 6 1 5 7
M  V30 7 1 7 8
M  V30 8 1 8 9
M  V30 9 2 9 10
M  V30 10 1 10 11
M  V30 11 2 11 12
M  V30 12 1 12 13
M  V30 13 2 13 14
M  V30 14 1 14 15
M  V30 15 1 15 16
M  V30 16 2 16 17
M  V30 17 1 16 18
M  V30 18 2 18 19
M  V30 19 1 19 20
M  V30 20 2 20 21
M  V30 21 1 21 22
M  V30 22 1 21 23
M  V30 23 1 23 24
M  V30 24 2 24 25
M  V30 25 1 25 26
M  V30 26 1 25 27
M  V30 27 2 27 28
M  V30 28 1 28 29
M  V30 29 1 28 30
M  V30 30 2 30 31
M  V30 31 1 31 32
M  V30 32 2 23 33
M  V30 33 1 8 34
M  V30 34 1 34 35
M  V30 35 1 35 36
M  V30 36 1 35 4
M  V30 37 1 14 9
M  V30 38 1 33 18
M  V30 39 1 31 24
M  V30 40 1 1 37
M  V30 41 1 1 38
M  V30 42 1 1 39
M  V30 43 1 2 40
M  V30 44 1 2 41
M  V30 45 1 4 42 CFG=1
M  V30 46 1 5 43 CFG=1
M  V30 47 1 6 44
M  V30 48 1 6 45
M  V30 49 1 6 46
M  V30 50 1 7 47
M  V30 51 1 7 48
M  V30 52 1 8 49 CFG=1
M  V30 53 1 10 50
M  V30 54 1 11 51
M  V30 55 1 13 52
M  V30 56 1 15 53
M  V30 57 1 19 54
M  V30 58 1 20 55
M  V30 59 1 27 56
M  V30 60 1 29 57
M  V30 61 1 29 58
M  V30 62 1 29 59
M  V30 63 1 30 60
M  V30 64 1 34 61
M  V30 65 1 34 62
M  V30 66 1 35 63 CFG=1
M  V30 67 1 36 64
M  V30 68 1 36 65
M  V30 END BOND
M  V30 END CTAB
M  END
>  <Dataset>  (93) 
ChEMBL_Kinases

>  <Ligand_Instance>  (93) 
nan

>  <PDB_ID>  (93) 
nan

>  <Standardized_SMILES>  (93) 
CCO[C@@H]1[C@H](C)C[C@H](c2ccncc2NC(=O)c2ccc(F)c(-c3c(F)cc(C)cc3F)n2)C[C@@H]1N

>  <Name>  (93) 
nan

>  <Pocket>  (93) 
nan

>  <ATP_Site>  (93) 
nan

>  <Peripheral>  (93) 
nan

>  <Num_H_Atoms_ProtBoundConf>  (93) 
nan

>  <Num_Resolved_Atoms>  (93) 
nan

>  <Num_Not_Resolved_Atoms>  (93) 
nan

$$$$
CHEMBL255559
     RDKit          3D

  0  0  0  0  0  0  0  0  0  0999 V3000
M  V30 BEGIN CTAB
M  V30 COUNTS 75 81 0 0 0
M  V30 BEGIN ATOM
M  V30 1 N 7.109892 -1.248902 3.864931 0
M  V30 2 C 5.695948 -1.259219 3.704564 0
M  V30 3 N 4.760086 -1.702774 4.582083 0
M  V30 4 N 3.535360 -1.543895 4.064599 0
M  V30 5 C 2.286587 -1.903896 4.713013 0
M  V30 6 C 1.993688 -3.351982 4.310707 0
M  V30 7 O 0.786941 -3.776493 4.906481 0
M  V30 8 C 3.633828 -0.993476 2.837104 0
M  V30 9 N 2.778047 -0.613970 1.871015 0
M  V30 10 C 3.215752 -0.068389 0.699096 0
M  V30 11 C 2.102403 0.259063 -0.182435 0
M  V30 12 C 1.232855 1.194842 0.348927 0
M  V30 13 C 0.136829 1.580385 -0.403102 0
M  V30 14 C -0.087126 1.035724 -1.673194 0
M  V30 15 C -1.316990 1.541483 -2.383199 0
M  V30 16 N -2.380952 0.672770 -2.000934 0
M  V30 17 C -2.231159 -0.703257 -2.342179 0
M  V30 18 C -3.421997 -1.462532 -1.756153 0
M  V30 19 C -3.870930 -0.674665 -0.541917 0
M  V30 20 N -4.635761 -1.438940 0.396444 0
M  V30 21 C -4.302166 -1.773524 1.676551 0
M  V30 22 O -3.193527 -1.405369 2.185046 0
M  V30 23 N -5.233361 -2.496712 2.296562 0
M  V30 24 C -6.213416 -2.645282 1.398942 0
M  V30 25 C -7.413141 -3.315781 1.537334 0
M  V30 26 C -8.305880 -3.354721 0.476572 0
M  V30 27 C -7.934389 -2.706368 -0.681450 0
M  V30 28 C -6.736287 -2.045852 -0.796836 0
M  V30 29 C -5.847628 -2.000551 0.242688 0
M  V30 30 C -4.512088 0.641041 -0.918566 0
M  V30 31 C -3.699026 1.205587 -2.090840 0
M  V30 32 C 0.796075 0.105519 -2.176939 0
M  V30 33 C 1.890409 -0.275817 -1.419536 0
M  V30 34 C 4.572928 0.110588 0.472512 0
M  V30 35 C 4.798238 0.705224 -0.839682 0
M  V30 36 C 5.552818 -0.091496 -1.706567 0
M  V30 37 C 5.840223 0.337590 -2.967921 0
M  V30 38 C 5.381365 1.562321 -3.381770 0
M  V30 39 C 4.642267 2.341344 -2.530737 0
M  V30 40 C 4.329304 1.945789 -1.248313 0
M  V30 41 C 5.476028 -0.268497 1.443846 0
M  V30 42 C 4.982598 -0.815079 2.610759 0
M  V30 43 H 7.385603 -2.248827 3.649268 0
M  V30 44 H 7.592129 -0.345137 4.141703 0
M  V30 45 H 1.480731 -1.286882 4.277762 0
M  V30 46 H 2.388302 -1.817238 5.793219 0
M  V30 47 H 1.829403 -3.421780 3.216436 0
M  V30 48 H 2.822838 -4.035802 4.580193 0
M  V30 49 H 0.291194 -4.406252 4.326393 0
M  V30 50 H 1.363275 1.652690 1.339841 0
M  V30 51 H -0.562276 2.323302 0.006932 0
M  V30 52 H -1.102042 1.548097 -3.470447 0
M  V30 53 H -1.553562 2.558190 -2.037913 0
M  V30 54 H -1.324083 -1.104944 -1.847726 0
M  V30 55 H -2.133167 -0.891571 -3.424562 0
M  V30 56 H -4.214099 -1.575164 -2.522430 0
M  V30 57 H -3.086486 -2.447534 -1.432891 0
M  V30 58 H -2.904580 -0.379424 -0.033049 0
M  V30 59 H -5.125414 -2.832806 3.286557 0
M  V30 60 H -7.653790 -3.811478 2.478626 0
M  V30 61 H -9.237487 -3.895785 0.635588 0
M  V30 62 H -8.672193 -2.762423 -1.497520 0
M  V30 63 H -6.478695 -1.544893 -1.731364 0
M  V30 64 H -4.369432 1.403712 -0.097195 0
M  V30 65 H -5.578720 0.590583 -1.128051 0
M  V30 66 H -3.613924 2.317271 -2.012170 0
M  V30 67 H -4.216325 1.029848 -3.057644 0
M  V30 68 H 0.584703 -0.285307 -3.156315 0
M  V30 69 H 2.583967 -0.992793 -1.791236 0
M  V30 70 H 5.941637 -1.077589 -1.421423 0
M  V30 71 H 6.427733 -0.280675 -3.646438 0
M  V30 72 H 5.606348 1.905336 -4.377894 0
M  V30 73 H 4.248276 3.317676 -2.790951 0
M  V30 74 H 3.751872 2.499643 -0.513649 0
M  V30 75 H 6.489735 -0.084990 1.161696 0
M  V30 END ATOM
M  V30 BEGIN BOND
M  V30 1 1 1 2
M  V30 2 2 2 3
M  V30 3 1 3 4
M  V30 4 1 4 5
M  V30 5 1 5 6
M  V30 6 1 6 7
M  V30 7 1 4 8
M  V30 8 2 8 9
M  V30 9 1 9 10
M  V30 10 1 10 11
M  V30 11 2 11 12
M  V30 12 1 12 13
M  V30 13 2 13 14
M  V30 14 1 14 15
M  V30 15 1 15 16
M  V30 16 1 16 17
M  V30 17 1 17 18
M  V30 18 1 18 19
M  V30 19 1 19 20
M  V30 20 1 20 21
M  V30 21 2 21 22
M  V30 22 1 21 23
M  V30 23 1 23 24
M  V30 24 2 24 25
M  V30 25 1 25 26
M  V30 26 2 26 27
M  V30 27 1 27 28
M  V30 28 2 28 29
M  V30 29 1 19 30
M  V30 30 1 30 31
M  V30 31 1 14 32
M  V30 32 2 32 33
M  V30 33 2 10 34
M  V30 34 1 34 35
M  V30 35 2 35 36
M  V30 36 1 36 37
M  V30 37 2 37 38
M  V30 38 1 38 39
M  V30 39 2 39 40
M  V30 40 1 34 41
M  V30 41 2 41 42
M  V30 42 1 42 2
M  V30 43 1 42 8
M  V30 44 1 33 11
M  V30 45 1 40 35
M  V30 46 1 31 16
M  V30 47 1 29 20
M  V30 48 1 29 24
M  V30 49 1 1 43
M  V30 50 1 1 44
M  V30 51 1 5 45
M  V30 52 1 5 46
M  V30 53 1 6 47
M  V30 54 1 6 48
M  V30 55 1 7 49
M  V30 56 1 12 50
M  V30 57 1 13 51
M  V30 58 1 15 52
M  V30 59 1 15 53
M  V30 60 1 17 54
M  V30 61 1 17 55
M  V30 62 1 18 56
M  V30 63 1 18 57
M  V30 64 1 19 58
M  V30 65 1 23 59
M  V30 66 1 25 60
M  V30 67 1 26 61
M  V30 68 1 27 62
M  V30 69 1 28 63
M  V30 70 1 30 64
M  V30 71 1 30 65
M  V30 72 1 31 66
M  V30 73 1 31 67
M  V30 74 1 32 68
M  V30 75 1 33 69
M  V30 76 1 36 70
M  V30 77 1 37 71
M  V30 78 1 38 72
M  V30 79 1 39 73
M  V30 80 1 40 74
M  V30 81 1 41 75
M  V30 END BOND
M  V30 END CTAB
M  END
>  <Dataset>  (94) 
ChEMBL_Kinases

>  <Ligand_Instance>  (94) 
nan

>  <PDB_ID>  (94) 
nan

>  <Standardized_SMILES>  (94) 
Nc1nn(CCO)c2nc(-c3ccc(CN4CCC(n5c(=O)[nH]c6ccccc65)CC4)cc3)c(-c3ccccc3)cc12

>  <Name>  (94) 
nan

>  <Pocket>  (94) 
nan

>  <ATP_Site>  (94) 
nan

>  <Peripheral>  (94) 
nan

>  <Num_H_Atoms_ProtBoundConf>  (94) 
nan

>  <Num_Resolved_Atoms>  (94) 
nan

>  <Num_Not_Resolved_Atoms>  (94) 
nan

$$$$
CHEMBL4436353
     RDKit          3D

  0  0  0  0  0  0  0  0  0  0999 V3000
M  V30 BEGIN CTAB
M  V30 COUNTS 45 47 0 0 0
M  V30 BEGIN ATOM
M  V30 1 C -1.054303 -6.343058 1.036874 0
M  V30 2 N -0.701368 -5.267174 0.091917 0
M  V30 3 C -1.634427 -4.296861 -0.446374 0
M  V30 4 O -2.837101 -4.378266 -0.094194 0
M  V30 5 C -1.005976 -3.322298 -1.353900 0
M  V30 6 C 0.204863 -3.410465 -1.938449 0
M  V30 7 C 0.814979 -2.423642 -2.650312 0
M  V30 8 C 0.043335 -1.284024 -2.725171 0
M  V30 9 C 0.620060 0.045601 -3.243084 0
M  V30 10 N 1.223991 0.502219 -1.959206 0
M  V30 11 C 1.824961 0.930806 -0.724181 0
M  V30 12 O 2.858698 0.336446 -0.858964 0
M  V30 13 C 0.953905 1.852243 0.130152 0
M  V30 14 C -0.043107 2.752685 0.046641 0
M  V30 15 N -0.234411 3.114228 1.312704 0
M  V30 16 N 0.556001 2.513571 2.156335 0
M  V30 17 C 0.668903 2.522203 3.607063 0
M  V30 18 C -0.589945 2.320017 4.125443 0
M  V30 19 C -0.729221 2.231494 5.500736 0
M  V30 20 C 0.437407 2.352248 6.271984 0
M  V30 21 C 1.650340 2.556025 5.654218 0
M  V30 22 C 1.855509 2.657206 4.264065 0
M  V30 23 C 1.386807 1.655954 1.469874 0
M  V30 24 N 2.350313 0.837394 2.059575 0
M  V30 25 C -1.212447 -1.079169 -2.184104 0
M  V30 26 C -1.751342 -2.151993 -1.467507 0
M  V30 27 H -0.155818 -6.618042 1.656816 0
M  V30 28 H -1.398443 -7.236616 0.525727 0
M  V30 29 H -1.856770 -5.929820 1.689450 0
M  V30 30 H 0.306860 -5.328782 -0.116373 0
M  V30 31 H 0.766041 -4.353479 -1.813060 0
M  V30 32 H 1.777209 -2.506155 -3.109434 0
M  V30 33 H 1.445583 -0.202948 -3.944663 0
M  V30 34 H -0.139484 0.619184 -3.673082 0
M  V30 35 H 0.262110 1.016283 -1.862862 0
M  V30 36 H -0.430850 2.955365 -0.962097 0
M  V30 37 H -1.516739 2.212303 3.528994 0
M  V30 38 H -1.650323 2.050830 6.051835 0
M  V30 39 H 0.314782 2.288979 7.334374 0
M  V30 40 H 2.559235 2.635965 6.293956 0
M  V30 41 H 2.760768 2.813959 3.744751 0
M  V30 42 H 3.313744 0.488980 1.892159 0
M  V30 43 H 3.330488 0.554465 1.781915 0
M  V30 44 H -1.753403 -0.126749 -2.300732 0
M  V30 45 H -2.762579 -1.930118 -1.079664 0
M  V30 END ATOM
M  V30 BEGIN BOND
M  V30 1 1 1 2
M  V30 2 1 2 3
M  V30 3 2 3 4
M  V30 4 1 3 5
M  V30 5 2 5 6
M  V30 6 1 6 7
M  V30 7 2 7 8
M  V30 8 1 8 9
M  V30 9 1 9 10
M  V30 10 1 10 11
M  V30 11 2 11 12
M  V30 12 1 11 13
M  V30 13 1 13 14
M  V30 14 2 14 15
M  V30 15 1 15 16
M  V30 16 1 16 17
M  V30 17 2 17 18
M  V30 18 1 18 19
M  V30 19 2 19 20
M  V30 20 1 20 21
M  V30 21 2 21 22
M  V30 22 1 16 23
M  V30 23 1 23 24
M  V30 24 1 8 25
M  V30 25 2 25 26
M  V30 26 1 26 5
M  V30 27 2 23 13
M  V30 28 1 22 17
M  V30 29 1 1 27
M  V30 30 1 1 28
M  V30 31 1 1 29
M  V30 32 1 2 30
M  V30 33 1 6 31
M  V30 34 1 7 32
M  V30 35 1 9 33
M  V30 36 1 9 34
M  V30 37 1 10 35
M  V30 38 1 14 36
M  V30 39 1 18 37
M  V30 40 1 19 38
M  V30 41 1 20 39
M  V30 42 1 21 40
M  V30 43 1 22 41
M  V30 44 1 24 42
M  V30 45 1 24 43
M  V30 46 1 25 44
M  V30 47 1 26 45
M  V30 END BOND
M  V30 END CTAB
M  END
>  <Dataset>  (95) 
ChEMBL_Kinases

>  <Ligand_Instance>  (95) 
nan

>  <PDB_ID>  (95) 
nan

>  <Standardized_SMILES>  (95) 
CNC(=O)c1ccc(CNC(=O)c2cnn(-c3ccccc3)c2N)cc1

>  <Name>  (95) 
nan

>  <Pocket>  (95) 
nan

>  <ATP_Site>  (95) 
nan

>  <Peripheral>  (95) 
nan

>  <Num_H_Atoms_ProtBoundConf>  (95) 
nan

>  <Num_Resolved_Atoms>  (95) 
nan

>  <Num_Not_Resolved_Atoms>  (95) 
nan

$$$$
CHEMBL4436197
     RDKit          3D

  0  0  0  0  0  0  0  0  0  0999 V3000
M  V30 BEGIN CTAB
M  V30 COUNTS 61 64 0 0 0
M  V30 BEGIN ATOM
M  V30 1 C 4.020801 -3.240167 3.043341 0
M  V30 2 O 3.249437 -2.377452 2.235023 0
M  V30 3 C 2.657024 -1.220774 2.682678 0
M  V30 4 C 2.697096 -0.684315 3.980924 0
M  V30 5 C 2.051002 0.496578 4.293473 0
M  V30 6 C 1.334547 1.207197 3.351897 0
M  V30 7 C 1.320931 0.650674 2.103115 0
M  V30 8 C 0.552945 1.436415 1.101287 0 CFG=1
M  V30 9 C 1.551369 1.828608 0.049698 0
M  V30 10 C 1.183195 2.800579 -0.987301 0
M  V30 11 N -0.034090 2.771318 -1.695049 0
M  V30 12 C -1.133286 3.332179 -0.928529 0
M  V30 13 C -2.040129 4.049656 -1.937927 0
M  V30 14 O -1.395097 5.150235 -2.457874 0
M  V30 15 C -0.239647 4.772926 -3.139740 0
M  V30 16 C 0.118120 3.333225 -2.998365 0
M  V30 17 N -0.423286 0.489506 0.533446 0
M  V30 18 C -1.367162 -0.397998 -0.017255 0
M  V30 19 O -2.223369 0.217108 -0.666413 0
M  V30 20 C -1.583929 -1.812235 -0.015012 0
M  V30 21 C -1.256521 -2.431988 1.175708 0
M  V30 22 C -1.404763 -3.793807 1.290181 0
M  V30 23 C -1.878624 -4.537211 0.216695 0
M  V30 24 C -2.069260 -5.953481 0.363552 0
M  V30 25 C -1.938774 -6.972044 -0.554246 0
M  V30 26 C -2.208977 -8.309637 -0.219498 0
M  V30 27 N -2.608599 -8.617806 1.040339 0
M  V30 28 C -2.749314 -7.655015 1.970613 0
M  V30 29 F -3.157517 -8.052834 3.211746 0
M  V30 30 C -2.485588 -6.353267 1.639852 0
M  V30 31 C -2.193213 -3.871248 -0.960000 0
M  V30 32 C -2.052571 -2.486108 -1.102257 0
M  V30 33 C 1.946317 -0.523817 1.724815 0
M  V30 34 H 5.067492 -2.911044 3.101505 0
M  V30 35 H 3.607386 -3.287821 4.081806 0
M  V30 36 H 4.037690 -4.272607 2.605166 0
M  V30 37 H 3.269704 -1.284878 4.679149 0
M  V30 38 H 2.113250 0.868963 5.316243 0
M  V30 39 H 0.832219 2.130717 3.600369 0
M  V30 40 H 0.069177 2.289921 1.453136 0
M  V30 41 H 2.341486 2.343919 0.664989 0
M  V30 42 H 2.127003 0.943480 -0.335116 0
M  V30 43 H 2.070241 2.851104 -1.719869 0
M  V30 44 H 1.242800 3.875896 -0.559399 0
M  V30 45 H -0.757434 4.110635 -0.208845 0
M  V30 46 H -1.732095 2.645697 -0.377150 0
M  V30 47 H -2.975497 4.366538 -1.437199 0
M  V30 48 H -2.286047 3.308439 -2.721375 0
M  V30 49 H 0.603565 5.419849 -2.816165 0
M  V30 50 H -0.358985 4.962076 -4.247419 0
M  V30 51 H 1.186601 3.241584 -3.309212 0
M  V30 52 H -0.487884 2.693242 -3.692749 0
M  V30 53 H 0.059464 -0.405193 0.910012 0
M  V30 54 H -0.875367 -1.937950 2.071394 0
M  V30 55 H -1.157829 -4.326951 2.200737 0
M  V30 56 H -1.618339 -6.644846 -1.522783 0
M  V30 57 H -2.089351 -9.063125 -0.968498 0
M  V30 58 H -2.636259 -5.670598 2.445204 0
M  V30 59 H -2.568101 -4.373968 -1.846216 0
M  V30 60 H -2.262489 -1.863692 -1.952931 0
M  V30 61 H 1.910719 -0.915002 0.691731 0
M  V30 END ATOM
M  V30 BEGIN BOND
M  V30 1 1 1 2
M  V30 2 1 2 3
M  V30 3 2 3 4
M  V30 4 1 4 5
M  V30 5 2 5 6
M  V30 6 1 6 7
M  V30 7 1 7 8
M  V30 8 1 8 9
M  V30 9 1 9 10
M  V30 10 1 10 11
M  V30 11 1 11 12
M  V30 12 1 12 13
M  V30 13 1 13 14
M  V30 14 1 14 15
M  V30 15 1 15 16
M  V30 16 1 8 17
M  V30 17 1 17 18
M  V30 18 2 18 19
M  V30 19 1 18 20
M  V30 20 2 20 21
M  V30 21 1 21 22
M  V30 22 2 22 23
M  V30 23 1 23 24
M  V30 24 2 24 25
M  V30 25 1 25 26
M  V30 26 2 26 27
M  V30 27 1 27 28
M  V30 28 1 28 29
M  V30 29 2 28 30
M  V30 30 1 23 31
M  V30 31 2 31 32
M  V30 32 2 7 33
M  V30 33 1 33 3
M  V30 34 1 16 11
M  V30 35 1 32 20
M  V30 36 1 30 24
M  V30 37 1 1 34
M  V30 38 1 1 35
M  V30 39 1 1 36
M  V30 40 1 4 37
M  V30 41 1 5 38
M  V30 42 1 6 39
M  V30 43 1 8 40 CFG=1
M  V30 44 1 9 41
M  V30 45 1 9 42
M  V30 46 1 10 43
M  V30 47 1 10 44
M  V30 48 1 12 45
M  V30 49 1 12 46
M  V30 50 1 13 47
M  V30 51 1 13 48
M  V30 52 1 15 49
M  V30 53 1 15 50
M  V30 54 1 16 51
M  V30 55 1 16 52
M  V30 56 1 17 53
M  V30 57 1 21 54
M  V30 58 1 22 55
M  V30 59 1 25 56
M  V30 60 1 26 57
M  V30 61 1 30 58
M  V30 62 1 31 59
M  V30 63 1 32 60
M  V30 64 1 33 61
M  V30 END BOND
M  V30 END CTAB
M  END
>  <Dataset>  (96) 
ChEMBL_Kinases

>  <Ligand_Instance>  (96) 
nan

>  <PDB_ID>  (96) 
nan

>  <Standardized_SMILES>  (96) 
COc1cccc([C@@H](CCN2CCOCC2)NC(=O)c2ccc(-c3ccnc(F)c3)cc2)c1

>  <Name>  (96) 
nan

>  <Pocket>  (96) 
nan

>  <ATP_Site>  (96) 
nan

>  <Peripheral>  (96) 
nan

>  <Num_H_Atoms_ProtBoundConf>  (96) 
nan

>  <Num_Resolved_Atoms>  (96) 
nan

>  <Num_Not_Resolved_Atoms>  (96) 
nan

$$$$
CHEMBL3702060
     RDKit          3D

  0  0  0  0  0  0  0  0  0  0999 V3000
M  V30 BEGIN CTAB
M  V30 COUNTS 66 71 0 0 0
M  V30 BEGIN ATOM
M  V30 1 C 5.268776 4.060448 3.957580 0
M  V30 2 N 4.003557 4.104263 4.664221 0
M  V30 3 C 4.018841 3.111876 5.695167 0
M  V30 4 C 2.932674 3.950385 3.729501 0
M  V30 5 C 1.573890 3.982943 4.421067 0
M  V30 6 C 0.520146 4.085865 3.318178 0
M  V30 7 N 1.028661 3.731963 2.034392 0
M  V30 8 C 0.589317 2.602917 1.293722 0
M  V30 9 C -0.289958 1.683549 1.818080 0
M  V30 10 C -0.671622 0.613584 1.034117 0
M  V30 11 C -0.245669 0.373217 -0.253389 0
M  V30 12 N -0.614848 -0.714219 -1.080568 0
M  V30 13 C -1.492010 -1.778894 -0.765048 0
M  V30 14 N -2.161089 -1.971107 0.376153 0
M  V30 15 C -2.983273 -2.992784 0.647553 0
M  V30 16 C -3.166753 -3.941514 -0.329504 0
M  V30 17 C -3.887948 -5.105788 -0.479905 0
M  V30 18 C -4.729756 -5.694314 0.452015 0
M  V30 19 C -5.371988 -6.867270 0.118285 0
M  V30 20 N -5.141985 -7.378950 -1.107030 0
M  V30 21 C -4.316941 -6.780732 -1.989644 0
M  V30 22 Cl -4.128612 -7.570111 -3.540351 0
M  V30 23 C -3.634974 -5.607942 -1.739720 0
M  V30 24 N -2.782840 -4.806184 -2.388674 0
M  V30 25 C -2.322533 -5.066020 -3.737914 0
M  V30 26 C -1.671193 -3.912974 -4.401835 0
M  V30 27 C -0.214100 -3.999271 -4.113173 0
M  V30 28 C -0.024718 -5.246425 -3.270607 0
M  V30 29 C -1.234396 -6.107975 -3.659297 0
M  V30 30 C -2.502528 -3.794831 -1.525471 0
M  V30 31 N -1.705607 -2.731761 -1.683985 0
M  V30 32 N 0.610747 1.300828 -0.715721 0
M  V30 33 C 1.011732 2.358718 0.007655 0
M  V30 34 C 2.047991 4.660937 1.588706 0
M  V30 35 C 2.921115 5.110487 2.744229 0
M  V30 36 H 5.968169 3.321470 4.424039 0
M  V30 37 H 5.786324 5.063456 3.984140 0
M  V30 38 H 5.091316 3.714255 2.921883 0
M  V30 39 H 3.244689 3.338662 6.485241 0
M  V30 40 H 3.847932 2.078230 5.290723 0
M  V30 41 H 5.018556 3.108527 6.160781 0
M  V30 42 H 3.024991 2.979753 3.224028 0
M  V30 43 H 1.474612 3.065675 5.018906 0
M  V30 44 H 1.505025 4.843997 5.123016 0
M  V30 45 H -0.385867 3.579224 3.650826 0
M  V30 46 H 0.244300 5.183102 3.284606 0
M  V30 47 H -0.684032 1.772179 2.811164 0
M  V30 48 H -1.361191 -0.086082 1.477803 0
M  V30 49 H -0.179803 -0.723302 -2.046085 0
M  V30 50 H -3.495150 -3.094101 1.585702 0
M  V30 51 H -4.891141 -5.253716 1.429409 0
M  V30 52 H -6.034607 -7.354346 0.817841 0
M  V30 53 H -3.162942 -5.400303 -4.393956 0
M  V30 54 H -1.809336 -4.025769 -5.518136 0
M  V30 55 H -2.118444 -2.928575 -4.147826 0
M  V30 56 H 0.377132 -4.207429 -5.055442 0
M  V30 57 H 0.221855 -3.089088 -3.657355 0
M  V30 58 H -0.134152 -4.975222 -2.202540 0
M  V30 59 H 0.921201 -5.776451 -3.497919 0
M  V30 60 H -1.052426 -6.637879 -4.615266 0
M  V30 61 H -1.347863 -6.810808 -2.802819 0
M  V30 62 H 1.698913 3.003479 -0.519057 0
M  V30 63 H 2.650453 4.205990 0.777895 0
M  V30 64 H 1.482117 5.535667 1.157335 0
M  V30 65 H 2.471699 6.003526 3.216100 0
M  V30 66 H 3.952345 5.328664 2.413417 0
M  V30 END ATOM
M  V30 BEGIN BOND
M  V30 1 1 1 2
M  V30 2 1 2 3
M  V30 3 1 2 4
M  V30 4 1 4 5
M  V30 5 1 5 6
M  V30 6 1 6 7
M  V30 7 1 7 8
M  V30 8 2 8 9
M  V30 9 1 9 10
M  V30 10 2 10 11
M  V30 11 1 11 12
M  V30 12 1 12 13
M  V30 13 2 13 14
M  V30 14 1 14 15
M  V30 15 2 15 16
M  V30 16 1 16 17
M  V30 17 2 17 18
M  V30 18 1 18 19
M  V30 19 2 19 20
M  V30 20 1 20 21
M  V30 21 1 21 22
M  V30 22 2 21 23
M  V30 23 1 23 24
M  V30 24 1 24 25
M  V30 25 1 25 26
M  V30 26 1 26 27
M  V30 27 1 27 28
M  V30 28 1 28 29
M  V30 29 1 24 30
M  V30 30 2 30 31
M  V30 31 1 11 32
M  V30 32 2 32 33
M  V30 33 1 7 34
M  V30 34 1 34 35
M  V30 35 1 35 4
M  V30 36 1 33 8
M  V30 37 1 31 13
M  V30 38 1 30 16
M  V30 39 1 23 17
M  V30 40 1 29 25
M  V30 41 1 1 36
M  V30 42 1 1 37
M  V30 43 1 1 38
M  V30 44 1 3 39
M  V30 45 1 3 40
M  V30 46 1 3 41
M  V30 47 1 4 42
M  V30 48 1 5 43
M  V30 49 1 5 44
M  V30 50 1 6 45
M  V30 51 1 6 46
M  V30 52 1 9 47
M  V30 53 1 10 48
M  V30 54 1 12 49
M  V30 55 1 15 50
M  V30 56 1 18 51
M  V30 57 1 19 52
M  V30 58 1 25 53
M  V30 59 1 26 54
M  V30 60 1 26 55
M  V30 61 1 27 56
M  V30 62 1 27 57
M  V30 63 1 28 58
M  V30 64 1 28 59
M  V30 65 1 29 60
M  V30 66 1 29 61
M  V30 67 1 33 62
M  V30 68 1 34 63
M  V30 69 1 34 64
M  V30 70 1 35 65
M  V30 71 1 35 66
M  V30 END BOND
M  V30 END CTAB
M  END
>  <Dataset>  (97) 
ChEMBL_Kinases

>  <Ligand_Instance>  (97) 
nan

>  <PDB_ID>  (97) 
nan

>  <Standardized_SMILES>  (97) 
CN(C)C1CCN(c2ccc(Nc3ncc4c5ccnc(Cl)c5n(C5CCCC5)c4n3)nc2)CC1

>  <Name>  (97) 
nan

>  <Pocket>  (97) 
nan

>  <ATP_Site>  (97) 
nan

>  <Peripheral>  (97) 
nan

>  <Num_H_Atoms_ProtBoundConf>  (97) 
nan

>  <Num_Resolved_Atoms>  (97) 
nan

>  <Num_Not_Resolved_Atoms>  (97) 
nan

$$$$
CHEMBL3687487
     RDKit          3D

  0  0  0  0  0  0  0  0  0  0999 V3000
M  V30 BEGIN CTAB
M  V30 COUNTS 68 71 0 0 0
M  V30 BEGIN ATOM
M  V30 1 C 3.650484 -2.534477 1.655436 0
M  V30 2 C 2.381507 -1.784765 1.443931 0 CFG=1
M  V30 3 C 2.349203 -0.948235 0.185273 0
M  V30 4 C 1.855594 -1.723150 -1.006570 0 CFG=1
M  V30 5 C 2.455859 -1.154579 -2.216623 0
M  V30 6 C 3.641315 -1.746953 -2.660765 0
M  V30 7 C 4.352226 -1.357377 -3.787231 0
M  V30 8 N 3.805984 -0.308225 -4.479110 0
M  V30 9 C 2.665224 0.262440 -4.051875 0
M  V30 10 C 1.943967 -0.103925 -2.942025 0
M  V30 11 N 0.748159 0.517545 -2.516683 0
M  V30 12 C 0.035364 1.584468 -3.108369 0
M  V30 13 O 0.464209 2.107168 -4.166136 0
M  V30 14 C -1.197690 2.134613 -2.559276 0
M  V30 15 C -1.858658 3.174380 -3.172846 0
M  V30 16 C -3.027455 3.737016 -2.703949 0
M  V30 17 C -3.559777 3.217687 -1.545882 0
M  V30 18 F -4.706938 3.720736 -1.025970 0
M  V30 19 C -2.902078 2.176184 -0.926906 0
M  V30 20 C -3.502373 1.658693 0.294787 0
M  V30 21 C -3.245106 2.105622 1.587311 0
M  V30 22 F -2.351537 3.116019 1.705876 0
M  V30 23 C -3.920740 1.479377 2.612049 0
M  V30 24 C -4.814678 0.461493 2.439966 0
M  V30 25 C -5.057734 0.032691 1.165229 0
M  V30 26 C -4.408442 0.622873 0.086405 0
M  V30 27 F -4.721185 0.122196 -1.146981 0
M  V30 28 N -1.755249 1.666540 -1.438672 0
M  V30 29 C 2.115185 -3.206355 -0.826029 0
M  V30 30 C 1.304975 -3.700849 0.332482 0 CFG=1
M  V30 31 N 1.776411 -5.005005 0.756298 0
M  V30 32 C 1.180895 -2.710597 1.448734 0 CFG=1
M  V30 33 O 1.178136 -3.302675 2.696686 0
M  V30 34 C 0.095014 -3.111012 3.482934 0
M  V30 35 C -0.237828 -1.703267 3.861724 0
M  V30 36 S -1.685410 -1.590736 4.903190 0
M  V30 37 C -2.015573 0.121769 5.312874 0
M  V30 38 O -1.469539 -2.391233 6.169522 0
M  V30 39 O -2.914019 -2.118289 4.233483 0
M  V30 40 H 3.462651 -3.630869 1.697793 0
M  V30 41 H 4.464919 -2.254198 0.955433 0
M  V30 42 H 4.069329 -2.297183 2.666570 0
M  V30 43 H 2.294231 -1.040567 2.298979 0
M  V30 44 H 3.365906 -0.592896 -0.024587 0
M  V30 45 H 1.681620 -0.063512 0.298436 0
M  V30 46 H 0.734224 -1.659861 -1.138321 0
M  V30 47 H 4.139475 -2.570394 -2.181738 0
M  V30 48 H 5.267063 -1.807449 -4.138662 0
M  V30 49 H 2.371125 1.066066 -4.699913 0
M  V30 50 H 0.277871 0.200621 -1.660051 0
M  V30 51 H -1.444461 3.596145 -4.094971 0
M  V30 52 H -3.475940 4.540856 -3.241233 0
M  V30 53 H -3.688760 1.860241 3.597424 0
M  V30 54 H -5.293844 0.033151 3.293507 0
M  V30 55 H -5.764874 -0.777391 0.995310 0
M  V30 56 H 3.183341 -3.450864 -0.669079 0
M  V30 57 H 1.838653 -3.690685 -1.784808 0
M  V30 58 H 0.272775 -3.899691 -0.084761 0
M  V30 59 H 1.025124 -5.551346 1.231527 0
M  V30 60 H 2.148866 -5.483378 -0.089676 0
M  V30 61 H 0.235085 -2.162313 1.319607 0
M  V30 62 H 0.254482 -3.676722 4.423851 0
M  V30 63 H -0.799701 -3.578533 2.992976 0
M  V30 64 H 0.555312 -1.162224 4.369758 0
M  V30 65 H -0.483098 -1.141178 2.933356 0
M  V30 66 H -3.090354 0.320919 5.369616 0
M  V30 67 H -1.474955 0.373484 6.270386 0
M  V30 68 H -1.590990 0.801102 4.535747 0
M  V30 END ATOM
M  V30 BEGIN BOND
M  V30 1 1 1 2
M  V30 2 1 2 3
M  V30 3 1 3 4
M  V30 4 1 4 5
M  V30 5 2 5 6
M  V30 6 1 6 7
M  V30 7 2 7 8
M  V30 8 1 8 9
M  V30 9 2 9 10
M  V30 10 1 10 11
M  V30 11 1 11 12
M  V30 12 2 12 13
M  V30 13 1 12 14
M  V30 14 2 14 15
M  V30 15 1 15 16
M  V30 16 2 16 17
M  V30 17 1 17 18
M  V30 18 1 17 19
M  V30 19 1 19 20
M  V30 20 2 20 21
M  V30 21 1 21 22
M  V30 22 1 21 23
M  V30 23 2 23 24
M  V30 24 1 24 25
M  V30 25 2 25 26
M  V30 26 1 26 27
M  V30 27 2 19 28
M  V30 28 1 4 29
M  V30 29 1 29 30
M  V30 30 1 30 31
M  V30 31 1 30 32
M  V30 32 1 32 33
M  V30 33 1 33 34
M  V30 34 1 34 35
M  V30 35 1 35 36
M  V30 36 1 36 37
M  V30 37 2 36 38
M  V30 38 2 36 39
M  V30 39 1 32 2
M  V30 40 1 10 5
M  V30 41 1 28 14
M  V30 42 1 26 20
M  V30 43 1 1 40
M  V30 44 1 1 41
M  V30 45 1 1 42
M  V30 46 1 2 43 CFG=1
M  V30 47 1 3 44
M  V30 48 1 3 45
M  V30 49 1 4 46 CFG=3
M  V30 50 1 6 47
M  V30 51 1 7 48
M  V30 52 1 9 49
M  V30 53 1 11 50
M  V30 54 1 15 51
M  V30 55 1 16 52
M  V30 56 1 23 53
M  V30 57 1 24 54
M  V30 58 1 25 55
M  V30 59 1 29 56
M  V30 60 1 29 57
M  V30 61 1 30 58 CFG=3
M  V30 62 1 31 59
M  V30 63 1 31 60
M  V30 64 1 32 61 CFG=3
M  V30 65 1 34 62
M  V30 66 1 34 63
M  V30 67 1 35 64
M  V30 68 1 35 65
M  V30 69 1 37 66
M  V30 70 1 37 67
M  V30 71 1 37 68
M  V30 END BOND
M  V30 END CTAB
M  END
>  <Dataset>  (98) 
ChEMBL_Kinases

>  <Ligand_Instance>  (98) 
nan

>  <PDB_ID>  (98) 
nan

>  <Standardized_SMILES>  (98) 
C[C@H]1C[C@@H](c2ccncc2NC(=O)c2ccc(F)c(-c3c(F)cccc3F)n2)C[C@@H](N)[C@H]1OCCS(C)(=O)=O

>  <Name>  (98) 
nan

>  <Pocket>  (98) 
nan

>  <ATP_Site>  (98) 
nan

>  <Peripheral>  (98) 
nan

>  <Num_H_Atoms_ProtBoundConf>  (98) 
nan

>  <Num_Resolved_Atoms>  (98) 
nan

>  <Num_Not_Resolved_Atoms>  (98) 
nan

$$$$
CHEMBL4446127
     RDKit          3D

  0  0  0  0  0  0  0  0  0  0999 V3000
M  V30 BEGIN CTAB
M  V30 COUNTS 133 137 0 0 0
M  V30 BEGIN ATOM
M  V30 1 C 8.425013 -5.739325 3.490850 0
M  V30 2 C 9.406921 -5.027953 2.630499 0
M  V30 3 N 10.648281 -5.412912 2.688073 0
M  V30 4 C 11.562297 -4.867430 1.990047 0
M  V30 5 S 10.574248 -3.564424 1.052525 0
M  V30 6 C 9.017819 -4.008198 1.808934 0
M  V30 7 C 7.814731 -3.331538 1.483102 0
M  V30 8 C 6.539081 -3.521309 1.965413 0
M  V30 9 C 5.394804 -2.845260 1.630352 0
M  V30 10 C 5.502389 -1.847201 0.698292 0
M  V30 11 C 4.374852 -1.013338 0.234493 0 CFG=2
M  V30 12 C 4.063565 0.002893 1.315942 0
M  V30 13 N 3.244739 -1.841265 -0.072038 0
M  V30 14 C 2.496700 -1.977596 -1.298027 0
M  V30 15 O 3.072292 -1.176360 -2.076833 0
M  V30 16 C 1.442686 -2.968861 -1.042613 0 CFG=1
M  V30 17 C 0.589267 -2.434232 0.116664 0
M  V30 18 C -0.634996 -3.285926 -0.060943 0 CFG=2
M  V30 19 O -0.891831 -4.039856 1.048518 0
M  V30 20 C -0.289611 -4.082688 -1.305441 0
M  V30 21 N 0.496536 -3.154678 -2.116143 0
M  V30 22 C 0.036356 -2.879846 -3.421517 0
M  V30 23 O -0.982539 -3.611162 -3.488806 0
M  V30 24 C 0.199085 -2.147041 -4.702468 0 CFG=1
M  V30 25 N 1.327376 -1.245343 -4.661924 0
M  V30 26 C 0.957636 0.058474 -4.271735 0
M  V30 27 O -0.181445 0.487021 -3.974721 0
M  V30 28 C 1.691752 1.374367 -4.056992 0
M  V30 29 C 0.761575 2.322150 -3.370598 0
M  V30 30 C 1.341202 3.677258 -3.061484 0
M  V30 31 C 0.264012 4.457850 -2.313927 0
M  V30 32 C 0.666464 5.827400 -1.896809 0
M  V30 33 C -0.478055 6.486282 -1.101249 0
M  V30 34 C -1.704496 6.628694 -1.957976 0
M  V30 35 C -2.884259 7.214624 -1.174282 0
M  V30 36 C -3.284047 6.303161 -0.059833 0
M  V30 37 C -4.420967 6.750616 0.796392 0
M  V30 38 N -4.752681 5.754467 1.811182 0
M  V30 39 C -3.733142 5.578822 2.793939 0
M  V30 40 C -4.156166 4.472069 3.776254 0
M  V30 41 C -4.347821 3.237983 2.913694 0
M  V30 42 O -4.720815 2.110877 3.628900 0
M  V30 43 N -5.309445 1.229075 2.775256 0
M  V30 44 C -5.797317 -0.056162 3.130359 0
M  V30 45 O -5.665471 -0.409828 4.330384 0
M  V30 46 C -6.435039 -0.977800 2.204996 0
M  V30 47 C -6.672793 -0.691920 0.882419 0
M  V30 48 C -7.301951 -1.555159 0.003266 0
M  V30 49 C -7.729126 -2.791587 0.457613 0
M  V30 50 F -8.344668 -3.622587 -0.426158 0
M  V30 51 C -7.501011 -3.104253 1.785916 0
M  V30 52 F -7.918297 -4.317862 2.232933 0
M  V30 53 C -6.870498 -2.216731 2.629464 0
M  V30 54 N -6.669467 -2.674697 3.982879 0
M  V30 55 C -5.566133 -3.575121 4.085227 0
M  V30 56 C -4.819529 -3.965727 3.001818 0
M  V30 57 C -3.734591 -4.840426 3.038169 0
M  V30 58 C -3.378002 -5.357876 4.262152 0
M  V30 59 I -1.744543 -6.680937 4.351879 0
M  V30 60 C -4.085761 -5.008330 5.400141 0
M  V30 61 C -5.136903 -4.144689 5.275479 0
M  V30 62 F -5.814520 -3.821829 6.423687 0
M  V30 63 C 0.195613 -3.066654 -5.890799 0
M  V30 64 C 1.315421 -4.086806 -5.817798 0
M  V30 65 C -1.089818 -3.831378 -5.971998 0
M  V30 66 C 0.364228 -2.327805 -7.185187 0
M  V30 67 C 6.735383 -1.573406 0.148693 0
M  V30 68 C 7.833580 -2.298420 0.539773 0
M  V30 69 H 7.989491 -4.996035 4.214294 0
M  V30 70 H 7.620498 -6.230838 2.932335 0
M  V30 71 H 8.885073 -6.577255 4.091813 0
M  V30 72 H 12.626161 -5.080548 1.934023 0
M  V30 73 H 6.404692 -4.292311 2.698109 0
M  V30 74 H 4.445252 -3.086323 2.083546 0
M  V30 75 H 4.619032 -0.460244 -0.699695 0
M  V30 76 H 3.237375 -0.313010 1.964028 0
M  V30 77 H 4.954834 0.113856 1.979578 0
M  V30 78 H 3.913233 0.991692 0.842952 0
M  V30 79 H 3.088241 -2.329458 0.845360 0
M  V30 80 H 1.868603 -3.930938 -0.680770 0
M  V30 81 H 1.023243 -2.655807 1.099535 0
M  V30 82 H 0.390831 -1.367912 -0.053643 0
M  V30 83 H -1.538614 -2.700254 -0.320407 0
M  V30 84 H -1.488260 -3.523584 1.671115 0
M  V30 85 H -1.176008 -4.475941 -1.797230 0
M  V30 86 H 0.361797 -4.931615 -0.976539 0
M  V30 87 H -0.729860 -1.512250 -4.766193 0
M  V30 88 H 2.354051 -1.211178 -4.823138 0
M  V30 89 H 2.049831 1.725125 -5.044087 0
M  V30 90 H 2.581996 1.208936 -3.419611 0
M  V30 91 H -0.191634 2.450148 -3.960167 0
M  V30 92 H 0.526267 1.857487 -2.372611 0
M  V30 93 H 2.256496 3.555242 -2.447183 0
M  V30 94 H 1.642658 4.238050 -3.975527 0
M  V30 95 H -0.609906 4.452059 -2.998812 0
M  V30 96 H 0.083946 3.865099 -1.380900 0
M  V30 97 H 0.743253 6.464309 -2.825907 0
M  V30 98 H 1.622029 5.890605 -1.376874 0
M  V30 99 H -0.644253 5.879840 -0.189513 0
M  V30 100 H -0.136832 7.517773 -0.831950 0
M  V30 101 H -1.450926 7.299064 -2.802799 0
M  V30 102 H -2.071404 5.669801 -2.377620 0
M  V30 103 H -3.699642 7.393956 -1.899059 0
M  V30 104 H -2.559438 8.203879 -0.790919 0
M  V30 105 H -3.460858 5.285309 -0.431914 0
M  V30 106 H -2.399077 6.211313 0.636862 0
M  V30 107 H -5.312399 6.902946 0.156551 0
M  V30 108 H -4.224967 7.723228 1.287469 0
M  V30 109 H -5.622620 6.063083 2.297303 0
M  V30 110 H -3.439699 6.475816 3.355220 0
M  V30 111 H -2.819717 5.174276 2.285857 0
M  V30 112 H -5.067697 4.738959 4.311139 0
M  V30 113 H -3.282073 4.297699 4.434402 0
M  V30 114 H -3.414518 3.006215 2.372416 0
M  V30 115 H -5.213197 3.460562 2.228647 0
M  V30 116 H -5.430497 1.487795 1.752784 0
M  V30 117 H -6.374305 0.235099 0.463604 0
M  V30 118 H -7.481773 -1.309721 -1.043582 0
M  V30 119 H -7.156803 -2.485075 4.886463 0
M  V30 120 H -5.048602 -3.594573 2.008887 0
M  V30 121 H -3.188477 -5.114289 2.148204 0
M  V30 122 H -3.774744 -5.435200 6.333582 0
M  V30 123 H 1.058782 -4.909833 -6.505044 0
M  V30 124 H 2.307089 -3.663589 -5.994589 0
M  V30 125 H 1.272148 -4.534176 -4.782516 0
M  V30 126 H -1.029522 -4.822694 -5.446261 0
M  V30 127 H -1.220023 -4.140259 -7.055628 0
M  V30 128 H -1.993785 -3.253822 -5.727640 0
M  V30 129 H -0.565424 -1.916083 -7.611162 0
M  V30 130 H 0.759300 -3.046626 -7.930010 0
M  V30 131 H 1.157210 -1.536949 -7.067915 0
M  V30 132 H 6.839908 -0.789798 -0.589631 0
M  V30 133 H 8.772249 -2.003664 0.044883 0
M  V30 END ATOM
M  V30 BEGIN BOND
M  V30 1 1 1 2
M  V30 2 1 2 3
M  V30 3 2 3 4
M  V30 4 1 4 5
M  V30 5 1 5 6
M  V30 6 1 6 7
M  V30 7 2 7 8
M  V30 8 1 8 9
M  V30 9 2 9 10
M  V30 10 1 10 11
M  V30 11 1 11 12
M  V30 12 1 11 13
M  V30 13 1 13 14
M  V30 14 2 14 15
M  V30 15 1 14 16
M  V30 16 1 16 17
M  V30 17 1 17 18
M  V30 18 1 18 19
M  V30 19 1 18 20
M  V30 20 1 20 21
M  V30 21 1 21 22
M  V30 22 2 22 23
M  V30 23 1 22 24
M  V30 24 1 24 25
M  V30 25 1 25 26
M  V30 26 2 26 27
M  V30 27 1 26 28
M  V30 28 1 28 29
M  V30 29 1 29 30
M  V30 30 1 30 31
M  V30 31 1 31 32
M  V30 32 1 32 33
M  V30 33 1 33 34
M  V30 34 1 34 35
M  V30 35 1 35 36
M  V30 36 1 36 37
M  V30 37 1 37 38
M  V30 38 1 38 39
M  V30 39 1 39 40
M  V30 40 1 40 41
M  V30 41 1 41 42
M  V30 42 1 42 43
M  V30 43 1 43 44
M  V30 44 2 44 45
M  V30 45 1 44 46
M  V30 46 2 46 47
M  V30 47 1 47 48
M  V30 48 2 48 49
M  V30 49 1 49 50
M  V30 50 1 49 51
M  V30 51 1 51 52
M  V30 52 2 51 53
M  V30 53 1 53 54
M  V30 54 1 54 55
M  V30 55 2 55 56
M  V30 56 1 56 57
M  V30 57 2 57 58
M  V30 58 1 58 59
M  V30 59 1 58 60
M  V30 60 2 60 61
M  V30 61 1 61 62
M  V30 62 1 24 63
M  V30 63 1 63 64
M  V30 64 1 63 65
M  V30 65 1 63 66
M  V30 66 1 10 67
M  V30 67 2 67 68
M  V30 68 2 6 2
M  V30 69 1 68 7
M  V30 70 1 21 16
M  V30 71 1 53 46
M  V30 72 1 61 55
M  V30 73 1 1 69
M  V30 74 1 1 70
M  V30 75 1 1 71
M  V30 76 1 4 72
M  V30 77 1 8 73
M  V30 78 1 9 74
M  V30 79 1 11 75 CFG=3
M  V30 80 1 12 76
M  V30 81 1 12 77
M  V30 82 1 12 78
M  V30 83 1 13 79
M  V30 84 1 16 80 CFG=1
M  V30 85 1 17 81
M  V30 86 1 17 82
M  V30 87 1 18 83 CFG=3
M  V30 88 1 19 84
M  V30 89 1 20 85
M  V30 90 1 20 86
M  V30 91 1 24 87 CFG=3
M  V30 92 1 25 88
M  V30 93 1 28 89
M  V30 94 1 28 90
M  V30 95 1 29 91
M  V30 96 1 29 92
M  V30 97 1 30 93
M  V30 98 1 30 94
M  V30 99 1 31 95
M  V30 100 1 31 96
M  V30 101 1 32 97
M  V30 102 1 32 98
M  V30 103 1 33 99
M  V30 104 1 33 100
M  V30 105 1 34 101
M  V30 106 1 34 102
M  V30 107 1 35 103
M  V30 108 1 35 104
M  V30 109 1 36 105
M  V30 110 1 36 106
M  V30 111 1 37 107
M  V30 112 1 37 108
M  V30 113 1 38 109
M  V30 114 1 39 110
M  V30 115 1 39 111
M  V30 116 1 40 112
M  V30 117 1 40 113
M  V30 118 1 41 114
M  V30 119 1 41 115
M  V30 120 1 43 116
M  V30 121 1 47 117
M  V30 122 1 48 118
M  V30 123 1 54 119
M  V30 124 1 56 120
M  V30 125 1 57 121
M  V30 126 1 60 122
M  V30 127 1 64 123
M  V30 128 1 64 124
M  V30 129 1 64 125
M  V30 130 1 65 126
M  V30 131 1 65 127
M  V30 132 1 65 128
M  V30 133 1 66 129
M  V30 134 1 66 130
M  V30 135 1 66 131
M  V30 136 1 67 132
M  V30 137 1 68 133
M  V30 END BOND
M  V30 END CTAB
M  END
>  <Dataset>  (99) 
ChEMBL_Kinases

>  <Ligand_Instance>  (99) 
nan

>  <PDB_ID>  (99) 
nan

>  <Standardized_SMILES>  (99) 
Cc1ncsc1-c1ccc([C@H](C)NC(=O)[C@H]2C[C@H](O)CN2C(=O)[C@@H](NC(=O)CCCCCCCCCCNCCCONC(=O)c2ccc(F)c(F)c2Nc2ccc(I)cc2F)C(C)(C)C)cc1

>  <Name>  (99) 
nan

>  <Pocket>  (99) 
nan

>  <ATP_Site>  (99) 
nan

>  <Peripheral>  (99) 
nan

>  <Num_H_Atoms_ProtBoundConf>  (99) 
nan

>  <Num_Resolved_Atoms>  (99) 
nan

>  <Num_Not_Resolved_Atoms>  (99) 
nan

$$$$
CHEMBL255772
     RDKit          3D

  0  0  0  0  0  0  0  0  0  0999 V3000
M  V30 BEGIN CTAB
M  V30 COUNTS 69 74 0 0 0
M  V30 BEGIN ATOM
M  V30 1 C 4.333971 -0.018227 7.208244 0
M  V30 2 N 5.111961 -0.188755 6.023347 0
M  V30 3 C 4.761685 -0.196152 4.644431 0
M  V30 4 N 3.433243 -0.003658 4.393497 0
M  V30 5 C 2.979336 0.010715 3.100292 0
M  V30 6 C 1.557885 0.216761 2.841687 0
M  V30 7 C 1.242115 1.341857 2.119594 0
M  V30 8 C -0.081487 1.635484 1.818780 0
M  V30 9 C -1.134167 0.838993 2.214374 0
M  V30 10 C -2.548458 1.088981 1.928118 0
M  V30 11 N -3.072220 0.500600 0.748949 0
M  V30 12 C -2.476890 0.862701 -0.489207 0
M  V30 13 C -1.918422 -0.363686 -1.183147 0
M  V30 14 C -2.953358 -1.375316 -1.528561 0
M  V30 15 N -3.423171 -1.349057 -2.882341 0
M  V30 16 C -3.323331 -0.439130 -3.866173 0
M  V30 17 O -2.740787 0.657405 -3.757686 0
M  V30 18 N -3.920795 -0.825807 -5.002502 0
M  V30 19 C -4.426566 -2.041043 -4.732945 0
M  V30 20 C -5.140559 -2.848433 -5.615835 0
M  V30 21 C -5.567955 -4.066663 -5.126375 0
M  V30 22 C -5.300658 -4.453711 -3.841762 0
M  V30 23 C -4.587053 -3.591421 -3.035632 0
M  V30 24 C -4.119077 -2.356951 -3.433075 0
M  V30 25 C -4.105445 -1.213263 -0.535487 0
M  V30 26 C -3.541921 -0.840163 0.844281 0
M  V30 27 C -0.773859 -0.289920 2.943091 0
M  V30 28 C 0.528854 -0.610837 3.258927 0
M  V30 29 C 3.868489 -0.169183 2.066781 0
M  V30 30 C 3.464072 -0.164580 0.688707 0
M  V30 31 C 3.978549 0.795555 -0.159474 0
M  V30 32 C 3.610560 0.827470 -1.488415 0
M  V30 33 C 2.723333 -0.106302 -1.969073 0
M  V30 34 C 2.212023 -1.068298 -1.104471 0
M  V30 35 C 2.563546 -1.115996 0.210263 0
M  V30 36 C 5.225540 -0.365069 2.339847 0
M  V30 37 C 5.693976 -0.381613 3.639801 0
M  V30 38 C 7.079016 -0.578719 3.985601 0
M  V30 39 N 8.193055 -0.722545 4.265918 0
M  V30 40 H 3.267773 0.137915 6.895128 0
M  V30 41 H 4.652731 0.868810 7.811149 0
M  V30 42 H 4.328521 -0.922561 7.863339 0
M  V30 43 H 6.117717 -0.332246 6.263423 0
M  V30 44 H 2.008711 2.033469 1.762837 0
M  V30 45 H -0.287615 2.515398 1.260242 0
M  V30 46 H -3.130554 0.662055 2.795474 0
M  V30 47 H -2.732271 2.183731 2.004040 0
M  V30 48 H -1.686490 1.612330 -0.442665 0
M  V30 49 H -3.311687 1.240481 -1.150006 0
M  V30 50 H -1.316593 -0.021821 -2.049707 0
M  V30 51 H -1.156552 -0.860034 -0.512114 0
M  V30 52 H -2.521639 -2.401123 -1.369583 0
M  V30 53 H -3.973173 -0.287395 -5.896744 0
M  V30 54 H -5.350049 -2.539431 -6.633229 0
M  V30 55 H -6.126622 -4.691251 -5.827259 0
M  V30 56 H -5.657221 -5.415117 -3.512221 0
M  V30 57 H -4.395345 -3.934779 -2.028326 0
M  V30 58 H -4.661530 -2.158149 -0.446826 0
M  V30 59 H -4.730747 -0.341233 -0.816665 0
M  V30 60 H -4.379625 -0.905349 1.541799 0
M  V30 61 H -2.783801 -1.574698 1.157471 0
M  V30 62 H -1.513843 -1.010135 3.320123 0
M  V30 63 H 0.814454 -1.486387 3.825171 0
M  V30 64 H 4.678807 1.568565 0.124372 0
M  V30 65 H 3.998127 1.573093 -2.186468 0
M  V30 66 H 2.393449 -0.141105 -2.987816 0
M  V30 67 H 1.514840 -1.812554 -1.454777 0
M  V30 68 H 2.148004 -1.883629 0.872484 0
M  V30 69 H 5.996033 -0.514652 1.589313 0
M  V30 END ATOM
M  V30 BEGIN BOND
M  V30 1 1 1 2
M  V30 2 1 2 3
M  V30 3 2 3 4
M  V30 4 1 4 5
M  V30 5 1 5 6
M  V30 6 2 6 7
M  V30 7 1 7 8
M  V30 8 2 8 9
M  V30 9 1 9 10
M  V30 10 1 10 11
M  V30 11 1 11 12
M  V30 12 1 12 13
M  V30 13 1 13 14
M  V30 14 1 14 15
M  V30 15 1 15 16
M  V30 16 2 16 17
M  V30 17 1 16 18
M  V30 18 1 18 19
M  V30 19 2 19 20
M  V30 20 1 20 21
M  V30 21 2 21 22
M  V30 22 1 22 23
M  V30 23 2 23 24
M  V30 24 1 14 25
M  V30 25 1 25 26
M  V30 26 1 9 27
M  V30 27 2 27 28
M  V30 28 2 5 29
M  V30 29 1 29 30
M  V30 30 2 30 31
M  V30 31 1 31 32
M  V30 32 2 32 33
M  V30 33 1 33 34
M  V30 34 2 34 35
M  V30 35 1 29 36
M  V30 36 2 36 37
M  V30 37 1 37 38
M  V30 38 3 38 39
M  V30 39 1 37 3
M  V30 40 1 28 6
M  V30 41 1 35 30
M  V30 42 1 26 11
M  V30 43 1 24 15
M  V30 44 1 24 19
M  V30 45 1 1 40
M  V30 46 1 1 41
M  V30 47 1 1 42
M  V30 48 1 2 43
M  V30 49 1 7 44
M  V30 50 1 8 45
M  V30 51 1 10 46
M  V30 52 1 10 47
M  V30 53 1 12 48
M  V30 54 1 12 49
M  V30 55 1 13 50
M  V30 56 1 13 51
M  V30 57 1 14 52
M  V30 58 1 18 53
M  V30 59 1 20 54
M  V30 60 1 21 55
M  V30 61 1 22 56
M  V30 62 1 23 57
M  V30 63 1 25 58
M  V30 64 1 25 59
M  V30 65 1 26 60
M  V30 66 1 26 61
M  V30 67 1 27 62
M  V30 68 1 28 63
M  V30 69 1 31 64
M  V30 70 1 32 65
M  V30 71 1 33 66
M  V30 72 1 34 67
M  V30 73 1 35 68
M  V30 74 1 36 69
M  V30 END BOND
M  V30 END CTAB
M  END
>  <Dataset>  (100) 
ChEMBL_Kinases

>  <Ligand_Instance>  (100) 
nan

>  <PDB_ID>  (100) 
nan

>  <Standardized_SMILES>  (100) 
CNc1nc(-c2ccc(CN3CCC(n4c(=O)[nH]c5ccccc54)CC3)cc2)c(-c2ccccc2)cc1C#N

>  <Name>  (100) 
nan

>  <Pocket>  (100) 
nan

>  <ATP_Site>  (100) 
nan

>  <Peripheral>  (100) 
nan

>  <Num_H_Atoms_ProtBoundConf>  (100) 
nan

>  <Num_Resolved_Atoms>  (100) 
nan

>  <Num_Not_Resolved_Atoms>  (100) 
nan

$$$$
CHEMBL3702054
     RDKit          3D

  0  0  0  0  0  0  0  0  0  0999 V3000
M  V30 BEGIN CTAB
M  V30 COUNTS 70 75 0 0 0
M  V30 BEGIN ATOM
M  V30 1 C 5.677669 -3.852904 -3.610706 0
M  V30 2 O 4.817022 -2.911689 -3.000251 0
M  V30 3 C 5.257029 -2.174298 -1.909222 0
M  V30 4 N 6.500747 -2.358707 -1.436702 0
M  V30 5 C 7.000859 -1.688910 -0.389398 0
M  V30 6 C 6.164094 -0.773859 0.204212 0
M  V30 7 C 4.875782 -0.575908 -0.277334 0
M  V30 8 C 3.926809 0.297543 0.209855 0
M  V30 9 C 3.770472 1.235289 1.209589 0
M  V30 10 N 2.633178 1.930141 1.390346 0
M  V30 11 C 1.588044 1.715669 0.569009 0
M  V30 12 N 0.321961 2.365221 0.626228 0
M  V30 13 C -0.726446 1.819449 1.418164 0
M  V30 14 C -1.974313 2.397490 1.515777 0
M  V30 15 C -2.944288 1.824301 2.296546 0
M  V30 16 C -2.764529 0.671153 3.020150 0
M  V30 17 N -3.765358 0.101869 3.809337 0
M  V30 18 C -5.101570 0.614669 3.963103 0
M  V30 19 C -6.069581 -0.427091 3.484401 0
M  V30 20 C -5.379602 -1.626249 2.883487 0
M  V30 21 N -4.734842 -1.298240 1.616192 0
M  V30 22 C -5.743795 -0.829547 0.688689 0
M  V30 23 C -4.153599 -2.502143 1.075720 0
M  V30 24 C -4.359243 -2.188818 3.854939 0
M  V30 25 C -3.619405 -1.100668 4.601952 0
M  V30 26 C -1.505403 0.139640 2.885902 0
M  V30 27 N -0.529459 0.673401 2.129895 0
M  V30 28 N 1.730537 0.810245 -0.400988 0
M  V30 29 C 2.844763 0.094022 -0.619237 0
M  V30 30 N 3.103105 -0.837701 -1.553281 0
M  V30 31 C 2.301186 -1.392754 -2.635329 0
M  V30 32 C 0.854028 -1.098307 -2.554785 0
M  V30 33 C 0.647685 0.196708 -3.241692 0
M  V30 34 C 2.003707 0.625178 -3.793596 0
M  V30 35 C 2.735500 -0.700831 -3.904357 0
M  V30 36 C 4.369565 -1.272947 -1.359713 0
M  V30 37 H 5.120712 -4.568777 -4.246175 0
M  V30 38 H 6.513741 -3.351605 -4.169236 0
M  V30 39 H 6.198832 -4.473042 -2.825933 0
M  V30 40 H 8.015386 -1.917962 -0.094371 0
M  V30 41 H 6.556297 -0.216140 1.062782 0
M  V30 42 H 4.626498 1.384521 1.851679 0
M  V30 43 H 0.104150 3.247609 0.106683 0
M  V30 44 H -2.133099 3.317785 0.944439 0
M  V30 45 H -3.878293 2.365443 2.294473 0
M  V30 46 H -5.290356 0.766211 5.065609 0
M  V30 47 H -5.298888 1.574516 3.489102 0
M  V30 48 H -6.705161 -0.793172 4.310772 0
M  V30 49 H -6.751555 0.025735 2.751841 0
M  V30 50 H -6.148186 -2.400636 2.697439 0
M  V30 51 H -6.046689 0.209838 0.840558 0
M  V30 52 H -6.607988 -1.547536 0.643572 0
M  V30 53 H -5.304584 -0.897872 -0.349162 0
M  V30 54 H -3.085157 -2.624650 1.357453 0
M  V30 55 H -4.160227 -2.392165 -0.041284 0
M  V30 56 H -4.740571 -3.425442 1.307460 0
M  V30 57 H -4.862039 -2.877610 4.572021 0
M  V30 58 H -3.601104 -2.799012 3.327578 0
M  V30 59 H -2.565069 -1.417282 4.740224 0
M  V30 60 H -4.108433 -1.030326 5.605249 0
M  V30 61 H -1.210596 -0.767335 3.392864 0
M  V30 62 H 2.473167 -2.499615 -2.699970 0
M  V30 63 H 0.326729 -1.912054 -3.117415 0
M  V30 64 H 0.426569 -1.152239 -1.534619 0
M  V30 65 H 0.140111 0.987398 -2.669786 0
M  V30 66 H 0.014688 0.039872 -4.168653 0
M  V30 67 H 2.485303 1.286207 -3.046247 0
M  V30 68 H 1.907079 1.118152 -4.784448 0
M  V30 69 H 3.824825 -0.565368 -3.988620 0
M  V30 70 H 2.293369 -1.228186 -4.774273 0
M  V30 END ATOM
M  V30 BEGIN BOND
M  V30 1 1 1 2
M  V30 2 1 2 3
M  V30 3 2 3 4
M  V30 4 1 4 5
M  V30 5 2 5 6
M  V30 6 1 6 7
M  V30 7 1 7 8
M  V30 8 2 8 9
M  V30 9 1 9 10
M  V30 10 2 10 11
M  V30 11 1 11 12
M  V30 12 1 12 13
M  V30 13 2 13 14
M  V30 14 1 14 15
M  V30 15 2 15 16
M  V30 16 1 16 17
M  V30 17 1 17 18
M  V30 18 1 18 19
M  V30 19 1 19 20
M  V30 20 1 20 21
M  V30 21 1 21 22
M  V30 22 1 21 23
M  V30 23 1 20 24
M  V30 24 1 24 25
M  V30 25 1 16 26
M  V30 26 2 26 27
M  V30 27 1 11 28
M  V30 28 2 28 29
M  V30 29 1 29 30
M  V30 30 1 30 31
M  V30 31 1 31 32
M  V30 32 1 32 33
M  V30 33 1 33 34
M  V30 34 1 34 35
M  V30 35 1 30 36
M  V30 36 1 36 3
M  V30 37 2 36 7
M  V30 38 1 29 8
M  V30 39 1 35 31
M  V30 40 1 27 13
M  V30 41 1 25 17
M  V30 42 1 1 37
M  V30 43 1 1 38
M  V30 44 1 1 39
M  V30 45 1 5 40
M  V30 46 1 6 41
M  V30 47 1 9 42
M  V30 48 1 12 43
M  V30 49 1 14 44
M  V30 50 1 15 45
M  V30 51 1 18 46
M  V30 52 1 18 47
M  V30 53 1 19 48
M  V30 54 1 19 49
M  V30 55 1 20 50
M  V30 56 1 22 51
M  V30 57 1 22 52
M  V30 58 1 22 53
M  V30 59 1 23 54
M  V30 60 1 23 55
M  V30 61 1 23 56
M  V30 62 1 24 57
M  V30 63 1 24 58
M  V30 64 1 25 59
M  V30 65 1 25 60
M  V30 66 1 26 61
M  V30 67 1 31 62
M  V30 68 1 32 63
M  V30 69 1 32 64
M  V30 70 1 33 65
M  V30 71 1 33 66
M  V30 72 1 34 67
M  V30 73 1 34 68
M  V30 74 1 35 69
M  V30 75 1 35 70
M  V30 END BOND
M  V30 END CTAB
M  END
>  <Dataset>  (101) 
ChEMBL_Kinases

>  <Ligand_Instance>  (101) 
nan

>  <PDB_ID>  (101) 
nan

>  <Standardized_SMILES>  (101) 
COc1nccc2c3cnc(Nc4ccc(N5CCC(N(C)C)CC5)cn4)nc3n(C3CCCC3)c12

>  <Name>  (101) 
nan

>  <Pocket>  (101) 
nan

>  <ATP_Site>  (101) 
nan

>  <Peripheral>  (101) 
nan

>  <Num_H_Atoms_ProtBoundConf>  (101) 
nan

>  <Num_Resolved_Atoms>  (101) 
nan

>  <Num_Not_Resolved_Atoms>  (101) 
nan

$$$$
CHEMBL4436404
     RDKit          3D

  0  0  0  0  0  0  0  0  0  0999 V3000
M  V30 BEGIN CTAB
M  V30 COUNTS 55 60 0 0 0
M  V30 BEGIN ATOM
M  V30 1 C 2.457003 -4.759531 1.829151 0
M  V30 2 C 2.690365 -3.840854 3.012590 0 CFG=1
M  V30 3 N 3.997047 -3.990285 3.572316 0
M  V30 4 C 4.731060 -2.778224 3.461936 0
M  V30 5 O 5.907933 -2.585589 3.858780 0
M  V30 6 C 3.835226 -1.836513 2.803137 0
M  V30 7 C 3.697668 -0.550318 2.327774 0
M  V30 8 C 2.447044 -0.341923 1.770582 0
M  V30 9 C 2.021499 0.921890 1.186020 0
M  V30 10 C 2.895740 2.016440 1.196433 0
M  V30 11 C 2.553100 3.238078 0.663205 0
M  V30 12 C 1.324119 3.419758 0.097038 0
M  V30 13 C 0.487151 2.334991 0.098629 0
M  V30 14 C -0.764757 2.483646 -0.467829 0
M  V30 15 O -1.079246 3.614159 -0.959727 0
M  V30 16 N -1.693592 1.478630 -0.531423 0
M  V30 17 C -2.963217 1.782473 -1.154252 0
M  V30 18 C -3.038379 1.550969 -2.615365 0
M  V30 19 C -4.401789 1.882246 -3.305772 0
M  V30 20 C -4.028195 0.468363 -3.069353 0
M  V30 21 C -1.328204 0.274418 0.005104 0
M  V30 22 N -2.299839 -0.781573 -0.050117 0
M  V30 23 C -2.060095 -2.121524 0.453115 0
M  V30 24 C -0.963143 -2.862351 -0.258197 0
M  V30 25 C -2.479866 -2.495665 1.818918 0
M  V30 26 C -3.322100 -2.950472 0.704294 0
M  V30 27 N -0.118985 0.091179 0.565109 0
M  V30 28 C 0.778177 1.089264 0.618065 0
M  V30 29 N 1.845070 -1.529800 1.924776 0
M  V30 30 C 2.625721 -2.436789 2.527151 0
M  V30 31 H 1.388869 -4.649433 1.566966 0
M  V30 32 H 3.050408 -4.415230 0.960850 0
M  V30 33 H 2.707379 -5.791136 2.148041 0
M  V30 34 H 1.878712 -4.052259 3.736511 0
M  V30 35 H 4.281230 -4.901969 3.982219 0
M  V30 36 H 4.526152 0.168234 2.416115 0
M  V30 37 H 3.896844 1.942794 1.633781 0
M  V30 38 H 3.258904 4.055967 0.692721 0
M  V30 39 H 1.018129 4.369211 -0.333606 0
M  V30 40 H -3.143823 2.890180 -1.003102 0
M  V30 41 H -3.838269 1.316553 -0.656104 0
M  V30 42 H -2.175824 1.751183 -3.279875 0
M  V30 43 H -5.144233 2.359350 -2.622143 0
M  V30 44 H -4.372008 2.351900 -4.290191 0
M  V30 45 H -4.611994 -0.088891 -2.336958 0
M  V30 46 H -3.749992 -0.077056 -4.017703 0
M  V30 47 H -3.238305 -0.603494 -0.470318 0
M  V30 48 H -0.349419 -3.482960 0.393236 0
M  V30 49 H -0.309743 -2.170265 -0.815139 0
M  V30 50 H -1.370931 -3.559977 -1.047011 0
M  V30 51 H -2.879066 -1.646719 2.420816 0
M  V30 52 H -1.887908 -3.255116 2.365489 0
M  V30 53 H -4.309775 -2.476682 0.538411 0
M  V30 54 H -3.323252 -4.023302 0.419905 0
M  V30 55 H 0.890485 -1.736910 1.622249 0
M  V30 END ATOM
M  V30 BEGIN BOND
M  V30 1 1 1 2
M  V30 2 1 2 3
M  V30 3 1 3 4
M  V30 4 2 4 5
M  V30 5 1 4 6
M  V30 6 1 6 7
M  V30 7 2 7 8
M  V30 8 1 8 9
M  V30 9 2 9 10
M  V30 10 1 10 11
M  V30 11 2 11 12
M  V30 12 1 12 13
M  V30 13 1 13 14
M  V30 14 2 14 15
M  V30 15 1 14 16
M  V30 16 1 16 17
M  V30 17 1 17 18
M  V30 18 1 18 19
M  V30 19 1 19 20
M  V30 20 1 16 21
M  V30 21 1 21 22
M  V30 22 1 22 23
M  V30 23 1 23 24
M  V30 24 1 23 25
M  V30 25 1 25 26
M  V30 26 2 21 27
M  V30 27 1 27 28
M  V30 28 1 8 29
M  V30 29 1 29 30
M  V30 30 1 30 2
M  V30 31 2 30 6
M  V30 32 1 28 9
M  V30 33 2 28 13
M  V30 34 1 20 18
M  V30 35 1 26 23
M  V30 36 1 1 31
M  V30 37 1 1 32
M  V30 38 1 1 33
M  V30 39 1 2 34 CFG=1
M  V30 40 1 3 35
M  V30 41 1 7 36
M  V30 42 1 10 37
M  V30 43 1 11 38
M  V30 44 1 12 39
M  V30 45 1 17 40
M  V30 46 1 17 41
M  V30 47 1 18 42
M  V30 48 1 19 43
M  V30 49 1 19 44
M  V30 50 1 20 45
M  V30 51 1 20 46
M  V30 52 1 22 47
M  V30 53 1 24 48
M  V30 54 1 24 49
M  V30 55 1 24 50
M  V30 56 1 25 51
M  V30 57 1 25 52
M  V30 58 1 26 53
M  V30 59 1 26 54
M  V30 60 1 29 55
M  V30 END BOND
M  V30 END CTAB
M  END
>  <Dataset>  (102) 
ChEMBL_Kinases

>  <Ligand_Instance>  (102) 
nan

>  <PDB_ID>  (102) 
nan

>  <Standardized_SMILES>  (102) 
C[C@H]1NC(=O)c2cc(-c3cccc4c(=O)n(CC5CC5)c(NC5(C)CC5)nc34)[nH]c21

>  <Name>  (102) 
nan

>  <Pocket>  (102) 
nan

>  <ATP_Site>  (102) 
nan

>  <Peripheral>  (102) 
nan

>  <Num_H_Atoms_ProtBoundConf>  (102) 
nan

>  <Num_Resolved_Atoms>  (102) 
nan

>  <Num_Not_Resolved_Atoms>  (102) 
nan

$$$$
CHEMBL3702067
     RDKit          3D

  0  0  0  0  0  0  0  0  0  0999 V3000
M  V30 BEGIN CTAB
M  V30 COUNTS 61 65 0 0 0
M  V30 BEGIN ATOM
M  V30 1 C 2.629474 1.589082 5.105768 0
M  V30 2 C 3.489324 0.873558 4.119545 0
M  V30 3 C 2.917715 -0.520803 3.846774 0
M  V30 4 N 3.673390 1.569444 2.863196 0
M  V30 5 C 4.843508 1.949675 2.309033 0
M  V30 6 C 6.132336 1.779956 2.805154 0
M  V30 7 N 7.212523 2.234622 2.104089 0
M  V30 8 C 7.029079 2.857887 0.912430 0
M  V30 9 C 5.749677 3.039517 0.395567 0
M  V30 10 C 4.650343 2.582184 1.098704 0
M  V30 11 C 3.286887 2.590748 0.900029 0
M  V30 12 C 2.577067 3.113427 -0.176691 0
M  V30 13 N 1.228190 2.967609 -0.084864 0
M  V30 14 C 0.640322 2.362997 0.972890 0
M  V30 15 N -0.767720 2.350512 0.794083 0
M  V30 16 C -1.576479 1.196651 0.563552 0
M  V30 17 C -2.945424 1.215411 0.351671 0
M  V30 18 C -3.628308 0.017321 0.158272 0
M  V30 19 C -2.920051 -1.153732 0.184231 0
M  V30 20 N -3.478661 -2.442442 -0.021840 0
M  V30 21 C -4.743770 -2.802400 -0.631184 0
M  V30 22 C -4.375980 -3.279102 -2.041884 0
M  V30 23 C -3.126503 -4.070976 -2.038880 0
M  V30 24 N -3.079190 -5.139911 -3.008479 0
M  V30 25 C -4.107606 -6.118014 -2.895818 0
M  V30 26 C -2.688998 -4.768577 -4.323193 0
M  V30 27 C -2.705503 -4.653232 -0.716943 0
M  V30 28 C -2.764118 -3.659868 0.407554 0
M  V30 29 N -1.580430 -1.121775 0.395515 0
M  V30 30 N -0.911626 0.004039 0.580912 0
M  V30 31 N 1.373332 1.864147 2.006609 0
M  V30 32 C 2.719014 1.960417 2.004504 0
M  V30 33 H 1.594714 1.197518 4.995749 0
M  V30 34 H 2.943498 1.335103 6.154477 0
M  V30 35 H 2.672873 2.680295 5.051068 0
M  V30 36 H 4.497474 0.765329 4.596795 0
M  V30 37 H 3.289524 -0.917057 2.898150 0
M  V30 38 H 1.813219 -0.465090 3.832732 0
M  V30 39 H 3.290258 -1.177703 4.656120 0
M  V30 40 H 6.286333 1.275559 3.766733 0
M  V30 41 H 7.805870 3.253155 0.281547 0
M  V30 42 H 5.583222 3.543090 -0.571427 0
M  V30 43 H 3.100461 3.583474 -0.986593 0
M  V30 44 H -1.297956 3.235210 0.824947 0
M  V30 45 H -3.434672 2.158954 0.343889 0
M  V30 46 H -4.682980 -0.010042 -0.008295 0
M  V30 47 H -5.355447 -1.875950 -0.691268 0
M  V30 48 H -5.225730 -3.593945 -0.055916 0
M  V30 49 H -4.241277 -2.323587 -2.616324 0
M  V30 50 H -5.235347 -3.775697 -2.545010 0
M  V30 51 H -2.289105 -3.372549 -2.359673 0
M  V30 52 H -3.864210 -6.899178 -3.676915 0
M  V30 53 H -4.070880 -6.686382 -1.944090 0
M  V30 54 H -5.125944 -5.788218 -3.142218 0
M  V30 55 H -3.058907 -3.755724 -4.576351 0
M  V30 56 H -3.119004 -5.532827 -5.037623 0
M  V30 57 H -1.579277 -4.879782 -4.472661 0
M  V30 58 H -1.661209 -5.007975 -0.817576 0
M  V30 59 H -3.324817 -5.527052 -0.449195 0
M  V30 60 H -3.343336 -4.052621 1.263751 0
M  V30 61 H -1.746981 -3.435297 0.780302 0
M  V30 END ATOM
M  V30 BEGIN BOND
M  V30 1 1 1 2
M  V30 2 1 2 3
M  V30 3 1 2 4
M  V30 4 1 4 5
M  V30 5 2 5 6
M  V30 6 1 6 7
M  V30 7 2 7 8
M  V30 8 1 8 9
M  V30 9 2 9 10
M  V30 10 1 10 11
M  V30 11 2 11 12
M  V30 12 1 12 13
M  V30 13 2 13 14
M  V30 14 1 14 15
M  V30 15 1 15 16
M  V30 16 2 16 17
M  V30 17 1 17 18
M  V30 18 2 18 19
M  V30 19 1 19 20
M  V30 20 1 20 21
M  V30 21 1 21 22
M  V30 22 1 22 23
M  V30 23 1 23 24
M  V30 24 1 24 25
M  V30 25 1 24 26
M  V30 26 1 23 27
M  V30 27 1 27 28
M  V30 28 1 19 29
M  V30 29 2 29 30
M  V30 30 1 14 31
M  V30 31 2 31 32
M  V30 32 1 32 4
M  V30 33 1 10 5
M  V30 34 1 32 11
M  V30 35 1 30 16
M  V30 36 1 28 20
M  V30 37 1 1 33
M  V30 38 1 1 34
M  V30 39 1 1 35
M  V30 40 1 2 36
M  V30 41 1 3 37
M  V30 42 1 3 38
M  V30 43 1 3 39
M  V30 44 1 6 40
M  V30 45 1 8 41
M  V30 46 1 9 42
M  V30 47 1 12 43
M  V30 48 1 15 44
M  V30 49 1 17 45
M  V30 50 1 18 46
M  V30 51 1 21 47
M  V30 52 1 21 48
M  V30 53 1 22 49
M  V30 54 1 22 50
M  V30 55 1 23 51
M  V30 56 1 25 52
M  V30 57 1 25 53
M  V30 58 1 25 54
M  V30 59 1 26 55
M  V30 60 1 26 56
M  V30 61 1 26 57
M  V30 62 1 27 58
M  V30 63 1 27 59
M  V30 64 1 28 60
M  V30 65 1 28 61
M  V30 END BOND
M  V30 END CTAB
M  END
>  <Dataset>  (103) 
ChEMBL_Kinases

>  <Ligand_Instance>  (103) 
nan

>  <PDB_ID>  (103) 
nan

>  <Standardized_SMILES>  (103) 
CC(C)n1c2cnccc2c2cnc(Nc3ccc(N4CCC(N(C)C)CC4)nn3)nc21

>  <Name>  (103) 
nan

>  <Pocket>  (103) 
nan

>  <ATP_Site>  (103) 
nan

>  <Peripheral>  (103) 
nan

>  <Num_H_Atoms_ProtBoundConf>  (103) 
nan

>  <Num_Resolved_Atoms>  (103) 
nan

>  <Num_Not_Resolved_Atoms>  (103) 
nan

$$$$
CHEMBL3687498
     RDKit          3D

  0  0  0  0  0  0  0  0  0  0999 V3000
M  V30 BEGIN CTAB
M  V30 COUNTS 62 65 0 0 0
M  V30 BEGIN ATOM
M  V30 1 C 3.196213 -2.303085 3.977572 0
M  V30 2 C 2.143339 -2.826845 3.026328 0
M  V30 3 O 1.459123 -1.865197 2.336093 0
M  V30 4 C 2.204332 -1.044602 1.524667 0 CFG=2
M  V30 5 C 2.136576 0.340031 2.129265 0 CFG=2
M  V30 6 N 1.786640 0.338474 3.530702 0
M  V30 7 C 1.056549 1.175294 1.419470 0
M  V30 8 C 1.597085 1.394779 0.044635 0 CFG=2
M  V30 9 C 1.005284 2.511046 -0.705838 0
M  V30 10 C 1.743079 3.696104 -0.918966 0
M  V30 11 C 1.377460 4.830653 -1.613543 0
M  V30 12 N 0.143891 4.805006 -2.166074 0
M  V30 13 C -0.613638 3.706786 -2.001516 0
M  V30 14 C -0.234060 2.582585 -1.304652 0
M  V30 15 N -1.090749 1.466555 -1.159540 0
M  V30 16 C -2.377689 1.220049 -1.700872 0
M  V30 17 O -2.921865 2.076710 -2.441626 0
M  V30 18 C -3.157191 0.010949 -1.464203 0
M  V30 19 C -4.400852 -0.180398 -2.013860 0
M  V30 20 C -5.132206 -1.328443 -1.784747 0
M  V30 21 C -4.633617 -2.349660 -0.978774 0
M  V30 22 F -5.336743 -3.474923 -0.747040 0
M  V30 23 C -3.389738 -2.128685 -0.444808 0
M  V30 24 C -2.835807 -3.191273 0.412313 0
M  V30 25 C -2.967633 -3.347350 1.778819 0
M  V30 26 F -3.697524 -2.395879 2.373299 0
M  V30 27 C -2.351519 -4.434337 2.366843 0
M  V30 28 C -1.624212 -5.354001 1.665529 0
M  V30 29 C -1.487575 -5.207027 0.306210 0
M  V30 30 C -2.093087 -4.129056 -0.309056 0
M  V30 31 F -1.897254 -4.072913 -1.664197 0
M  V30 32 N -2.727317 -1.010042 -0.694345 0
M  V30 33 C 1.821192 0.132564 -0.690003 0
M  V30 34 C 1.769527 -1.134464 0.106668 0 CFG=2
M  V30 35 C 0.430035 -1.868913 -0.026516 0
M  V30 36 H 3.958314 -1.683154 3.503580 0
M  V30 37 H 3.748865 -3.226366 4.324202 0
M  V30 38 H 2.756576 -1.894787 4.909602 0
M  V30 39 H 1.403787 -3.358644 3.677346 0
M  V30 40 H 2.671987 -3.557862 2.371432 0
M  V30 41 H 3.270090 -1.373391 1.619326 0
M  V30 42 H 3.083405 0.911690 1.985463 0
M  V30 43 H 0.758440 0.280912 3.608337 0
M  V30 44 H 2.143551 1.182055 4.006038 0
M  V30 45 H 0.148350 0.600516 1.521543 0
M  V30 46 H 1.046258 2.153568 1.941727 0
M  V30 47 H 2.670820 1.773571 0.274592 0
M  V30 48 H 2.756694 3.791477 -0.498899 0
M  V30 49 H 2.019094 5.684620 -1.716802 0
M  V30 50 H -1.563496 3.832241 -2.492604 0
M  V30 51 H -0.848698 0.642616 -0.576646 0
M  V30 52 H -4.833505 0.594351 -2.653693 0
M  V30 53 H -6.110460 -1.419021 -2.249213 0
M  V30 54 H -2.491503 -4.505418 3.454292 0
M  V30 55 H -1.161845 -6.190786 2.187489 0
M  V30 56 H -0.907046 -5.944447 -0.240650 0
M  V30 57 H 1.137075 0.048076 -1.537897 0
M  V30 58 H 2.844393 0.206246 -1.203125 0
M  V30 59 H 2.492466 -1.841058 -0.412224 0
M  V30 60 H 0.000631 -1.561312 -0.987827 0
M  V30 61 H 0.568483 -2.966912 -0.094055 0
M  V30 62 H -0.263953 -1.641515 0.794136 0
M  V30 END ATOM
M  V30 BEGIN BOND
M  V30 1 1 1 2
M  V30 2 1 2 3
M  V30 3 1 3 4
M  V30 4 1 4 5
M  V30 5 1 5 6
M  V30 6 1 5 7
M  V30 7 1 7 8
M  V30 8 1 8 9
M  V30 9 2 9 10
M  V30 10 1 10 11
M  V30 11 2 11 12
M  V30 12 1 12 13
M  V30 13 2 13 14
M  V30 14 1 14 15
M  V30 15 1 15 16
M  V30 16 2 16 17
M  V30 17 1 16 18
M  V30 18 2 18 19
M  V30 19 1 19 20
M  V30 20 2 20 21
M  V30 21 1 21 22
M  V30 22 1 21 23
M  V30 23 1 23 24
M  V30 24 2 24 25
M  V30 25 1 25 26
M  V30 26 1 25 27
M  V30 27 2 27 28
M  V30 28 1 28 29
M  V30 29 2 29 30
M  V30 30 1 30 31
M  V30 31 2 23 32
M  V30 32 1 8 33
M  V30 33 1 33 34
M  V30 34 1 34 35
M  V30 35 1 34 4
M  V30 36 1 14 9
M  V30 37 1 32 18
M  V30 38 1 30 24
M  V30 39 1 1 36
M  V30 40 1 1 37
M  V30 41 1 1 38
M  V30 42 1 2 39
M  V30 43 1 2 40
M  V30 44 1 4 41 CFG=3
M  V30 45 1 5 42 CFG=1
M  V30 46 1 6 43
M  V30 47 1 6 44
M  V30 48 1 7 45
M  V30 49 1 7 46
M  V30 50 1 8 47 CFG=1
M  V30 51 1 10 48
M  V30 52 1 11 49
M  V30 53 1 13 50
M  V30 54 1 15 51
M  V30 55 1 19 52
M  V30 56 1 20 53
M  V30 57 1 27 54
M  V30 58 1 28 55
M  V30 59 1 29 56
M  V30 60 1 33 57
M  V30 61 1 33 58
M  V30 62 1 34 59 CFG=3
M  V30 63 1 35 60
M  V30 64 1 35 61
M  V30 65 1 35 62
M  V30 END BOND
M  V30 END CTAB
M  END
>  <Dataset>  (104) 
ChEMBL_Kinases

>  <Ligand_Instance>  (104) 
nan

>  <PDB_ID>  (104) 
nan

>  <Standardized_SMILES>  (104) 
CCO[C@@H]1[C@H](N)C[C@H](c2ccncc2NC(=O)c2ccc(F)c(-c3c(F)cccc3F)n2)C[C@@H]1C

>  <Name>  (104) 
nan

>  <Pocket>  (104) 
nan

>  <ATP_Site>  (104) 
nan

>  <Peripheral>  (104) 
nan

>  <Num_H_Atoms_ProtBoundConf>  (104) 
nan

>  <Num_Resolved_Atoms>  (104) 
nan

>  <Num_Not_Resolved_Atoms>  (104) 
nan

$$$$
CHEMBL3687497
     RDKit          3D

  0  0  0  0  0  0  0  0  0  0999 V3000
M  V30 BEGIN CTAB
M  V30 COUNTS 56 59 0 0 0
M  V30 BEGIN ATOM
M  V30 1 C 0.861595 -3.273395 1.767075 0
M  V30 2 C 1.429116 -2.240438 0.854025 0 CFG=1
M  V30 3 C 1.867711 -0.968069 1.544200 0
M  V30 4 N 2.284658 -0.080123 0.449915 0
M  V30 5 C 2.334275 1.360453 0.512107 0
M  V30 6 C 3.632014 1.851720 0.507673 0
M  V30 7 C 3.907772 3.209994 0.588355 0
M  V30 8 N 2.860577 4.058176 0.673199 0
M  V30 9 C 1.623601 3.541041 0.673632 0
M  V30 10 C 1.263676 2.218238 0.596959 0
M  V30 11 N -0.030828 1.676701 0.588817 0
M  V30 12 C -1.277973 2.334885 0.698650 0
M  V30 13 O -1.288863 3.590523 0.824554 0
M  V30 14 C -2.573672 1.669653 0.677424 0
M  V30 15 C -3.746276 2.368893 0.793448 0
M  V30 16 C -4.981653 1.761747 0.775467 0
M  V30 17 C -5.108261 0.397186 0.637665 0
M  V30 18 F -6.303982 -0.236044 0.614998 0
M  V30 19 C -3.909170 -0.273641 0.523411 0
M  V30 20 C -4.007621 -1.740265 0.372267 0
M  V30 21 C -4.022733 -2.579635 1.440427 0
M  V30 22 F -3.943119 -2.044239 2.671352 0
M  V30 23 C -4.118617 -3.924280 1.182429 0
M  V30 24 C -4.198336 -4.430458 -0.114921 0
M  V30 25 C -4.180231 -3.539075 -1.184957 0
M  V30 26 C -4.084294 -2.184882 -0.943359 0
M  V30 27 F -4.070619 -1.357895 -2.031154 0
M  V30 28 N -2.722312 0.346801 0.544959 0
M  V30 29 C 2.713285 -0.443046 -0.883262 0
M  V30 30 C 2.729296 -1.900315 -1.181548 0 CFG=1
M  V30 31 N 3.983402 -2.242204 -1.851039 0
M  V30 32 C 2.644699 -2.721176 0.079756 0 CFG=1
M  V30 33 N 3.870858 -2.540902 0.820736 0
M  V30 34 N 4.099044 -3.418125 1.684705 0 CHG=1 VAL=4
M  V30 35 N 4.434007 -3.846686 2.775674 0 CHG=-1 VAL=2
M  V30 36 H 1.592066 -3.793186 2.401340 0
M  V30 37 H 0.258979 -3.960635 1.129805 0
M  V30 38 H 0.115374 -2.750960 2.412781 0
M  V30 39 H 0.631490 -1.952081 0.136431 0
M  V30 40 H 1.068568 -0.469947 2.117308 0
M  V30 41 H 2.749822 -1.209686 2.185743 0
M  V30 42 H 4.508578 1.233697 0.442399 0
M  V30 43 H 4.920035 3.617777 0.586392 0
M  V30 44 H 0.857261 4.289840 0.744011 0
M  V30 45 H -0.178979 0.658471 0.483662 0
M  V30 46 H -3.719173 3.461247 0.905920 0
M  V30 47 H -5.896183 2.365495 0.872241 0
M  V30 48 H -4.133545 -4.622719 2.007427 0
M  V30 49 H -4.272769 -5.511050 -0.252000 0
M  V30 50 H -4.245262 -4.018284 -2.131601 0
M  V30 51 H 3.735572 -0.028774 -1.064726 0
M  V30 52 H 2.080030 0.090544 -1.656553 0
M  V30 53 H 1.888861 -2.207497 -1.861705 0
M  V30 54 H 3.900235 -3.122876 -2.398593 0
M  V30 55 H 4.312033 -1.473366 -2.478209 0
M  V30 56 H 2.479483 -3.802997 -0.142863 0
M  V30 END ATOM
M  V30 BEGIN BOND
M  V30 1 1 1 2
M  V30 2 1 2 3
M  V30 3 1 3 4
M  V30 4 1 4 5
M  V30 5 2 5 6
M  V30 6 1 6 7
M  V30 7 2 7 8
M  V30 8 1 8 9
M  V30 9 2 9 10
M  V30 10 1 10 11
M  V30 11 1 11 12
M  V30 12 2 12 13
M  V30 13 1 12 14
M  V30 14 2 14 15
M  V30 15 1 15 16
M  V30 16 2 16 17
M  V30 17 1 17 18
M  V30 18 1 17 19
M  V30 19 1 19 20
M  V30 20 2 20 21
M  V30 21 1 21 22
M  V30 22 1 21 23
M  V30 23 2 23 24
M  V30 24 1 24 25
M  V30 25 2 25 26
M  V30 26 1 26 27
M  V30 27 2 19 28
M  V30 28 1 4 29
M  V30 29 1 29 30
M  V30 30 1 30 31
M  V30 31 1 30 32
M  V30 32 1 32 33
M  V30 33 2 33 34
M  V30 34 2 34 35
M  V30 35 1 32 2
M  V30 36 1 10 5
M  V30 37 1 28 14
M  V30 38 1 26 20
M  V30 39 1 1 36
M  V30 40 1 1 37
M  V30 41 1 1 38
M  V30 42 1 2 39 CFG=3
M  V30 43 1 3 40
M  V30 44 1 3 41
M  V30 45 1 6 42
M  V30 46 1 7 43
M  V30 47 1 9 44
M  V30 48 1 11 45
M  V30 49 1 15 46
M  V30 50 1 16 47
M  V30 51 1 23 48
M  V30 52 1 24 49
M  V30 53 1 25 50
M  V30 54 1 29 51
M  V30 55 1 29 52
M  V30 56 1 30 53 CFG=3
M  V30 57 1 31 54
M  V30 58 1 31 55
M  V30 59 1 32 56 CFG=3
M  V30 END BOND
M  V30 END CTAB
M  END
>  <Dataset>  (105) 
ChEMBL_Kinases

>  <Ligand_Instance>  (105) 
nan

>  <PDB_ID>  (105) 
nan

>  <Standardized_SMILES>  (105) 
C[C@H]1CN(c2ccncc2NC(=O)c2ccc(F)c(-c3c(F)cccc3F)n2)C[C@@H](N)[C@H]1N=[N+]=[N-]

>  <Name>  (105) 
nan

>  <Pocket>  (105) 
nan

>  <ATP_Site>  (105) 
nan

>  <Peripheral>  (105) 
nan

>  <Num_H_Atoms_ProtBoundConf>  (105) 
nan

>  <Num_Resolved_Atoms>  (105) 
nan

>  <Num_Not_Resolved_Atoms>  (105) 
nan

$$$$
CHEMBL254099
     RDKit          3D

  0  0  0  0  0  0  0  0  0  0999 V3000
M  V30 BEGIN CTAB
M  V30 COUNTS 72 78 0 0 0
M  V30 BEGIN ATOM
M  V30 1 C 5.606961 0.529988 7.263704 0
M  V30 2 S 6.689079 -0.062344 5.919806 0
M  V30 3 C 6.081992 0.620463 4.369227 0
M  V30 4 N 6.556953 1.810458 3.957638 0
M  V30 5 C 6.085840 2.311178 2.793421 0
M  V30 6 C 5.150785 1.608430 2.068389 0
M  V30 7 C 4.662137 2.106942 0.887253 0
M  V30 8 C 3.712859 1.389682 0.162266 0
M  V30 9 C 3.239941 1.985589 -1.088878 0
M  V30 10 C 3.473598 1.374152 -2.307471 0
M  V30 11 C 3.025073 1.939161 -3.472028 0
M  V30 12 C 2.327966 3.134074 -3.455608 0
M  V30 13 C 2.092828 3.745049 -2.254082 0
M  V30 14 C 2.542096 3.182885 -1.066386 0
M  V30 15 C 3.283740 0.169609 0.668602 0
M  V30 16 C 2.284483 -0.471946 -0.177183 0
M  V30 17 C 2.403072 -1.652290 -0.878782 0
M  V30 18 C 1.359060 -2.140147 -1.635351 0
M  V30 19 C 0.148832 -1.483427 -1.733148 0
M  V30 20 C -1.037880 -1.887081 -2.490099 0
M  V30 21 N -1.970612 -2.697915 -1.780780 0
M  V30 22 C -3.103345 -3.003027 -2.550917 0
M  V30 23 C -3.656402 -4.374590 -2.496807 0
M  V30 24 C -3.680783 -4.832870 -1.061609 0
M  V30 25 C -4.675753 -4.026539 -0.321307 0
M  V30 26 N -5.832747 -4.601823 0.093053 0
M  V30 27 N -6.548654 -3.692750 0.732487 0
M  V30 28 C -5.901903 -2.517221 0.759514 0
M  V30 29 C -6.317248 -1.258201 1.350004 0
M  V30 30 C -7.531124 -1.177799 1.999699 0
M  V30 31 C -7.913591 0.019078 2.561040 0
M  V30 32 C -7.096261 1.126057 2.476806 0
M  V30 33 C -5.894376 0.962523 1.807607 0
M  V30 34 N -5.462601 -0.197853 1.231894 0
M  V30 35 N -4.761573 -2.776463 0.100979 0
M  V30 36 C -2.304314 -4.792311 -0.517579 0
M  V30 37 C -1.420581 -3.701851 -0.963482 0
M  V30 38 C 0.058178 -0.289709 -1.011528 0
M  V30 39 C 1.084962 0.247659 -0.230961 0
M  V30 40 N 3.760024 -0.323459 1.826799 0
M  V30 41 C 4.689674 0.393259 2.523432 0
M  V30 42 N 5.165196 -0.085043 3.673754 0
M  V30 43 H 4.577854 0.653439 6.846197 0
M  V30 44 H 5.979672 1.438206 7.744128 0
M  V30 45 H 5.565231 -0.253079 8.028677 0
M  V30 46 H 6.438245 3.260752 2.427773 0
M  V30 47 H 5.005800 3.074337 0.492086 0
M  V30 48 H 4.022453 0.441379 -2.275666 0
M  V30 49 H 3.241331 1.410835 -4.385625 0
M  V30 50 H 1.980637 3.566082 -4.383950 0
M  V30 51 H 1.559244 4.664297 -2.210063 0
M  V30 52 H 2.333965 3.700319 -0.128107 0
M  V30 53 H 3.349578 -2.149454 -0.791765 0
M  V30 54 H 1.450901 -3.062401 -2.187388 0
M  V30 55 H -1.538538 -0.962629 -2.873938 0
M  V30 56 H -0.664632 -2.392827 -3.421138 0
M  V30 57 H -2.822298 -2.807477 -3.637584 0
M  V30 58 H -3.975146 -2.299171 -2.404424 0
M  V30 59 H -2.994325 -5.089169 -3.034898 0
M  V30 60 H -4.681460 -4.368514 -2.927555 0
M  V30 61 H -4.019507 -5.909312 -1.020017 0
M  V30 62 H -8.191657 -2.029514 2.080499 0
M  V30 63 H -8.839480 0.191692 3.088036 0
M  V30 64 H -7.303202 2.121752 2.886527 0
M  V30 65 H -5.225612 1.822062 1.723848 0
M  V30 66 H -4.031109 -2.067169 -0.049696 0
M  V30 67 H -2.407301 -4.783272 0.610687 0
M  V30 68 H -1.826616 -5.801154 -0.700368 0
M  V30 69 H -0.948634 -3.216389 -0.082508 0
M  V30 70 H -0.562485 -4.149597 -1.521440 0
M  V30 71 H -0.877474 0.289899 -1.042288 0
M  V30 72 H 0.911255 1.178368 0.287208 0
M  V30 END ATOM
M  V30 BEGIN BOND
M  V30 1 1 1 2
M  V30 2 1 2 3
M  V30 3 2 3 4
M  V30 4 1 4 5
M  V30 5 2 5 6
M  V30 6 1 6 7
M  V30 7 2 7 8
M  V30 8 1 8 9
M  V30 9 2 9 10
M  V30 10 1 10 11
M  V30 11 2 11 12
M  V30 12 1 12 13
M  V30 13 2 13 14
M  V30 14 1 8 15
M  V30 15 1 15 16
M  V30 16 2 16 17
M  V30 17 1 17 18
M  V30 18 2 18 19
M  V30 19 1 19 20
M  V30 20 1 20 21
M  V30 21 1 21 22
M  V30 22 1 22 23
M  V30 23 1 23 24
M  V30 24 1 24 25
M  V30 25 2 25 26
M  V30 26 1 26 27
M  V30 27 2 27 28
M  V30 28 1 28 29
M  V30 29 2 29 30
M  V30 30 1 30 31
M  V30 31 2 31 32
M  V30 32 1 32 33
M  V30 33 2 33 34
M  V30 34 1 28 35
M  V30 35 1 24 36
M  V30 36 1 36 37
M  V30 37 1 19 38
M  V30 38 2 38 39
M  V30 39 2 15 40
M  V30 40 1 40 41
M  V30 41 2 41 42
M  V30 42 1 42 3
M  V30 43 1 41 6
M  V30 44 1 14 9
M  V30 45 1 39 16
M  V30 46 1 37 21
M  V30 47 1 35 25
M  V30 48 1 34 29
M  V30 49 1 1 43
M  V30 50 1 1 44
M  V30 51 1 1 45
M  V30 52 1 5 46
M  V30 53 1 7 47
M  V30 54 1 10 48
M  V30 55 1 11 49
M  V30 56 1 12 50
M  V30 57 1 13 51
M  V30 58 1 14 52
M  V30 59 1 17 53
M  V30 60 1 18 54
M  V30 61 1 20 55
M  V30 62 1 20 56
M  V30 63 1 22 57
M  V30 64 1 22 58
M  V30 65 1 23 59
M  V30 66 1 23 60
M  V30 67 1 24 61
M  V30 68 1 30 62
M  V30 69 1 31 63
M  V30 70 1 32 64
M  V30 71 1 33 65
M  V30 72 1 35 66
M  V30 73 1 36 67
M  V30 74 1 36 68
M  V30 75 1 37 69
M  V30 76 1 37 70
M  V30 77 1 38 71
M  V30 78 1 39 72
M  V30 END BOND
M  V30 END CTAB
M  END
>  <Dataset>  (106) 
ChEMBL_Kinases

>  <Ligand_Instance>  (106) 
nan

>  <PDB_ID>  (106) 
nan

>  <Standardized_SMILES>  (106) 
CSc1ncc2cc(-c3ccccc3)c(-c3ccc(CN4CCC(c5nnc(-c6ccccn6)[nH]5)CC4)cc3)nc2n1

>  <Name>  (106) 
nan

>  <Pocket>  (106) 
nan

>  <ATP_Site>  (106) 
nan

>  <Peripheral>  (106) 
nan

>  <Num_H_Atoms_ProtBoundConf>  (106) 
nan

>  <Num_Resolved_Atoms>  (106) 
nan

>  <Num_Not_Resolved_Atoms>  (106) 
nan

$$$$
CHEMBL4436873
     RDKit          3D

  0  0  0  0  0  0  0  0  0  0999 V3000
M  V30 BEGIN CTAB
M  V30 COUNTS 46 48 0 0 0
M  V30 BEGIN ATOM
M  V30 1 C 0.216011 -4.028160 0.555013 0
M  V30 2 C 0.187237 -2.529146 0.605921 0
M  V30 3 C -0.274682 -2.083210 1.969497 0
M  V30 4 C 1.568970 -2.031973 0.338467 0
M  V30 5 O 2.524247 -2.528220 1.126600 0
M  V30 6 C 2.608032 -2.429951 2.458026 0
M  V30 7 C 3.945426 -3.074772 2.969481 0
M  V30 8 O 3.953739 -2.932843 4.337457 0
M  V30 9 N -0.749473 -1.993724 -0.407275 0
M  V30 10 C -1.013295 -0.599514 -0.508349 0
M  V30 11 N -0.438427 0.293866 0.313093 0
M  V30 12 C -0.648734 1.621188 0.276331 0
M  V30 13 C 0.023839 2.518562 1.213165 0
M  V30 14 C 0.878082 2.006360 2.136492 0
M  V30 15 C 1.469166 2.918012 2.978853 0
M  V30 16 N 1.246962 4.244856 2.930564 0
M  V30 17 C 0.393500 4.788966 2.013332 0
M  V30 18 C -0.211360 3.881568 1.155392 0
M  V30 19 N -1.503303 2.126965 -0.652373 0
M  V30 20 C -2.136638 1.305023 -1.531517 0
M  V30 21 C -3.013865 1.757641 -2.495773 0
M  V30 22 N -3.635168 0.936182 -3.360965 0
M  V30 23 C -3.387954 -0.396948 -3.281641 0
M  V30 24 C -2.512918 -0.854461 -2.320656 0
M  V30 25 C -1.869398 -0.037401 -1.429932 0
M  V30 26 H -0.528890 -4.502464 1.225371 0
M  V30 27 H 0.026499 -4.304257 -0.515244 0
M  V30 28 H 1.234530 -4.369723 0.873824 0
M  V30 29 H 0.344850 -1.296017 2.419208 0
M  V30 30 H -0.442904 -2.957129 2.612822 0
M  V30 31 H -1.332166 -1.680574 1.812408 0
M  V30 32 H 1.854948 -2.337288 -0.733034 0
M  V30 33 H 1.583819 -0.887494 0.346636 0
M  V30 34 H 1.799162 -2.974724 3.012098 0
M  V30 35 H 2.689621 -1.382262 2.809004 0
M  V30 36 H 4.801308 -2.547232 2.544012 0
M  V30 37 H 3.941154 -4.153022 2.719962 0
M  V30 38 H 3.317452 -3.547794 4.800099 0
M  V30 39 H -1.174965 -2.706540 -1.009515 0
M  V30 40 H 1.118539 0.970459 2.253234 0
M  V30 41 H 2.171896 2.683870 3.768394 0
M  V30 42 H 0.195580 5.850586 1.951112 0
M  V30 43 H -0.890227 4.326275 0.427715 0
M  V30 44 H -3.148059 2.832224 -2.482821 0
M  V30 45 H -3.903688 -1.027405 -3.991663 0
M  V30 46 H -2.390158 -1.914824 -2.344921 0
M  V30 END ATOM
M  V30 BEGIN BOND
M  V30 1 1 1 2
M  V30 2 1 2 3
M  V30 3 1 2 4
M  V30 4 1 4 5
M  V30 5 1 5 6
M  V30 6 1 6 7
M  V30 7 1 7 8
M  V30 8 1 2 9
M  V30 9 1 9 10
M  V30 10 2 10 11
M  V30 11 1 11 12
M  V30 12 1 12 13
M  V30 13 2 13 14
M  V30 14 1 14 15
M  V30 15 2 15 16
M  V30 16 1 16 17
M  V30 17 2 17 18
M  V30 18 2 12 19
M  V30 19 1 19 20
M  V30 20 2 20 21
M  V30 21 1 21 22
M  V30 22 2 22 23
M  V30 23 1 23 24
M  V30 24 2 24 25
M  V30 25 1 25 10
M  V30 26 1 18 13
M  V30 27 1 25 20
M  V30 28 1 1 26
M  V30 29 1 1 27
M  V30 30 1 1 28
M  V30 31 1 3 29
M  V30 32 1 3 30
M  V30 33 1 3 31
M  V30 34 1 4 32
M  V30 35 1 4 33
M  V30 36 1 6 34
M  V30 37 1 6 35
M  V30 38 1 7 36
M  V30 39 1 7 37
M  V30 40 1 8 38
M  V30 41 1 9 39
M  V30 42 1 14 40
M  V30 43 1 15 41
M  V30 44 1 17 42
M  V30 45 1 18 43
M  V30 46 1 21 44
M  V30 47 1 23 45
M  V30 48 1 24 46
M  V30 END BOND
M  V30 END CTAB
M  END
>  <Dataset>  (107) 
ChEMBL_Kinases

>  <Ligand_Instance>  (107) 
nan

>  <PDB_ID>  (107) 
nan

>  <Standardized_SMILES>  (107) 
CC(C)(COCCO)Nc1nc(-c2ccncc2)nc2cnccc12

>  <Name>  (107) 
nan

>  <Pocket>  (107) 
nan

>  <ATP_Site>  (107) 
nan

>  <Peripheral>  (107) 
nan

>  <Num_H_Atoms_ProtBoundConf>  (107) 
nan

>  <Num_Resolved_Atoms>  (107) 
nan

>  <Num_Not_Resolved_Atoms>  (107) 
nan

$$$$
CHEMBL4436862
     RDKit          3D

  0  0  0  0  0  0  0  0  0  0999 V3000
M  V30 BEGIN CTAB
M  V30 COUNTS 29 31 0 0 0
M  V30 BEGIN ATOM
M  V30 1 O 0.578200 -1.930545 2.406873 0
M  V30 2 C 1.818973 -2.215024 2.529699 0
M  V30 3 N 2.305983 -2.533208 3.848022 0
M  V30 4 C 3.693960 -2.798088 3.653649 0
M  V30 5 S 4.849710 -3.219675 4.730993 0
M  V30 6 N 4.025133 -2.646844 2.282399 0
M  V30 7 C 2.871227 -2.279644 1.539241 0
M  V30 8 C 2.717614 -2.027406 0.249194 0
M  V30 9 C 1.439992 -1.638646 -0.346378 0
M  V30 10 C 0.704809 -2.070154 -1.429497 0
M  V30 11 C -0.458692 -1.323097 -1.536930 0
M  V30 12 C -0.353608 -0.452564 -0.475707 0
M  V30 13 C -1.333714 0.570236 -0.129585 0
M  V30 14 C -1.090556 1.408224 0.960667 0
M  V30 15 C -2.020585 2.381554 1.299248 0
M  V30 16 C -3.203976 2.561885 0.590175 0
M  V30 17 Cl -4.377323 3.804555 1.033304 0
M  V30 18 C -3.438109 1.714040 -0.504324 0
M  V30 19 Cl -4.924898 1.897142 -1.430846 0
M  V30 20 C -2.523008 0.747421 -0.847755 0
M  V30 21 O 0.745889 -0.641364 0.207830 0
M  V30 22 H 1.872903 -2.598181 4.787242 0
M  V30 23 H 4.977203 -2.770455 1.810145 0
M  V30 24 H 3.664078 -2.135700 -0.313985 0
M  V30 25 H 1.061355 -2.871613 -2.042305 0
M  V30 26 H -1.226887 -1.436655 -2.289877 0
M  V30 27 H -0.182938 1.344896 1.588717 0
M  V30 28 H -1.817645 3.035062 2.155167 0
M  V30 29 H -2.652195 0.071447 -1.676682 0
M  V30 END ATOM
M  V30 BEGIN BOND
M  V30 1 2 1 2
M  V30 2 1 2 3
M  V30 3 1 3 4
M  V30 4 2 4 5
M  V30 5 1 4 6
M  V30 6 1 6 7
M  V30 7 2 7 8
M  V30 8 1 8 9
M  V30 9 2 9 10
M  V30 10 1 10 11
M  V30 11 2 11 12
M  V30 12 1 12 13
M  V30 13 2 13 14
M  V30 14 1 14 15
M  V30 15 2 15 16
M  V30 16 1 16 17
M  V30 17 1 16 18
M  V30 18 1 18 19
M  V30 19 2 18 20
M  V30 20 1 12 21
M  V30 21 1 7 2
M  V30 22 1 21 9
M  V30 23 1 20 13
M  V30 24 1 3 22
M  V30 25 1 6 23
M  V30 26 1 8 24
M  V30 27 1 10 25
M  V30 28 1 11 26
M  V30 29 1 14 27
M  V30 30 1 15 28
M  V30 31 1 20 29
M  V30 END BOND
M  V30 END CTAB
M  END
>  <Dataset>  (108) 
ChEMBL_Kinases

>  <Ligand_Instance>  (108) 
nan

>  <PDB_ID>  (108) 
nan

>  <Standardized_SMILES>  (108) 
O=C1NC(=S)N/C1=C/c1ccc(-c2ccc(Cl)c(Cl)c2)o1

>  <Name>  (108) 
nan

>  <Pocket>  (108) 
nan

>  <ATP_Site>  (108) 
nan

>  <Peripheral>  (108) 
nan

>  <Num_H_Atoms_ProtBoundConf>  (108) 
nan

>  <Num_Resolved_Atoms>  (108) 
nan

>  <Num_Not_Resolved_Atoms>  (108) 
nan

$$$$
CHEMBL3687496
     RDKit          3D

  0  0  0  0  0  0  0  0  0  0999 V3000
M  V30 BEGIN CTAB
M  V30 COUNTS 63 66 0 0 0
M  V30 BEGIN ATOM
M  V30 1 C 2.854633 -0.232632 3.857492 0
M  V30 2 C 2.518677 -0.899485 2.553296 0 CFG=2
M  V30 3 C 2.959145 -0.084420 1.356898 0
M  V30 4 C 2.941272 -0.881363 0.081497 0 CFG=2
M  V30 5 C 3.121793 -0.034055 -1.104312 0
M  V30 6 C 4.344080 0.222008 -1.705887 0
M  V30 7 C 4.534152 1.001943 -2.804144 0
M  V30 8 N 3.494814 1.604458 -3.405936 0
M  V30 9 C 2.271932 1.404029 -2.879672 0
M  V30 10 C 2.091865 0.606451 -1.759645 0
M  V30 11 N 0.733125 0.530855 -1.368282 0
M  V30 12 C -0.136657 1.280331 -0.477138 0
M  V30 13 O 0.354223 2.277792 0.162675 0
M  V30 14 C -1.509436 0.832664 -0.383778 0
M  V30 15 C -2.302827 1.574655 0.472406 0
M  V30 16 C -3.630861 1.329230 0.710477 0
M  V30 17 C -4.213869 0.266553 0.047767 0
M  V30 18 F -5.520276 -0.107953 0.174984 0
M  V30 19 C -3.383179 -0.445696 -0.796744 0
M  V30 20 C -3.953323 -1.586220 -1.526485 0
M  V30 21 C -3.968784 -2.889109 -1.042388 0
M  V30 22 F -3.426318 -3.122084 0.173291 0
M  V30 23 C -4.533683 -3.879829 -1.820165 0
M  V30 24 C -5.090566 -3.622314 -3.075886 0
M  V30 25 C -5.046396 -2.312156 -3.503404 0
M  V30 26 C -4.490719 -1.300228 -2.753114 0
M  V30 27 F -4.505414 -0.051938 -3.278155 0
M  V30 28 N -2.079956 -0.180025 -1.010413 0
M  V30 29 C 1.953534 -1.914636 0.138041 0
M  V30 30 C 1.015136 -2.203905 1.222903 0 CFG=2
M  V30 31 N -0.349089 -2.249004 0.692984 0
M  V30 32 C 1.081544 -1.293118 2.432223 0 CFG=2
M  V30 33 O 0.169055 -0.287640 2.375168 0
M  V30 34 C -0.844576 -0.277436 3.272292 0
M  V30 35 C -0.377455 -0.161401 4.677645 0
M  V30 36 C -1.565358 -0.148883 5.564097 0
M  V30 37 N -2.487974 -0.137841 6.270021 0
M  V30 38 H 2.654288 -0.962864 4.668367 0
M  V30 39 H 3.980162 -0.090633 3.915199 0
M  V30 40 H 2.350148 0.733664 3.998956 0
M  V30 41 H 3.067728 -1.865764 2.587930 0
M  V30 42 H 3.999026 0.245116 1.572811 0
M  V30 43 H 2.413253 0.874999 1.281273 0
M  V30 44 H 3.961953 -1.417029 0.137610 0
M  V30 45 H 5.230993 -0.249062 -1.251146 0
M  V30 46 H 5.539822 1.133285 -3.191610 0
M  V30 47 H 1.479868 1.915742 -3.409593 0
M  V30 48 H 0.337530 -0.254581 -1.883372 0
M  V30 49 H -1.917688 2.435999 1.038258 0
M  V30 50 H -4.234819 1.902125 1.368763 0
M  V30 51 H -4.552128 -4.913234 -1.449107 0
M  V30 52 H -5.519082 -4.439160 -3.640147 0
M  V30 53 H -5.479113 -2.126551 -4.473529 0
M  V30 54 H 2.554456 -2.908265 0.048983 0
M  V30 55 H 1.425337 -2.083528 -0.897569 0
M  V30 56 H 1.117406 -3.259198 1.642720 0
M  V30 57 H -0.265494 -2.772948 -0.208905 0
M  V30 58 H -0.993385 -2.778397 1.296236 0
M  V30 59 H 0.818070 -1.926687 3.303592 0
M  V30 60 H -1.549063 0.589480 3.084303 0
M  V30 61 H -1.529227 -1.178335 3.155463 0
M  V30 62 H 0.298418 -0.976308 4.948470 0
M  V30 63 H 0.133813 0.811968 4.835725 0
M  V30 END ATOM
M  V30 BEGIN BOND
M  V30 1 1 1 2
M  V30 2 1 2 3
M  V30 3 1 3 4
M  V30 4 1 4 5
M  V30 5 2 5 6
M  V30 6 1 6 7
M  V30 7 2 7 8
M  V30 8 1 8 9
M  V30 9 2 9 10
M  V30 10 1 10 11
M  V30 11 1 11 12
M  V30 12 2 12 13
M  V30 13 1 12 14
M  V30 14 2 14 15
M  V30 15 1 15 16
M  V30 16 2 16 17
M  V30 17 1 17 18
M  V30 18 1 17 19
M  V30 19 1 19 20
M  V30 20 2 20 21
M  V30 21 1 21 22
M  V30 22 1 21 23
M  V30 23 2 23 24
M  V30 24 1 24 25
M  V30 25 2 25 26
M  V30 26 1 26 27
M  V30 27 2 19 28
M  V30 28 1 4 29
M  V30 29 1 29 30
M  V30 30 1 30 31
M  V30 31 1 30 32
M  V30 32 1 32 33
M  V30 33 1 33 34
M  V30 34 1 34 35
M  V30 35 1 35 36
M  V30 36 3 36 37
M  V30 37 1 32 2
M  V30 38 1 10 5
M  V30 39 1 28 14
M  V30 40 1 26 20
M  V30 41 1 1 38
M  V30 42 1 1 39
M  V30 43 1 1 40
M  V30 44 1 2 41 CFG=1
M  V30 45 1 3 42
M  V30 46 1 3 43
M  V30 47 1 4 44 CFG=1
M  V30 48 1 6 45
M  V30 49 1 7 46
M  V30 50 1 9 47
M  V30 51 1 11 48
M  V30 52 1 15 49
M  V30 53 1 16 50
M  V30 54 1 23 51
M  V30 55 1 24 52
M  V30 56 1 25 53
M  V30 57 1 29 54
M  V30 58 1 29 55
M  V30 59 1 30 56 CFG=1
M  V30 60 1 31 57
M  V30 61 1 31 58
M  V30 62 1 32 59 CFG=1
M  V30 63 1 34 60
M  V30 64 1 34 61
M  V30 65 1 35 62
M  V30 66 1 35 63
M  V30 END BOND
M  V30 END CTAB
M  END
>  <Dataset>  (109) 
ChEMBL_Kinases

>  <Ligand_Instance>  (109) 
nan

>  <PDB_ID>  (109) 
nan

>  <Standardized_SMILES>  (109) 
C[C@@H]1C[C@H](c2ccncc2NC(=O)c2ccc(F)c(-c3c(F)cccc3F)n2)C[C@H](N)[C@@H]1OCCC#N

>  <Name>  (109) 
nan

>  <Pocket>  (109) 
nan

>  <ATP_Site>  (109) 
nan

>  <Peripheral>  (109) 
nan

>  <Num_H_Atoms_ProtBoundConf>  (109) 
nan

>  <Num_Resolved_Atoms>  (109) 
nan

>  <Num_Not_Resolved_Atoms>  (109) 
nan

$$$$
CHEMBL3687495
     RDKit          3D

  0  0  0  0  0  0  0  0  0  0999 V3000
M  V30 BEGIN CTAB
M  V30 COUNTS 63 66 0 0 0
M  V30 BEGIN ATOM
M  V30 1 C 2.375961 -1.986221 1.779275 0
M  V30 2 C 2.559188 -2.054167 0.261966 0 CFG=1
M  V30 3 C 1.312312 -2.674169 -0.284212 0
M  V30 4 C 0.995758 -2.200719 -1.685785 0 CFG=1
M  V30 5 C -0.149265 -2.874785 -2.256943 0
M  V30 6 C 0.020307 -4.047911 -3.008876 0
M  V30 7 C -0.984776 -4.784414 -3.599915 0
M  V30 8 N -2.249247 -4.357843 -3.455182 0
M  V30 9 C -2.500982 -3.259850 -2.761510 0
M  V30 10 C -1.477401 -2.534082 -2.175653 0
M  V30 11 N -1.885177 -1.388207 -1.459758 0
M  V30 12 C -2.142887 -0.002748 -1.718847 0
M  V30 13 O -2.015495 0.509239 -2.868688 0
M  V30 14 C -2.562819 0.755956 -0.544127 0
M  V30 15 C -2.812873 2.095217 -0.745604 0
M  V30 16 C -3.216393 2.885928 0.311464 0
M  V30 17 C -3.370198 2.337384 1.571626 0
M  V30 18 F -3.756125 2.967046 2.710632 0
M  V30 19 C -3.111773 0.988719 1.744114 0
M  V30 20 C -3.202014 0.182946 2.958406 0
M  V30 21 C -4.473394 -0.377086 3.124188 0
M  V30 22 F -5.510959 -0.198426 2.262598 0
M  V30 23 C -4.692103 -1.171034 4.247028 0
M  V30 24 C -3.686813 -1.396160 5.163826 0
M  V30 25 C -2.424750 -0.833586 4.988889 0
M  V30 26 C -2.201378 -0.047476 3.880914 0
M  V30 27 F -1.070187 0.595990 3.505884 0
M  V30 28 N -2.723378 0.250945 0.703471 0
M  V30 29 C 1.011521 -0.706679 -1.720422 0
M  V30 30 C 2.494297 -0.321751 -1.590775 0 CFG=1
M  V30 31 N 2.625175 1.102542 -1.761099 0
M  V30 32 C 2.927283 -0.714828 -0.222503 0 CFG=1
M  V30 33 O 2.486702 0.253985 0.709754 0
M  V30 34 C 3.593105 0.878221 1.277841 0
M  V30 35 C 3.240921 1.932531 2.293782 0
M  V30 36 C 2.484351 1.372060 3.410365 0
M  V30 37 N 1.894564 0.936406 4.311330 0
M  V30 38 H 1.819457 -1.044098 1.959358 0
M  V30 39 H 1.729506 -2.838220 2.089329 0
M  V30 40 H 3.319741 -2.005586 2.330495 0
M  V30 41 H 3.425875 -2.763490 0.125000 0
M  V30 42 H 1.471096 -3.770929 -0.344153 0
M  V30 43 H 0.461850 -2.531913 0.406270 0
M  V30 44 H 1.904494 -2.517100 -2.290980 0
M  V30 45 H 1.032891 -4.442552 -3.159478 0
M  V30 46 H -0.773217 -5.666269 -4.156034 0
M  V30 47 H -3.536700 -2.961481 -2.676482 0
M  V30 48 H -1.995804 -1.805078 -0.486172 0
M  V30 49 H -2.697401 2.540365 -1.725536 0
M  V30 50 H -3.432007 3.933627 0.243826 0
M  V30 51 H -5.658519 -1.624936 4.417106 0
M  V30 52 H -3.791710 -2.007298 6.063857 0
M  V30 53 H -1.563075 -0.936777 5.633963 0
M  V30 54 H 0.582475 -0.290407 -2.639976 0
M  V30 55 H 0.562758 -0.287937 -0.790785 0
M  V30 56 H 3.081912 -0.879667 -2.347394 0
M  V30 57 H 3.553658 1.270128 -2.206825 0
M  V30 58 H 1.831377 1.531440 -2.274770 0
M  V30 59 H 4.059511 -0.634155 -0.146585 0
M  V30 60 H 4.077058 1.428851 0.422355 0
M  V30 61 H 4.248476 0.107510 1.691604 0
M  V30 62 H 2.653274 2.763600 1.845257 0
M  V30 63 H 4.176500 2.386829 2.679588 0
M  V30 END ATOM
M  V30 BEGIN BOND
M  V30 1 1 1 2
M  V30 2 1 2 3
M  V30 3 1 3 4
M  V30 4 1 4 5
M  V30 5 2 5 6
M  V30 6 1 6 7
M  V30 7 2 7 8
M  V30 8 1 8 9
M  V30 9 2 9 10
M  V30 10 1 10 11
M  V30 11 1 11 12
M  V30 12 2 12 13
M  V30 13 1 12 14
M  V30 14 2 14 15
M  V30 15 1 15 16
M  V30 16 2 16 17
M  V30 17 1 17 18
M  V30 18 1 17 19
M  V30 19 1 19 20
M  V30 20 2 20 21
M  V30 21 1 21 22
M  V30 22 1 21 23
M  V30 23 2 23 24
M  V30 24 1 24 25
M  V30 25 2 25 26
M  V30 26 1 26 27
M  V30 27 2 19 28
M  V30 28 1 4 29
M  V30 29 1 29 30
M  V30 30 1 30 31
M  V30 31 1 30 32
M  V30 32 1 32 33
M  V30 33 1 33 34
M  V30 34 1 34 35
M  V30 35 1 35 36
M  V30 36 3 36 37
M  V30 37 1 32 2
M  V30 38 1 10 5
M  V30 39 1 28 14
M  V30 40 1 26 20
M  V30 41 1 1 38
M  V30 42 1 1 39
M  V30 43 1 1 40
M  V30 44 1 2 41 CFG=1
M  V30 45 1 3 42
M  V30 46 1 3 43
M  V30 47 1 4 44 CFG=3
M  V30 48 1 6 45
M  V30 49 1 7 46
M  V30 50 1 9 47
M  V30 51 1 11 48
M  V30 52 1 15 49
M  V30 53 1 16 50
M  V30 54 1 23 51
M  V30 55 1 24 52
M  V30 56 1 25 53
M  V30 57 1 29 54
M  V30 58 1 29 55
M  V30 59 1 30 56 CFG=3
M  V30 60 1 31 57
M  V30 61 1 31 58
M  V30 62 1 32 59 CFG=3
M  V30 63 1 34 60
M  V30 64 1 34 61
M  V30 65 1 35 62
M  V30 66 1 35 63
M  V30 END BOND
M  V30 END CTAB
M  END
>  <Dataset>  (110) 
ChEMBL_Kinases

>  <Ligand_Instance>  (110) 
nan

>  <PDB_ID>  (110) 
nan

>  <Standardized_SMILES>  (110) 
C[C@H]1C[C@@H](c2ccncc2NC(=O)c2ccc(F)c(-c3c(F)cccc3F)n2)C[C@@H](N)[C@H]1OCCC#N

>  <Name>  (110) 
nan

>  <Pocket>  (110) 
nan

>  <ATP_Site>  (110) 
nan

>  <Peripheral>  (110) 
nan

>  <Num_H_Atoms_ProtBoundConf>  (110) 
nan

>  <Num_Resolved_Atoms>  (110) 
nan

>  <Num_Not_Resolved_Atoms>  (110) 
nan

$$$$
CHEMBL255360
     RDKit          3D

  0  0  0  0  0  0  0  0  0  0999 V3000
M  V30 BEGIN CTAB
M  V30 COUNTS 68 74 0 0 0
M  V30 BEGIN ATOM
M  V30 1 N 7.396935 -0.247860 1.476518 0
M  V30 2 C 6.357766 -1.237512 1.535094 0
M  V30 3 N 6.686698 -2.545378 1.685545 0
M  V30 4 C 5.699739 -3.463176 1.739218 0
M  V30 5 N 4.403688 -3.120156 1.648100 0
M  V30 6 C 4.038195 -1.830873 1.497925 0
M  V30 7 N 2.745822 -1.477738 1.407007 0
M  V30 8 C 2.334923 -0.184627 1.255933 0
M  V30 9 C 0.935766 0.208115 1.170260 0
M  V30 10 C 0.168127 0.793486 0.187786 0
M  V30 11 C -1.165181 1.055356 0.395993 0
M  V30 12 C -1.837246 0.767469 1.564193 0
M  V30 13 C -3.250551 1.046091 1.804099 0
M  V30 14 N -4.187356 0.058084 1.423597 0
M  V30 15 C -4.066192 -1.236470 1.978831 0
M  V30 16 C -3.552210 -2.214176 0.930706 0
M  V30 17 C -4.685412 -2.445716 -0.041830 0
M  V30 18 N -4.172391 -3.098837 -1.229716 0
M  V30 19 C -4.983001 -3.181536 -2.324000 0
M  V30 20 N -4.341290 -3.813766 -3.321348 0
M  V30 21 C -3.121210 -4.147726 -2.898202 0
M  V30 22 C -1.999334 -4.784087 -3.389732 0
M  V30 23 N -2.031839 -5.267544 -4.716251 0
M  V30 24 N -0.909128 -4.934473 -2.617424 0
M  V30 25 C -0.859853 -4.474653 -1.335706 0
M  V30 26 N -1.952359 -3.841347 -0.820292 0
M  V30 27 C -3.029948 -3.700371 -1.604783 0
M  V30 28 C -5.355245 -1.140644 -0.366879 0
M  V30 29 C -4.513621 0.051923 0.040132 0
M  V30 30 C -1.052278 0.172159 2.559772 0
M  V30 31 C 0.309691 -0.110268 2.386169 0
M  V30 32 C 3.305728 0.788201 1.195551 0
M  V30 33 C 3.110506 2.219886 1.028980 0
M  V30 34 C 2.781505 2.953308 -0.090181 0
M  V30 35 C 2.631857 4.320925 -0.053593 0
M  V30 36 C 2.816285 4.987233 1.140151 0
M  V30 37 C 3.146637 4.310754 2.294287 0
M  V30 38 C 3.286215 2.942504 2.212770 0
M  V30 39 C 4.652406 0.434159 1.288854 0
M  V30 40 C 5.034507 -0.874660 1.440756 0
M  V30 41 H 7.766517 0.450697 0.783004 0
M  V30 42 H 8.005190 -0.129235 2.337971 0
M  V30 43 H 6.043648 -4.496659 1.862457 0
M  V30 44 H 0.750876 0.981524 -0.685415 0
M  V30 45 H -1.686070 1.516096 -0.422291 0
M  V30 46 H -3.378872 1.209908 2.916797 0
M  V30 47 H -3.516637 2.022191 1.321560 0
M  V30 48 H -5.106083 -1.613147 2.215252 0
M  V30 49 H -3.497537 -1.344880 2.899764 0
M  V30 50 H -3.271297 -3.175835 1.425759 0
M  V30 51 H -2.689653 -1.851054 0.368000 0
M  V30 52 H -5.410707 -3.152167 0.439046 0
M  V30 53 H -5.997792 -2.829881 -2.478872 0
M  V30 54 H -1.280241 -5.769182 -5.207653 0
M  V30 55 H -2.847571 -5.153957 -5.331796 0
M  V30 56 H 0.075049 -4.660429 -0.824850 0
M  V30 57 H -5.584878 -1.023656 -1.441231 0
M  V30 58 H -6.328099 -1.068077 0.174087 0
M  V30 59 H -3.647990 0.178918 -0.630564 0
M  V30 60 H -5.175559 0.949185 -0.132274 0
M  V30 61 H -1.576893 -0.059874 3.496090 0
M  V30 62 H 0.745479 -0.572637 3.272638 0
M  V30 63 H 2.663990 2.345057 -0.974130 0
M  V30 64 H 2.370434 4.759307 -1.017632 0
M  V30 65 H 2.676140 6.071142 1.070336 0
M  V30 66 H 3.281377 4.870243 3.203848 0
M  V30 67 H 3.547568 2.481489 3.167835 0
M  V30 68 H 5.475035 1.147988 1.248743 0
M  V30 END ATOM
M  V30 BEGIN BOND
M  V30 1 1 1 2
M  V30 2 2 2 3
M  V30 3 1 3 4
M  V30 4 2 4 5
M  V30 5 1 5 6
M  V30 6 2 6 7
M  V30 7 1 7 8
M  V30 8 1 8 9
M  V30 9 2 9 10
M  V30 10 1 10 11
M  V30 11 2 11 12
M  V30 12 1 12 13
M  V30 13 1 13 14
M  V30 14 1 14 15
M  V30 15 1 15 16
M  V30 16 1 16 17
M  V30 17 1 17 18
M  V30 18 1 18 19
M  V30 19 2 19 20
M  V30 20 1 20 21
M  V30 21 2 21 22
M  V30 22 1 22 23
M  V30 23 1 22 24
M  V30 24 2 24 25
M  V30 25 1 25 26
M  V30 26 2 26 27
M  V30 27 1 17 28
M  V30 28 1 28 29
M  V30 29 1 12 30
M  V30 30 2 30 31
M  V30 31 2 8 32
M  V30 32 1 32 33
M  V30 33 2 33 34
M  V30 34 1 34 35
M  V30 35 2 35 36
M  V30 36 1 36 37
M  V30 37 2 37 38
M  V30 38 1 32 39
M  V30 39 2 39 40
M  V30 40 1 40 2
M  V30 41 1 40 6
M  V30 42 1 31 9
M  V30 43 1 38 33
M  V30 44 1 29 14
M  V30 45 1 27 18
M  V30 46 1 27 21
M  V30 47 1 1 41
M  V30 48 1 1 42
M  V30 49 1 4 43
M  V30 50 1 10 44
M  V30 51 1 11 45
M  V30 52 1 13 46
M  V30 53 1 13 47
M  V30 54 1 15 48
M  V30 55 1 15 49
M  V30 56 1 16 50
M  V30 57 1 16 51
M  V30 58 1 17 52
M  V30 59 1 19 53
M  V30 60 1 23 54
M  V30 61 1 23 55
M  V30 62 1 25 56
M  V30 63 1 28 57
M  V30 64 1 28 58
M  V30 65 1 29 59
M  V30 66 1 29 60
M  V30 67 1 30 61
M  V30 68 1 31 62
M  V30 69 1 34 63
M  V30 70 1 35 64
M  V30 71 1 36 65
M  V30 72 1 37 66
M  V30 73 1 38 67
M  V30 74 1 39 68
M  V30 END BOND
M  V30 END CTAB
M  END
>  <Dataset>  (111) 
ChEMBL_Kinases

>  <Ligand_Instance>  (111) 
nan

>  <PDB_ID>  (111) 
nan

>  <Standardized_SMILES>  (111) 
Nc1ncnc2nc(-c3ccc(CN4CCC(n5cnc6c(N)ncnc65)CC4)cc3)c(-c3ccccc3)cc12

>  <Name>  (111) 
nan

>  <Pocket>  (111) 
nan

>  <ATP_Site>  (111) 
nan

>  <Peripheral>  (111) 
nan

>  <Num_H_Atoms_ProtBoundConf>  (111) 
nan

>  <Num_Resolved_Atoms>  (111) 
nan

>  <Num_Not_Resolved_Atoms>  (111) 
nan

$$$$
CHEMBL3702065
     RDKit          3D

  0  0  0  0  0  0  0  0  0  0999 V3000
M  V30 BEGIN CTAB
M  V30 COUNTS 70 76 0 0 0
M  V30 BEGIN ATOM
M  V30 1 C 4.930785 -3.501639 2.683468 0
M  V30 2 N 5.232376 -2.295123 1.942565 0
M  V30 3 C 6.235841 -1.550960 2.697400 0
M  V30 4 C 5.833204 -2.606941 0.642390 0
M  V30 5 C 4.910833 -3.443505 -0.195522 0
M  V30 6 C 4.420642 -2.756352 -1.446040 0
M  V30 7 C 5.542010 -2.570534 -2.457364 0
M  V30 8 C 5.858197 -1.079885 -2.398415 0
M  V30 9 C 5.360537 -0.753701 -1.002740 0
M  V30 10 C 6.306467 -1.355835 -0.014030 0
M  V30 11 N 4.066582 -1.411019 -1.029264 0
M  V30 12 C 2.746342 -0.965926 -0.744564 0
M  V30 13 C 1.634717 -1.787199 -0.844737 0
M  V30 14 C 0.407351 -1.238840 -0.542001 0
M  V30 15 C 0.169031 0.056812 -0.145256 0
M  V30 16 N -1.092063 0.617431 0.164631 0
M  V30 17 C -2.354077 -0.024419 0.131206 0
M  V30 18 N -2.599826 -1.297060 -0.204392 0
M  V30 19 C -3.774799 -1.901578 -0.237793 0
M  V30 20 C -4.878963 -1.175930 0.101802 0
M  V30 21 C -6.227823 -1.422158 0.192192 0
M  V30 22 C -6.957961 -2.566127 -0.048991 0
M  V30 23 C -8.325646 -2.509513 0.130236 0
M  V30 24 N -8.878373 -1.349801 0.528937 0
M  V30 25 C -8.189267 -0.224560 0.769574 0
M  V30 26 C -6.830471 -0.242560 0.602348 0
M  V30 27 N -5.864361 0.700788 0.757366 0
M  V30 28 C -6.110476 2.047709 1.172387 0
M  V30 29 C -5.183071 2.538942 2.242412 0
M  V30 30 C -4.797722 3.948711 1.881889 0
M  V30 31 C -5.503131 4.301006 0.594906 0
M  V30 32 C -6.027964 3.010189 0.007971 0
M  V30 33 C -4.678375 0.138393 0.454735 0
M  V30 34 N -3.450585 0.672014 0.461537 0
M  V30 35 N 1.284989 0.799110 -0.067856 0
M  V30 36 C 2.511928 0.333506 -0.347135 0
M  V30 37 H 5.330989 -3.449827 3.718615 0
M  V30 38 H 5.335551 -4.414950 2.219265 0
M  V30 39 H 3.809454 -3.556127 2.803888 0
M  V30 40 H 5.952042 -0.481987 2.713273 0
M  V30 41 H 6.295353 -1.949963 3.750500 0
M  V30 42 H 7.250779 -1.655645 2.294862 0
M  V30 43 H 6.715537 -3.240395 0.876766 0
M  V30 44 H 4.015398 -3.675949 0.418315 0
M  V30 45 H 5.332774 -4.458400 -0.445152 0
M  V30 46 H 3.586827 -3.337625 -1.854085 0
M  V30 47 H 6.423750 -3.166753 -2.132351 0
M  V30 48 H 5.167658 -2.880350 -3.450800 0
M  V30 49 H 6.942699 -0.890833 -2.526781 0
M  V30 50 H 5.226598 -0.570347 -3.159511 0
M  V30 51 H 5.212086 0.342340 -0.873638 0
M  V30 52 H 6.493259 -0.565877 0.749985 0
M  V30 53 H 7.294840 -1.498169 -0.499846 0
M  V30 54 H 1.750941 -2.814123 -1.150563 0
M  V30 55 H -0.412501 -1.923973 -0.639032 0
M  V30 56 H -1.079675 1.627536 0.452020 0
M  V30 57 H -3.892235 -2.941959 -0.522068 0
M  V30 58 H -6.478411 -3.480971 -0.368661 0
M  V30 59 H -8.869475 -3.419678 -0.065629 0
M  V30 60 H -8.689693 0.687073 1.090663 0
M  V30 61 H -7.162349 2.151251 1.562854 0
M  V30 62 H -4.307101 1.868624 2.322547 0
M  V30 63 H -5.664969 2.506174 3.258904 0
M  V30 64 H -3.701873 4.086503 1.752886 0
M  V30 65 H -5.134276 4.676502 2.664851 0
M  V30 66 H -6.352456 4.997442 0.781106 0
M  V30 67 H -4.820705 4.824713 -0.106589 0
M  V30 68 H -7.025237 3.216337 -0.445720 0
M  V30 69 H -5.341634 2.617433 -0.749499 0
M  V30 70 H 3.350950 1.004204 -0.256720 0
M  V30 END ATOM
M  V30 BEGIN BOND
M  V30 1 1 1 2
M  V30 2 1 2 3
M  V30 3 1 2 4
M  V30 4 1 4 5
M  V30 5 1 5 6
M  V30 6 1 6 7
M  V30 7 1 7 8
M  V30 8 1 8 9
M  V30 9 1 9 10
M  V30 10 1 9 11
M  V30 11 1 11 12
M  V30 12 2 12 13
M  V30 13 1 13 14
M  V30 14 2 14 15
M  V30 15 1 15 16
M  V30 16 1 16 17
M  V30 17 2 17 18
M  V30 18 1 18 19
M  V30 19 2 19 20
M  V30 20 1 20 21
M  V30 21 2 21 22
M  V30 22 1 22 23
M  V30 23 2 23 24
M  V30 24 1 24 25
M  V30 25 2 25 26
M  V30 26 1 26 27
M  V30 27 1 27 28
M  V30 28 1 28 29
M  V30 29 1 29 30
M  V30 30 1 30 31
M  V30 31 1 31 32
M  V30 32 1 27 33
M  V30 33 2 33 34
M  V30 34 1 15 35
M  V30 35 2 35 36
M  V30 36 1 10 4
M  V30 37 1 36 12
M  V30 38 1 11 6
M  V30 39 1 34 17
M  V30 40 1 33 20
M  V30 41 1 26 21
M  V30 42 1 32 28
M  V30 43 1 1 37
M  V30 44 1 1 38
M  V30 45 1 1 39
M  V30 46 1 3 40
M  V30 47 1 3 41
M  V30 48 1 3 42
M  V30 49 1 4 43
M  V30 50 1 5 44
M  V30 51 1 5 45
M  V30 52 1 6 46
M  V30 53 1 7 47
M  V30 54 1 7 48
M  V30 55 1 8 49
M  V30 56 1 8 50
M  V30 57 1 9 51
M  V30 58 1 10 52
M  V30 59 1 10 53
M  V30 60 1 13 54
M  V30 61 1 14 55
M  V30 62 1 16 56
M  V30 63 1 19 57
M  V30 64 1 22 58
M  V30 65 1 23 59
M  V30 66 1 25 60
M  V30 67 1 28 61
M  V30 68 1 29 62
M  V30 69 1 29 63
M  V30 70 1 30 64
M  V30 71 1 30 65
M  V30 72 1 31 66
M  V30 73 1 31 67
M  V30 74 1 32 68
M  V30 75 1 32 69
M  V30 76 1 36 70
M  V30 END BOND
M  V30 END CTAB
M  END
>  <Dataset>  (112) 
ChEMBL_Kinases

>  <Ligand_Instance>  (112) 
nan

>  <PDB_ID>  (112) 
nan

>  <Standardized_SMILES>  (112) 
CN(C)C1CC2CCC(C1)N2c1ccc(Nc2ncc3c4ccncc4n(C4CCCC4)c3n2)nc1

>  <Name>  (112) 
nan

>  <Pocket>  (112) 
nan

>  <ATP_Site>  (112) 
nan

>  <Peripheral>  (112) 
nan

>  <Num_H_Atoms_ProtBoundConf>  (112) 
nan

>  <Num_Resolved_Atoms>  (112) 
nan

>  <Num_Not_Resolved_Atoms>  (112) 
nan

$$$$
CHEMBL3702064
     RDKit          3D

  0  0  0  0  0  0  0  0  0  0999 V3000
M  V30 BEGIN CTAB
M  V30 COUNTS 59 63 0 0 0
M  V30 BEGIN ATOM
M  V30 1 C 2.707561 0.167647 -0.261563 0
M  V30 2 C 3.657665 0.842638 0.671490 0
M  V30 3 C 2.973167 1.270289 1.967317 0
M  V30 4 C 2.445979 -0.012808 2.581910 0
M  V30 5 C 3.941374 1.873542 2.926119 0
M  V30 6 N 1.839940 2.147177 1.691447 0
M  V30 7 C 1.925847 3.416729 1.256742 0
M  V30 8 C 2.983518 4.266207 0.945363 0
M  V30 9 N 2.789251 5.531157 0.517952 0
M  V30 10 C 1.532326 5.996269 0.385064 0
M  V30 11 C 0.408385 5.246022 0.663948 0
M  V30 12 C 0.649557 3.956404 1.098854 0
M  V30 13 C -0.213049 2.941194 1.462687 0
M  V30 14 C -1.592732 2.799053 1.539113 0
M  V30 15 N -2.207866 1.671519 1.935861 0
M  V30 16 C -1.450603 0.598325 2.286233 0
M  V30 17 N -1.850477 -0.691596 2.732602 0
M  V30 18 C -2.053171 -1.713628 1.763286 0
M  V30 19 C -2.444837 -2.997944 2.127312 0
M  V30 20 C -2.624961 -3.947957 1.143935 0
M  V30 21 C -2.441673 -3.714151 -0.202581 0
M  V30 22 N -2.615280 -4.658277 -1.242239 0
M  V30 23 C -2.366987 -4.233196 -2.618476 0
M  V30 24 C -2.336587 -5.475472 -3.471838 0
M  V30 25 N -1.448465 -6.456974 -2.879933 0
M  V30 26 C -1.964255 -6.952768 -1.621556 0
M  V30 27 C -3.025677 -6.031743 -1.054412 0
M  V30 28 C -2.054494 -2.422069 -0.491253 0
M  V30 29 N -1.872753 -1.479349 0.450391 0
M  V30 30 N -0.101337 0.692713 2.226811 0
M  V30 31 C 0.520301 1.825422 1.828178 0
M  V30 32 H 3.026094 0.248980 -1.320542 0
M  V30 33 H 2.682634 -0.939111 -0.045887 0
M  V30 34 H 1.652158 0.510554 -0.181035 0
M  V30 35 H 4.476400 0.154453 0.979573 0
M  V30 36 H 4.145182 1.679658 0.144997 0
M  V30 37 H 3.321554 -0.637310 2.845157 0
M  V30 38 H 1.883385 -0.545949 1.789293 0
M  V30 39 H 1.851556 0.176116 3.498900 0
M  V30 40 H 3.592063 2.814367 3.386847 0
M  V30 41 H 4.919226 2.006929 2.390439 0
M  V30 42 H 4.175158 1.188671 3.767059 0
M  V30 43 H 3.998978 3.917329 1.043565 0
M  V30 44 H 1.406964 7.023923 0.037197 0
M  V30 45 H -0.605073 5.609757 0.560462 0
M  V30 46 H -2.216802 3.633115 1.267729 0
M  V30 47 H -2.006749 -0.939751 3.739672 0
M  V30 48 H -2.603532 -3.237736 3.175510 0
M  V30 49 H -2.926684 -4.925904 1.458858 0
M  V30 50 H -1.436175 -3.636797 -2.716021 0
M  V30 51 H -3.246966 -3.596797 -2.888798 0
M  V30 52 H -2.058237 -5.220681 -4.499272 0
M  V30 53 H -3.385317 -5.891826 -3.481773 0
M  V30 54 H -1.092978 -7.167438 -3.523720 0
M  V30 55 H -2.460425 -7.926726 -1.808967 0
M  V30 56 H -1.141866 -7.142966 -0.903772 0
M  V30 57 H -3.141578 -6.297971 -0.002858 0
M  V30 58 H -3.982501 -6.260705 -1.567931 0
M  V30 59 H -1.867265 -2.065493 -1.493895 0
M  V30 END ATOM
M  V30 BEGIN BOND
M  V30 1 1 1 2
M  V30 2 1 2 3
M  V30 3 1 3 4
M  V30 4 1 3 5
M  V30 5 1 3 6
M  V30 6 1 6 7
M  V30 7 2 7 8
M  V30 8 1 8 9
M  V30 9 2 9 10
M  V30 10 1 10 11
M  V30 11 2 11 12
M  V30 12 1 12 13
M  V30 13 2 13 14
M  V30 14 1 14 15
M  V30 15 2 15 16
M  V30 16 1 16 17
M  V30 17 1 17 18
M  V30 18 2 18 19
M  V30 19 1 19 20
M  V30 20 2 20 21
M  V30 21 1 21 22
M  V30 22 1 22 23
M  V30 23 1 23 24
M  V30 24 1 24 25
M  V30 25 1 25 26
M  V30 26 1 26 27
M  V30 27 1 21 28
M  V30 28 2 28 29
M  V30 29 1 16 30
M  V30 30 2 30 31
M  V30 31 1 31 6
M  V30 32 1 12 7
M  V30 33 1 31 13
M  V30 34 1 29 18
M  V30 35 1 27 22
M  V30 36 1 1 32
M  V30 37 1 1 33
M  V30 38 1 1 34
M  V30 39 1 2 35
M  V30 40 1 2 36
M  V30 41 1 4 37
M  V30 42 1 4 38
M  V30 43 1 4 39
M  V30 44 1 5 40
M  V30 45 1 5 41
M  V30 46 1 5 42
M  V30 47 1 8 43
M  V30 48 1 10 44
M  V30 49 1 11 45
M  V30 50 1 14 46
M  V30 51 1 17 47
M  V30 52 1 19 48
M  V30 53 1 20 49
M  V30 54 1 23 50
M  V30 55 1 23 51
M  V30 56 1 24 52
M  V30 57 1 24 53
M  V30 58 1 25 54
M  V30 59 1 26 55
M  V30 60 1 26 56
M  V30 61 1 27 57
M  V30 62 1 27 58
M  V30 63 1 28 59
M  V30 END BOND
M  V30 END CTAB
M  END
>  <Dataset>  (113) 
ChEMBL_Kinases

>  <Ligand_Instance>  (113) 
nan

>  <PDB_ID>  (113) 
nan

>  <Standardized_SMILES>  (113) 
CCC(C)(C)n1c2cnccc2c2cnc(Nc3ccc(N4CCNCC4)cn3)nc21

>  <Name>  (113) 
nan

>  <Pocket>  (113) 
nan

>  <ATP_Site>  (113) 
nan

>  <Peripheral>  (113) 
nan

>  <Num_H_Atoms_ProtBoundConf>  (113) 
nan

>  <Num_Resolved_Atoms>  (113) 
nan

>  <Num_Not_Resolved_Atoms>  (113) 
nan

$$$$
CHEMBL4436649
     RDKit          3D

  0  0  0  0  0  0  0  0  0  0999 V3000
M  V30 BEGIN CTAB
M  V30 COUNTS 37 41 0 0 0
M  V30 BEGIN ATOM
M  V30 1 C -0.541744 -6.014924 1.856554 0
M  V30 2 C 0.853998 -5.617457 2.067119 0
M  V30 3 N 1.888055 -6.389140 2.505585 0
M  V30 4 N 2.996120 -5.673676 2.566785 0
M  V30 5 C 2.766715 -4.386363 2.173803 0
M  V30 6 C 1.428902 -4.388270 1.871558 0
M  V30 7 C 0.705934 -3.221027 1.398712 0
M  V30 8 C 1.157862 -1.941652 1.161939 0
M  V30 9 C 0.259963 -1.018337 0.714171 0
M  V30 10 N 0.441436 0.278374 0.412110 0
M  V30 11 C -0.548858 1.068037 -0.020675 0
M  V30 12 C -0.235389 2.453295 -0.314782 0
M  V30 13 C 0.200536 2.815900 -1.719382 0
M  V30 14 C 0.820051 3.990175 -0.993057 0
M  V30 15 C -0.384946 4.663407 -0.425978 0
M  V30 16 N -1.121309 3.484184 0.072350 0
M  V30 17 C 1.132039 2.961602 0.100614 0
M  V30 18 N -1.823914 0.677089 -0.205547 0
M  V30 19 C -2.107406 -0.606327 0.069908 0
M  V30 20 O -3.209001 -1.162651 -0.031996 0
M  V30 21 C -1.076217 -1.480107 0.534261 0
M  V30 22 S -1.010659 -3.175820 0.998400 0
M  V30 23 H -0.762019 -6.230694 0.771859 0
M  V30 24 H -0.689708 -7.011287 2.351863 0
M  V30 25 H -1.294878 -5.356428 2.305679 0
M  V30 26 H 3.906479 -6.076040 2.879417 0
M  V30 27 H 3.490458 -3.577286 2.123228 0
M  V30 28 H 2.200539 -1.725076 1.340407 0
M  V30 29 H -0.646869 3.062216 -2.388865 0
M  V30 30 H 0.911731 2.046687 -2.069798 0
M  V30 31 H 1.616351 4.522281 -1.446487 0
M  V30 32 H -0.983885 5.206542 -1.175878 0
M  V30 33 H -0.061883 5.279342 0.431055 0
M  V30 34 H -1.224004 3.580308 1.126014 0
M  V30 35 H 1.968864 2.294113 -0.144022 0
M  V30 36 H 1.182279 3.466750 1.079359 0
M  V30 37 H -2.607975 1.245835 -0.533310 0
M  V30 END ATOM
M  V30 BEGIN BOND
M  V30 1 1 1 2
M  V30 2 2 2 3
M  V30 3 1 3 4
M  V30 4 1 4 5
M  V30 5 2 5 6
M  V30 6 1 6 7
M  V30 7 2 7 8
M  V30 8 1 8 9
M  V30 9 1 9 10
M  V30 10 2 10 11
M  V30 11 1 11 12
M  V30 12 1 12 13
M  V30 13 1 13 14
M  V30 14 1 14 15
M  V30 15 1 15 16
M  V30 16 1 14 17
M  V30 17 1 11 18
M  V30 18 1 18 19
M  V30 19 2 19 20
M  V30 20 1 19 21
M  V30 21 1 21 22
M  V30 22 1 6 2
M  V30 23 1 22 7
M  V30 24 2 21 9
M  V30 25 1 16 12
M  V30 26 1 17 12
M  V30 27 1 1 23
M  V30 28 1 1 24
M  V30 29 1 1 25
M  V30 30 1 4 26
M  V30 31 1 5 27
M  V30 32 1 8 28
M  V30 33 1 13 29
M  V30 34 1 13 30
M  V30 35 1 14 31
M  V30 36 1 15 32
M  V30 37 1 15 33
M  V30 38 1 16 34
M  V30 39 1 17 35
M  V30 40 1 17 36
M  V30 41 1 18 37
M  V30 END BOND
M  V30 END CTAB
M  END
>  <Dataset>  (114) 
ChEMBL_Kinases

>  <Ligand_Instance>  (114) 
nan

>  <PDB_ID>  (114) 
nan

>  <Standardized_SMILES>  (114) 
Cc1n[nH]cc1-c1cc2nc(C34CC(CN3)C4)[nH]c(=O)c2s1

>  <Name>  (114) 
nan

>  <Pocket>  (114) 
nan

>  <ATP_Site>  (114) 
nan

>  <Peripheral>  (114) 
nan

>  <Num_H_Atoms_ProtBoundConf>  (114) 
nan

>  <Num_Resolved_Atoms>  (114) 
nan

>  <Num_Not_Resolved_Atoms>  (114) 
nan

$$$$
CHEMBL3687494
     RDKit          3D

  0  0  0  0  0  0  0  0  0  0999 V3000
M  V30 BEGIN CTAB
M  V30 COUNTS 66 69 0 0 0
M  V30 BEGIN ATOM
M  V30 1 C 4.392783 -4.452013 3.068873 0
M  V30 2 C 4.016606 -3.177126 2.404434 0
M  V30 3 C 4.080997 -2.968162 1.026566 0
M  V30 4 C 3.714799 -1.754783 0.478947 0
M  V30 5 F 3.771386 -1.535756 -0.856840 0
M  V30 6 C 3.270678 -0.694855 1.252954 0
M  V30 7 C 2.877848 0.609126 0.788543 0
M  V30 8 N 1.685642 1.093642 0.394229 0
M  V30 9 C 1.493538 2.338281 -0.009627 0
M  V30 10 C 0.221221 2.854320 -0.430739 0
M  V30 11 O 0.191401 4.081754 -0.793567 0
M  V30 12 N -1.012140 2.150860 -0.489424 0
M  V30 13 C -2.295118 2.560895 -0.882643 0
M  V30 14 C -2.564560 3.827315 -1.358665 0
M  V30 15 N -3.770099 4.296968 -1.766531 0
M  V30 16 C -4.854570 3.467453 -1.718648 0
M  V30 17 C -4.582416 2.202880 -1.242233 0
M  V30 18 C -3.350124 1.672156 -0.808016 0
M  V30 19 C -3.268050 0.289083 -0.308167 0 CFG=1
M  V30 20 C -2.684814 -0.696332 -1.306564 0
M  V30 21 C -3.055032 -2.041586 -0.713601 0 CFG=1
M  V30 22 C -2.948602 -3.149583 -1.694328 0
M  V30 23 C -2.052276 -2.223325 0.421233 0 CFG=1
M  V30 24 O -0.817976 -2.268063 -0.163269 0
M  V30 25 C -0.054626 -3.371142 -0.099463 0
M  V30 26 C 0.491614 -3.822005 1.212925 0
M  V30 27 C -0.513081 -4.153420 2.181867 0
M  V30 28 N -1.326192 -4.434942 2.992450 0
M  V30 29 C -2.132816 -1.127363 1.445826 0 CFG=1
M  V30 30 N -0.755911 -0.771146 1.790583 0
M  V30 31 C -2.906814 0.084287 1.103725 0
M  V30 32 C 2.607504 3.152396 -0.010749 0
M  V30 33 C 3.869678 2.781911 0.365136 0
M  V30 34 C 3.996684 1.454699 0.779257 0
M  V30 35 F 5.278710 1.114864 1.150423 0
M  V30 36 C 3.208522 -0.909939 2.626200 0
M  V30 37 F 2.783365 0.073535 3.471543 0
M  V30 38 C 3.571614 -2.126603 3.216459 0
M  V30 39 H 5.316832 -4.288654 3.653380 0
M  V30 40 H 3.607921 -4.679173 3.845711 0
M  V30 41 H 4.412403 -5.308930 2.398791 0
M  V30 42 H 4.425118 -3.783077 0.405658 0
M  V30 43 H -0.838996 1.191507 -0.184089 0
M  V30 44 H -1.843241 4.619238 -1.471239 0
M  V30 45 H -5.837396 3.776244 -2.026987 0
M  V30 46 H -5.484761 1.567555 -1.220836 0
M  V30 47 H -4.360212 -0.078427 -0.354817 0
M  V30 48 H -1.614307 -0.683693 -1.421480 0
M  V30 49 H -3.245305 -0.568067 -2.254536 0
M  V30 50 H -4.083839 -2.001496 -0.293285 0
M  V30 51 H -2.867595 -4.118341 -1.167268 0
M  V30 52 H -2.202168 -2.993749 -2.482137 0
M  V30 53 H -3.935823 -3.195164 -2.234525 0
M  V30 54 H -2.293431 -3.214191 0.846042 0
M  V30 55 H 0.871616 -3.180167 -0.745205 0
M  V30 56 H -0.547118 -4.277380 -0.559132 0
M  V30 57 H 1.246223 -3.090535 1.616489 0
M  V30 58 H 1.074593 -4.779603 1.003263 0
M  V30 59 H -2.494216 -1.627817 2.393534 0
M  V30 60 H -0.072235 -0.981684 1.059388 0
M  V30 61 H -0.725199 0.227677 2.030112 0
M  V30 62 H -2.421992 1.001772 1.520381 0
M  V30 63 H -3.834403 0.040345 1.768996 0
M  V30 64 H 2.515445 4.202227 -0.336535 0
M  V30 65 H 4.697502 3.478199 0.337665 0
M  V30 66 H 3.511992 -2.257194 4.270801 0
M  V30 END ATOM
M  V30 BEGIN BOND
M  V30 1 1 1 2
M  V30 2 2 2 3
M  V30 3 1 3 4
M  V30 4 1 4 5
M  V30 5 2 4 6
M  V30 6 1 6 7
M  V30 7 2 7 8
M  V30 8 1 8 9
M  V30 9 1 9 10
M  V30 10 2 10 11
M  V30 11 1 10 12
M  V30 12 1 12 13
M  V30 13 2 13 14
M  V30 14 1 14 15
M  V30 15 2 15 16
M  V30 16 1 16 17
M  V30 17 2 17 18
M  V30 18 1 18 19
M  V30 19 1 19 20
M  V30 20 1 20 21
M  V30 21 1 21 22
M  V30 22 1 21 23
M  V30 23 1 23 24
M  V30 24 1 24 25
M  V30 25 1 25 26
M  V30 26 1 26 27
M  V30 27 3 27 28
M  V30 28 1 23 29
M  V30 29 1 29 30
M  V30 30 1 29 31
M  V30 31 2 9 32
M  V30 32 1 32 33
M  V30 33 2 33 34
M  V30 34 1 34 35
M  V30 35 1 6 36
M  V30 36 1 36 37
M  V30 37 2 36 38
M  V30 38 1 38 2
M  V30 39 1 34 7
M  V30 40 1 18 13
M  V30 41 1 31 19
M  V30 42 1 1 39
M  V30 43 1 1 40
M  V30 44 1 1 41
M  V30 45 1 3 42
M  V30 46 1 12 43
M  V30 47 1 14 44
M  V30 48 1 16 45
M  V30 49 1 17 46
M  V30 50 1 19 47 CFG=1
M  V30 51 1 20 48
M  V30 52 1 20 49
M  V30 53 1 21 50 CFG=1
M  V30 54 1 22 51
M  V30 55 1 22 52
M  V30 56 1 22 53
M  V30 57 1 23 54 CFG=1
M  V30 58 1 25 55
M  V30 59 1 25 56
M  V30 60 1 26 57
M  V30 61 1 26 58
M  V30 62 1 29 59 CFG=1
M  V30 63 1 30 60
M  V30 64 1 30 61
M  V30 65 1 31 62
M  V30 66 1 31 63
M  V30 67 1 32 64
M  V30 68 1 33 65
M  V30 69 1 38 66
M  V30 END BOND
M  V30 END CTAB
M  END
>  <Dataset>  (115) 
ChEMBL_Kinases

>  <Ligand_Instance>  (115) 
nan

>  <PDB_ID>  (115) 
nan

>  <Standardized_SMILES>  (115) 
Cc1cc(F)c(-c2nc(C(=O)Nc3cnccc3[C@H]3C[C@@H](C)[C@@H](OCCC#N)[C@@H](N)C3)ccc2F)c(F)c1

>  <Name>  (115) 
nan

>  <Pocket>  (115) 
nan

>  <ATP_Site>  (115) 
nan

>  <Peripheral>  (115) 
nan

>  <Num_H_Atoms_ProtBoundConf>  (115) 
nan

>  <Num_Resolved_Atoms>  (115) 
nan

>  <Num_Not_Resolved_Atoms>  (115) 
nan

$$$$
CHEMBL3687493
     RDKit          3D

  0  0  0  0  0  0  0  0  0  0999 V3000
M  V30 BEGIN CTAB
M  V30 COUNTS 66 69 0 0 0
M  V30 BEGIN ATOM
M  V30 1 C 5.542406 -2.436763 5.273230 0
M  V30 2 C 4.873527 -1.809966 4.111960 0
M  V30 3 C 4.964977 -0.425722 3.949435 0
M  V30 4 C 4.322365 0.101260 2.848227 0
M  V30 5 F 4.437584 1.448046 2.730205 0
M  V30 6 C 3.617429 -0.644698 1.930019 0
M  V30 7 C 3.013001 0.100777 0.835741 0
M  V30 8 N 1.753760 0.585373 0.962689 0
M  V30 9 C 1.162894 1.279520 -0.026410 0
M  V30 10 C -0.187961 1.839731 0.020382 0
M  V30 11 O -0.683449 2.494904 -0.960669 0
M  V30 12 N -1.116947 1.742727 1.124133 0
M  V30 13 C -2.271301 2.425927 0.715852 0
M  V30 14 C -2.234003 3.766104 1.039815 0
M  V30 15 N -3.272575 4.576859 0.704614 0
M  V30 16 C -4.335057 4.067668 0.056784 0
M  V30 17 C -4.319317 2.725785 -0.240737 0
M  V30 18 C -3.298470 1.809175 0.061745 0
M  V30 19 C -3.373044 0.384230 -0.285778 0 CFG=1
M  V30 20 C -2.675520 -0.012289 -1.565727 0
M  V30 21 C -3.244463 -1.396050 -1.827844 0 CFG=1
M  V30 22 N -3.169679 -1.766971 -3.210406 0
M  V30 23 C -2.449896 -2.309952 -0.906625 0 CFG=1
M  V30 24 O -1.141637 -2.339737 -1.307351 0
M  V30 25 C -0.689421 -3.448568 -1.940950 0
M  V30 26 C -0.737346 -4.757946 -1.256539 0
M  V30 27 C 0.049979 -4.816648 -0.044403 0
M  V30 28 N 0.677992 -4.881723 0.941326 0
M  V30 29 C -2.583285 -1.891474 0.495233 0 CFG=1
M  V30 30 C -1.224152 -1.975374 1.183002 0
M  V30 31 C -3.211643 -0.581568 0.818013 0
M  V30 32 C 1.869390 1.494276 -1.190936 0
M  V30 33 C 3.151372 1.002120 -1.323239 0
M  V30 34 C 3.758973 0.289892 -0.309472 0
M  V30 35 F 5.022693 -0.225017 -0.372647 0
M  V30 36 C 3.556659 -2.007375 2.135149 0
M  V30 37 F 2.845536 -2.685535 1.191139 0
M  V30 38 C 4.178596 -2.599634 3.218746 0
M  V30 39 H 5.936887 -3.453217 5.028557 0
M  V30 40 H 4.889282 -2.463266 6.168404 0
M  V30 41 H 6.414036 -1.780432 5.551819 0
M  V30 42 H 5.520705 0.129901 4.680163 0
M  V30 43 H -0.679025 1.197269 1.927343 0
M  V30 44 H -1.426847 4.263357 1.557615 0
M  V30 45 H -5.178144 4.681263 -0.225598 0
M  V30 46 H -5.204526 2.350659 -0.769637 0
M  V30 47 H -4.466555 0.269776 -0.618242 0
M  V30 48 H -1.602215 -0.133655 -1.510142 0
M  V30 49 H -2.940341 0.699654 -2.349472 0
M  V30 50 H -4.306333 -1.481373 -1.515373 0
M  V30 51 H -4.010494 -2.261854 -3.574077 0
M  V30 52 H -3.076705 -0.856469 -3.749941 0
M  V30 53 H -2.893761 -3.329454 -1.129399 0
M  V30 54 H -1.077499 -3.547367 -2.998696 0
M  V30 55 H 0.414439 -3.251485 -2.131482 0
M  V30 56 H -0.249186 -5.497081 -1.962294 0
M  V30 57 H -1.760469 -5.172019 -1.126740 0
M  V30 58 H -3.178546 -2.715516 1.005678 0
M  V30 59 H -1.078426 -1.145105 1.901465 0
M  V30 60 H -0.419815 -1.955485 0.425077 0
M  V30 61 H -1.094759 -2.899654 1.779722 0
M  V30 62 H -2.641650 -0.094025 1.634117 0
M  V30 63 H -4.206184 -0.781574 1.325511 0
M  V30 64 H 1.490549 2.046160 -2.064556 0
M  V30 65 H 3.718385 1.162447 -2.230692 0
M  V30 66 H 4.084011 -3.677119 3.310403 0
M  V30 END ATOM
M  V30 BEGIN BOND
M  V30 1 1 1 2
M  V30 2 2 2 3
M  V30 3 1 3 4
M  V30 4 1 4 5
M  V30 5 2 4 6
M  V30 6 1 6 7
M  V30 7 2 7 8
M  V30 8 1 8 9
M  V30 9 1 9 10
M  V30 10 2 10 11
M  V30 11 1 10 12
M  V30 12 1 12 13
M  V30 13 2 13 14
M  V30 14 1 14 15
M  V30 15 2 15 16
M  V30 16 1 16 17
M  V30 17 2 17 18
M  V30 18 1 18 19
M  V30 19 1 19 20
M  V30 20 1 20 21
M  V30 21 1 21 22
M  V30 22 1 21 23
M  V30 23 1 23 24
M  V30 24 1 24 25
M  V30 25 1 25 26
M  V30 26 1 26 27
M  V30 27 3 27 28
M  V30 28 1 23 29
M  V30 29 1 29 30
M  V30 30 1 29 31
M  V30 31 2 9 32
M  V30 32 1 32 33
M  V30 33 2 33 34
M  V30 34 1 34 35
M  V30 35 1 6 36
M  V30 36 1 36 37
M  V30 37 2 36 38
M  V30 38 1 38 2
M  V30 39 1 34 7
M  V30 40 1 18 13
M  V30 41 1 31 19
M  V30 42 1 1 39
M  V30 43 1 1 40
M  V30 44 1 1 41
M  V30 45 1 3 42
M  V30 46 1 12 43
M  V30 47 1 14 44
M  V30 48 1 16 45
M  V30 49 1 17 46
M  V30 50 1 19 47 CFG=3
M  V30 51 1 20 48
M  V30 52 1 20 49
M  V30 53 1 21 50 CFG=1
M  V30 54 1 22 51
M  V30 55 1 22 52
M  V30 56 1 23 53 CFG=1
M  V30 57 1 25 54
M  V30 58 1 25 55
M  V30 59 1 26 56
M  V30 60 1 26 57
M  V30 61 1 29 58 CFG=1
M  V30 62 1 30 59
M  V30 63 1 30 60
M  V30 64 1 30 61
M  V30 65 1 31 62
M  V30 66 1 31 63
M  V30 67 1 32 64
M  V30 68 1 33 65
M  V30 69 1 38 66
M  V30 END BOND
M  V30 END CTAB
M  END
>  <Dataset>  (116) 
ChEMBL_Kinases

>  <Ligand_Instance>  (116) 
nan

>  <PDB_ID>  (116) 
nan

>  <Standardized_SMILES>  (116) 
Cc1cc(F)c(-c2nc(C(=O)Nc3cnccc3[C@H]3C[C@@H](N)[C@@H](OCCC#N)[C@@H](C)C3)ccc2F)c(F)c1

>  <Name>  (116) 
nan

>  <Pocket>  (116) 
nan

>  <ATP_Site>  (116) 
nan

>  <Peripheral>  (116) 
nan

>  <Num_H_Atoms_ProtBoundConf>  (116) 
nan

>  <Num_Resolved_Atoms>  (116) 
nan

>  <Num_Not_Resolved_Atoms>  (116) 
nan

$$$$
CHEMBL3687492
     RDKit          3D

  0  0  0  0  0  0  0  0  0  0999 V3000
M  V30 BEGIN CTAB
M  V30 COUNTS 58 61 0 0 0
M  V30 BEGIN ATOM
M  V30 1 C 1.254813 -2.444989 2.360929 0
M  V30 2 O 1.076850 -1.276993 1.638164 0
M  V30 3 C 2.290453 -0.628418 1.361948 0 CFG=2
M  V30 4 C 2.454738 0.672624 2.047576 0 CFG=2
M  V30 5 N 1.822833 0.566567 3.371715 0
M  V30 6 C 1.900117 1.870222 1.394881 0
M  V30 7 C 1.894567 1.902320 -0.092347 0 CFG=2
M  V30 8 C 0.803862 2.707102 -0.708471 0
M  V30 9 C 0.895224 4.055425 -1.070770 0
M  V30 10 C -0.135309 4.758097 -1.656281 0
M  V30 11 N -1.308241 4.151165 -1.909625 0
M  V30 12 C -1.428090 2.854460 -1.572490 0
M  V30 13 C -0.411157 2.127646 -0.984491 0
M  V30 14 N -0.822417 0.787365 -0.743001 0
M  V30 15 C -1.524097 0.540846 0.503383 0
M  V30 16 O -1.726628 1.528345 1.292709 0
M  V30 17 C -2.050350 -0.755641 0.985545 0
M  V30 18 N -1.928646 -1.859548 0.277973 0
M  V30 19 C -2.349442 -2.942970 0.637672 0
M  V30 20 C -2.306773 -4.269016 -0.012385 0
M  V30 21 C -1.700337 -4.381439 -1.246460 0
M  V30 22 F -1.160856 -3.284745 -1.830646 0
M  V30 23 C -1.660075 -5.616039 -1.854771 0
M  V30 24 C -2.240981 -6.691291 -1.179971 0
M  V30 25 C -2.852646 -6.598786 0.055879 0
M  V30 26 C -2.875950 -5.342740 0.640171 0
M  V30 27 F -3.473712 -5.231854 1.856902 0
M  V30 28 S -3.096853 -2.599607 2.242506 0
M  V30 29 C -2.676855 -0.788979 2.193910 0
M  V30 30 N -3.006982 0.082264 3.209285 0
M  V30 31 C 2.272420 0.672524 -0.828848 0
M  V30 32 C 2.462768 -0.597787 -0.124113 0 CFG=2
M  V30 33 C 1.629312 -1.710452 -0.781964 0
M  V30 34 H 1.754804 -2.191899 3.341710 0
M  V30 35 H 0.248618 -2.880036 2.511714 0
M  V30 36 H 1.894702 -3.188027 1.876477 0
M  V30 37 H 3.041606 -1.322752 1.852067 0
M  V30 38 H 3.548009 0.820959 2.293516 0
M  V30 39 H 0.792653 0.623856 3.199730 0
M  V30 40 H 2.079941 1.410124 3.966435 0
M  V30 41 H 0.868000 2.138441 1.737195 0
M  V30 42 H 2.469475 2.735700 1.869782 0
M  V30 43 H 2.793550 2.588742 -0.307907 0
M  V30 44 H 1.854718 4.537305 -0.859169 0
M  V30 45 H 0.067041 5.774648 -1.880335 0
M  V30 46 H -2.432379 2.481742 -1.832592 0
M  V30 47 H -0.774678 -0.159678 -1.234163 0
M  V30 48 H -1.192903 -5.718167 -2.812161 0
M  V30 49 H -2.225105 -7.673294 -1.632447 0
M  V30 50 H -3.283320 -7.476200 0.521865 0
M  V30 51 H -3.984672 0.049856 3.609185 0
M  V30 52 H -2.239462 0.728135 3.514412 0
M  V30 53 H 1.440115 0.543127 -1.591255 0
M  V30 54 H 3.148083 0.829950 -1.540787 0
M  V30 55 H 3.530193 -0.949126 -0.292026 0
M  V30 56 H 1.263327 -1.334431 -1.763576 0
M  V30 57 H 0.834482 -2.057701 -0.103882 0
M  V30 58 H 2.226245 -2.604799 -1.031040 0
M  V30 END ATOM
M  V30 BEGIN BOND
M  V30 1 1 1 2
M  V30 2 1 2 3
M  V30 3 1 3 4
M  V30 4 1 4 5
M  V30 5 1 4 6
M  V30 6 1 6 7
M  V30 7 1 7 8
M  V30 8 2 8 9
M  V30 9 1 9 10
M  V30 10 2 10 11
M  V30 11 1 11 12
M  V30 12 2 12 13
M  V30 13 1 13 14
M  V30 14 1 14 15
M  V30 15 2 15 16
M  V30 16 1 15 17
M  V30 17 1 17 18
M  V30 18 2 18 19
M  V30 19 1 19 20
M  V30 20 2 20 21
M  V30 21 1 21 22
M  V30 22 1 21 23
M  V30 23 2 23 24
M  V30 24 1 24 25
M  V30 25 2 25 26
M  V30 26 1 26 27
M  V30 27 1 19 28
M  V30 28 1 28 29
M  V30 29 1 29 30
M  V30 30 1 7 31
M  V30 31 1 31 32
M  V30 32 1 32 33
M  V30 33 1 32 3
M  V30 34 1 13 8
M  V30 35 2 29 17
M  V30 36 1 26 20
M  V30 37 1 1 34
M  V30 38 1 1 35
M  V30 39 1 1 36
M  V30 40 1 3 37 CFG=1
M  V30 41 1 4 38 CFG=1
M  V30 42 1 5 39
M  V30 43 1 5 40
M  V30 44 1 6 41
M  V30 45 1 6 42
M  V30 46 1 7 43 CFG=1
M  V30 47 1 9 44
M  V30 48 1 10 45
M  V30 49 1 12 46
M  V30 50 1 14 47
M  V30 51 1 23 48
M  V30 52 1 24 49
M  V30 53 1 25 50
M  V30 54 1 30 51
M  V30 55 1 30 52
M  V30 56 1 31 53
M  V30 57 1 31 54
M  V30 58 1 32 55 CFG=1
M  V30 59 1 33 56
M  V30 60 1 33 57
M  V30 61 1 33 58
M  V30 END BOND
M  V30 END CTAB
M  END
>  <Dataset>  (117) 
ChEMBL_Kinases

>  <Ligand_Instance>  (117) 
nan

>  <PDB_ID>  (117) 
nan

>  <Standardized_SMILES>  (117) 
CO[C@@H]1[C@H](N)C[C@H](c2ccncc2NC(=O)c2nc(-c3c(F)cccc3F)sc2N)C[C@@H]1C

>  <Name>  (117) 
nan

>  <Pocket>  (117) 
nan

>  <ATP_Site>  (117) 
nan

>  <Peripheral>  (117) 
nan

>  <Num_H_Atoms_ProtBoundConf>  (117) 
nan

>  <Num_Resolved_Atoms>  (117) 
nan

>  <Num_Not_Resolved_Atoms>  (117) 
nan

$$$$
CHEMBL255348
     RDKit          3D

  0  0  0  0  0  0  0  0  0  0999 V3000
M  V30 BEGIN CTAB
M  V30 COUNTS 81 88 0 0 0
M  V30 BEGIN ATOM
M  V30 1 N 5.635474 3.005841 5.395983 0
M  V30 2 C 4.911410 2.015446 4.652944 0
M  V30 3 N 4.987592 0.675515 4.769389 0
M  V30 4 N 4.162856 0.079374 3.909323 0
M  V30 5 C 3.920387 -1.328366 3.689016 0
M  V30 6 C 2.813191 -1.855046 4.559907 0
M  V30 7 C 2.590076 -3.305196 4.305819 0
M  V30 8 C 1.684304 -4.165910 4.882097 0
M  V30 9 N 1.912235 -5.365273 4.285048 0
M  V30 10 C 2.915612 -5.252276 3.378158 0
M  V30 11 N 3.328591 -3.974853 3.398106 0
M  V30 12 C 3.509832 1.036055 3.190363 0
M  V30 13 N 2.574361 0.960504 2.198193 0
M  V30 14 C 2.097003 2.101686 1.659758 0
M  V30 15 C 1.109127 1.866906 0.611324 0
M  V30 16 C -0.205406 2.318403 0.680928 0
M  V30 17 C -1.075167 2.043019 -0.369486 0
M  V30 18 C -0.713623 1.342153 -1.489969 0
M  V30 19 C -1.604213 1.035683 -2.620370 0
M  V30 20 N -2.336306 -0.177950 -2.499172 0
M  V30 21 C -1.590335 -1.376827 -2.371042 0
M  V30 22 C -2.366138 -2.481221 -1.777779 0
M  V30 23 C -3.758110 -2.546353 -2.338578 0
M  V30 24 N -4.207786 -3.909392 -2.532004 0
M  V30 25 C -5.259098 -4.580975 -1.971834 0
M  V30 26 O -6.056361 -4.052312 -1.130162 0
M  V30 27 N -5.334153 -5.832699 -2.416216 0
M  V30 28 C -4.326055 -6.006289 -3.282804 0
M  V30 29 C -3.968917 -7.131248 -4.018187 0
M  V30 30 C -2.865731 -7.074603 -4.866828 0
M  V30 31 C -2.140775 -5.889832 -4.962399 0
M  V30 32 C -2.559812 -4.817340 -4.199905 0
M  V30 33 C -3.624954 -4.807614 -3.354305 0
M  V30 34 C -4.001625 -1.668307 -3.533191 0
M  V30 35 C -3.509908 -0.253702 -3.305080 0
M  V30 36 C 0.612911 0.899834 -1.534917 0
M  V30 37 C 1.527980 1.148346 -0.508542 0
M  V30 38 C 2.523657 3.347950 2.079221 0
M  V30 39 C 1.949588 4.504632 1.439498 0
M  V30 40 C 2.025167 4.871289 0.112229 0
M  V30 41 C 1.415697 6.022040 -0.357127 0
M  V30 42 C 0.719177 6.813610 0.530062 0
M  V30 43 C 0.600604 6.505012 1.887782 0
M  V30 44 C 1.232369 5.344409 2.286643 0
M  V30 45 C 3.473416 3.436113 3.086779 0
M  V30 46 C 3.972802 2.274612 3.648967 0
M  V30 47 H 5.224733 3.645248 6.109288 0
M  V30 48 H 6.628374 2.931834 5.063449 0
M  V30 49 H 3.653009 -1.524867 2.620967 0
M  V30 50 H 4.836100 -1.945009 3.889395 0
M  V30 51 H 1.864334 -1.335654 4.304282 0
M  V30 52 H 3.012526 -1.671835 5.632836 0
M  V30 53 H 0.976345 -3.877572 5.638711 0
M  V30 54 H 1.385081 -6.241636 4.501320 0
M  V30 55 H 3.344361 -6.013447 2.731520 0
M  V30 56 H -0.516498 2.877920 1.560763 0
M  V30 57 H -2.103022 2.399216 -0.309228 0
M  V30 58 H -0.969953 1.007416 -3.549431 0
M  V30 59 H -2.331832 1.852583 -2.788252 0
M  V30 60 H -1.064423 -1.738127 -3.266889 0
M  V30 61 H -0.754059 -1.155566 -1.642384 0
M  V30 62 H -1.896714 -3.487149 -1.918092 0
M  V30 63 H -2.428147 -2.365127 -0.654188 0
M  V30 64 H -4.420349 -2.148712 -1.537511 0
M  V30 65 H -6.066882 -6.535732 -2.119873 0
M  V30 66 H -4.570404 -8.044309 -3.909542 0
M  V30 67 H -2.626345 -7.974415 -5.418229 0
M  V30 68 H -1.287693 -5.868043 -5.627888 0
M  V30 69 H -1.959729 -3.919304 -4.312515 0
M  V30 70 H -5.094617 -1.556830 -3.705098 0
M  V30 71 H -3.633341 -2.124095 -4.474275 0
M  V30 72 H -4.271795 0.412729 -2.858691 0
M  V30 73 H -3.271487 0.160324 -4.303925 0
M  V30 74 H 0.966181 0.338231 -2.394207 0
M  V30 75 H 2.546696 0.767137 -0.622792 0
M  V30 76 H 2.587616 4.200118 -0.514727 0
M  V30 77 H 1.488422 6.288376 -1.399535 0
M  V30 78 H 0.231105 7.728270 0.167531 0
M  V30 79 H 0.053533 7.140251 2.551562 0
M  V30 80 H 1.110158 5.145234 3.361654 0
M  V30 81 H 3.818250 4.410759 3.427531 0
M  V30 END ATOM
M  V30 BEGIN BOND
M  V30 1 1 1 2
M  V30 2 2 2 3
M  V30 3 1 3 4
M  V30 4 1 4 5
M  V30 5 1 5 6
M  V30 6 1 6 7
M  V30 7 2 7 8
M  V30 8 1 8 9
M  V30 9 1 9 10
M  V30 10 2 10 11
M  V30 11 1 4 12
M  V30 12 2 12 13
M  V30 13 1 13 14
M  V30 14 1 14 15
M  V30 15 2 15 16
M  V30 16 1 16 17
M  V30 17 2 17 18
M  V30 18 1 18 19
M  V30 19 1 19 20
M  V30 20 1 20 21
M  V30 21 1 21 22
M  V30 22 1 22 23
M  V30 23 1 23 24
M  V30 24 1 24 25
M  V30 25 2 25 26
M  V30 26 1 25 27
M  V30 27 1 27 28
M  V30 28 2 28 29
M  V30 29 1 29 30
M  V30 30 2 30 31
M  V30 31 1 31 32
M  V30 32 2 32 33
M  V30 33 1 23 34
M  V30 34 1 34 35
M  V30 35 1 18 36
M  V30 36 2 36 37
M  V30 37 2 14 38
M  V30 38 1 38 39
M  V30 39 2 39 40
M  V30 40 1 40 41
M  V30 41 2 41 42
M  V30 42 1 42 43
M  V30 43 2 43 44
M  V30 44 1 38 45
M  V30 45 2 45 46
M  V30 46 1 46 2
M  V30 47 1 11 7
M  V30 48 1 46 12
M  V30 49 1 37 15
M  V30 50 1 44 39
M  V30 51 1 35 20
M  V30 52 1 33 24
M  V30 53 1 33 28
M  V30 54 1 1 47
M  V30 55 1 1 48
M  V30 56 1 5 49
M  V30 57 1 5 50
M  V30 58 1 6 51
M  V30 59 1 6 52
M  V30 60 1 8 53
M  V30 61 1 9 54
M  V30 62 1 10 55
M  V30 63 1 16 56
M  V30 64 1 17 57
M  V30 65 1 19 58
M  V30 66 1 19 59
M  V30 67 1 21 60
M  V30 68 1 21 61
M  V30 69 1 22 62
M  V30 70 1 22 63
M  V30 71 1 23 64
M  V30 72 1 27 65
M  V30 73 1 29 66
M  V30 74 1 30 67
M  V30 75 1 31 68
M  V30 76 1 32 69
M  V30 77 1 34 70
M  V30 78 1 34 71
M  V30 79 1 35 72
M  V30 80 1 35 73
M  V30 81 1 36 74
M  V30 82 1 37 75
M  V30 83 1 40 76
M  V30 84 1 41 77
M  V30 85 1 42 78
M  V30 86 1 43 79
M  V30 87 1 44 80
M  V30 88 1 45 81
M  V30 END BOND
M  V30 END CTAB
M  END
>  <Dataset>  (118) 
ChEMBL_Kinases

>  <Ligand_Instance>  (118) 
nan

>  <PDB_ID>  (118) 
nan

>  <Standardized_SMILES>  (118) 
Nc1nn(CCc2c[nH]cn2)c2nc(-c3ccc(CN4CCC(n5c(=O)[nH]c6ccccc65)CC4)cc3)c(-c3ccccc3)cc12

>  <Name>  (118) 
nan

>  <Pocket>  (118) 
nan

>  <ATP_Site>  (118) 
nan

>  <Peripheral>  (118) 
nan

>  <Num_H_Atoms_ProtBoundConf>  (118) 
nan

>  <Num_Resolved_Atoms>  (118) 
nan

>  <Num_Not_Resolved_Atoms>  (118) 
nan

$$$$
CHEMBL3687491
     RDKit          3D

  0  0  0  0  0  0  0  0  0  0999 V3000
M  V30 BEGIN CTAB
M  V30 COUNTS 62 65 0 0 0
M  V30 BEGIN ATOM
M  V30 1 C 2.171396 -3.894343 5.426311 0
M  V30 2 O 1.558860 -3.040198 4.458746 0
M  V30 3 C 2.330317 -2.197905 3.685377 0
M  V30 4 O 3.572418 -2.161532 3.810780 0
M  V30 5 N 1.701332 -1.338697 2.710793 0
M  V30 6 C 2.495157 -0.461216 1.903986 0 CFG=2
M  V30 7 C 2.170091 0.965573 2.291091 0 CFG=2
M  V30 8 N 1.640642 1.000504 3.644162 0
M  V30 9 C 1.113150 1.561983 1.387541 0
M  V30 10 N 1.514888 1.495833 -0.007663 0
M  V30 11 C 0.938815 2.203284 -1.093363 0
M  V30 12 C 1.897164 3.037799 -1.677564 0
M  V30 13 C 1.586518 3.836906 -2.761941 0
M  V30 14 N 0.348915 3.819535 -3.270052 0
M  V30 15 C -0.598227 3.027839 -2.732017 0
M  V30 16 C -0.316930 2.221999 -1.652100 0
M  V30 17 N -1.247623 1.357624 -1.029792 0
M  V30 18 C -2.220347 1.400515 0.009182 0
M  V30 19 O -2.373510 2.489213 0.617087 0
M  V30 20 C -2.956571 0.171119 0.277325 0
M  V30 21 C -3.873095 0.248955 1.274999 0
M  V30 22 C -4.604830 -0.899076 1.574587 0
M  V30 23 C -4.376555 -2.060355 0.857041 0
M  V30 24 F -5.047953 -3.213260 1.090543 0
M  V30 25 C -3.442647 -2.099622 -0.143184 0
M  V30 26 C -3.093503 -3.241057 -0.980848 0
M  V30 27 C -2.105954 -4.177505 -0.690223 0
M  V30 28 F -1.415848 -3.998934 0.478773 0
M  V30 29 C -1.847306 -5.224666 -1.544759 0
M  V30 30 C -2.593009 -5.340545 -2.719046 0
M  V30 31 C -3.565840 -4.418781 -3.006128 0
M  V30 32 C -3.821453 -3.369298 -2.144820 0
M  V30 33 F -4.806952 -2.531529 -2.546889 0
M  V30 34 N -2.759266 -0.975276 -0.401521 0
M  V30 35 C 2.631980 0.615938 -0.283770 0
M  V30 36 C 2.378401 -0.694348 0.431114 0 CFG=2
M  V30 37 C 1.079094 -1.302930 -0.002475 0
M  V30 38 H 3.144752 -4.289401 5.095063 0
M  V30 39 H 2.351718 -3.260530 6.327587 0
M  V30 40 H 1.468603 -4.695594 5.745200 0
M  V30 41 H 0.655123 -1.415083 2.653289 0
M  V30 42 H 3.559986 -0.607892 2.202150 0
M  V30 43 H 3.049493 1.634392 2.270269 0
M  V30 44 H 1.107118 1.869826 3.837710 0
M  V30 45 H 2.421047 0.965740 4.334171 0
M  V30 46 H 0.142187 1.080868 1.585362 0
M  V30 47 H 0.997774 2.629295 1.710260 0
M  V30 48 H 2.931481 3.160122 -1.380714 0
M  V30 49 H 2.258451 4.503647 -3.269071 0
M  V30 50 H -1.624920 2.936859 -3.062509 0
M  V30 51 H -1.092681 0.473562 -1.557706 0
M  V30 52 H -4.059326 1.152575 1.842424 0
M  V30 53 H -5.352539 -0.924356 2.352152 0
M  V30 54 H -1.074044 -5.928527 -1.282821 0
M  V30 55 H -2.354669 -6.187919 -3.369840 0
M  V30 56 H -4.105013 -4.563714 -3.927210 0
M  V30 57 H 2.717279 0.469846 -1.379916 0
M  V30 58 H 3.531810 1.121892 0.128636 0
M  V30 59 H 3.244509 -1.355821 0.111884 0
M  V30 60 H 1.187449 -2.406699 -0.220760 0
M  V30 61 H 0.229538 -1.125150 0.682247 0
M  V30 62 H 0.801972 -0.873722 -0.985429 0
M  V30 END ATOM
M  V30 BEGIN BOND
M  V30 1 1 1 2
M  V30 2 1 2 3
M  V30 3 2 3 4
M  V30 4 1 3 5
M  V30 5 1 5 6
M  V30 6 1 6 7
M  V30 7 1 7 8
M  V30 8 1 7 9
M  V30 9 1 9 10
M  V30 10 1 10 11
M  V30 11 2 11 12
M  V30 12 1 12 13
M  V30 13 2 13 14
M  V30 14 1 14 15
M  V30 15 2 15 16
M  V30 16 1 16 17
M  V30 17 1 17 18
M  V30 18 2 18 19
M  V30 19 1 18 20
M  V30 20 2 20 21
M  V30 21 1 21 22
M  V30 22 2 22 23
M  V30 23 1 23 24
M  V30 24 1 23 25
M  V30 25 1 25 26
M  V30 26 2 26 27
M  V30 27 1 27 28
M  V30 28 1 27 29
M  V30 29 2 29 30
M  V30 30 1 30 31
M  V30 31 2 31 32
M  V30 32 1 32 33
M  V30 33 2 25 34
M  V30 34 1 10 35
M  V30 35 1 35 36
M  V30 36 1 36 37
M  V30 37 1 36 6
M  V30 38 1 16 11
M  V30 39 1 34 20
M  V30 40 1 32 26
M  V30 41 1 1 38
M  V30 42 1 1 39
M  V30 43 1 1 40
M  V30 44 1 5 41
M  V30 45 1 6 42 CFG=1
M  V30 46 1 7 43 CFG=1
M  V30 47 1 8 44
M  V30 48 1 8 45
M  V30 49 1 9 46
M  V30 50 1 9 47
M  V30 51 1 12 48
M  V30 52 1 13 49
M  V30 53 1 15 50
M  V30 54 1 17 51
M  V30 55 1 21 52
M  V30 56 1 22 53
M  V30 57 1 29 54
M  V30 58 1 30 55
M  V30 59 1 31 56
M  V30 60 1 35 57
M  V30 61 1 35 58
M  V30 62 1 36 59 CFG=3
M  V30 63 1 37 60
M  V30 64 1 37 61
M  V30 65 1 37 62
M  V30 END BOND
M  V30 END CTAB
M  END
>  <Dataset>  (119) 
ChEMBL_Kinases

>  <Ligand_Instance>  (119) 
nan

>  <PDB_ID>  (119) 
nan

>  <Standardized_SMILES>  (119) 
COC(=O)N[C@@H]1[C@H](N)CN(c2ccncc2NC(=O)c2ccc(F)c(-c3c(F)cccc3F)n2)C[C@@H]1C

>  <Name>  (119) 
nan

>  <Pocket>  (119) 
nan

>  <ATP_Site>  (119) 
nan

>  <Peripheral>  (119) 
nan

>  <Num_H_Atoms_ProtBoundConf>  (119) 
nan

>  <Num_Resolved_Atoms>  (119) 
nan

>  <Num_Not_Resolved_Atoms>  (119) 
nan

$$$$
CHEMBL4436718
     RDKit          3D

  0  0  0  0  0  0  0  0  0  0999 V3000
M  V30 BEGIN CTAB
M  V30 COUNTS 52 55 0 0 0
M  V30 BEGIN ATOM
M  V30 1 C 5.667695 -4.979869 2.582215 0
M  V30 2 C 4.146307 -4.929486 2.764612 0
M  V30 3 N 3.850259 -3.699548 3.466893 0
M  V30 4 C 3.576067 -2.455167 3.043539 0
M  V30 5 C 3.374947 -1.670853 4.151251 0
M  V30 6 N 3.061513 -0.287582 4.147480 0
M  V30 7 C 2.922975 0.383220 2.900055 0
M  V30 8 N 3.962841 0.959891 2.252971 0
M  V30 9 C 3.766234 1.592289 1.058198 0
M  V30 10 C 2.469657 1.593501 0.585652 0
M  V30 11 C 1.388012 1.016894 1.217586 0
M  V30 12 C 0.038642 1.057269 0.660403 0
M  V30 13 C -0.321529 1.654694 -0.529989 0
M  V30 14 C -1.655709 1.624372 -0.951734 0
M  V30 15 N -2.623267 1.010422 -0.205258 0
M  V30 16 C -3.884065 1.143679 -0.885253 0 CFG=2
M  V30 17 C -5.083565 0.698142 -0.089402 0
M  V30 18 O -5.246647 1.409747 1.101446 0
M  V30 19 C -3.868738 0.283870 -2.125890 0
M  V30 20 C -3.670482 0.892381 -3.341007 0
M  V30 21 C -3.640972 0.160429 -4.511634 0
M  V30 22 C -3.808498 -1.202002 -4.506586 0
M  V30 23 Cl -3.784346 -2.192714 -5.942127 0
M  V30 24 C -4.007630 -1.824578 -3.299654 0
M  V30 25 F -4.180235 -3.170293 -3.223866 0
M  V30 26 C -4.033233 -1.081192 -2.152175 0
M  V30 27 C -2.235994 0.441397 0.944272 0
M  V30 28 O -3.170348 -0.101869 1.576792 0
M  V30 29 C -0.940582 0.439204 1.409888 0
M  V30 30 N 1.687055 0.418738 2.388418 0
M  V30 31 C 3.535063 -2.477259 5.272731 0
M  V30 32 N 3.826542 -3.715287 4.786686 0
M  V30 33 H 5.981168 -3.918763 2.400782 0
M  V30 34 H 6.070863 -5.234118 3.605452 0
M  V30 35 H 5.983290 -5.668936 1.799330 0
M  V30 36 H 3.740223 -4.804771 1.719323 0
M  V30 37 H 3.744601 -5.816727 3.257745 0
M  V30 38 H 3.537970 -2.192168 1.995155 0
M  V30 39 H 2.938671 0.211082 5.062295 0
M  V30 40 H 4.586438 2.057397 0.528678 0
M  V30 41 H 2.359010 2.103369 -0.360270 0
M  V30 42 H 0.471701 2.127057 -1.085944 0
M  V30 43 H -1.760912 2.146560 -1.915567 0
M  V30 44 H -4.078575 2.207556 -1.184169 0
M  V30 45 H -6.012223 0.720887 -0.701375 0
M  V30 46 H -4.947975 -0.363103 0.179709 0
M  V30 47 H -5.807313 0.813905 1.688060 0
M  V30 48 H -3.529188 1.934834 -3.499601 0
M  V30 49 H -3.487978 0.596328 -5.490897 0
M  V30 50 H -4.188802 -1.594337 -1.215158 0
M  V30 51 H -0.794577 -0.061103 2.351094 0
M  V30 52 H 3.439980 -2.153931 6.302533 0
M  V30 END ATOM
M  V30 BEGIN BOND
M  V30 1 1 1 2
M  V30 2 1 2 3
M  V30 3 1 3 4
M  V30 4 2 4 5
M  V30 5 1 5 6
M  V30 6 1 6 7
M  V30 7 2 7 8
M  V30 8 1 8 9
M  V30 9 2 9 10
M  V30 10 1 10 11
M  V30 11 1 11 12
M  V30 12 1 12 13
M  V30 13 2 13 14
M  V30 14 1 14 15
M  V30 15 1 15 16
M  V30 16 1 16 17
M  V30 17 1 17 18
M  V30 18 1 16 19
M  V30 19 2 19 20
M  V30 20 1 20 21
M  V30 21 2 21 22
M  V30 22 1 22 23
M  V30 23 1 22 24
M  V30 24 1 24 25
M  V30 25 2 24 26
M  V30 26 1 15 27
M  V30 27 2 27 28
M  V30 28 1 27 29
M  V30 29 2 11 30
M  V30 30 1 5 31
M  V30 31 2 31 32
M  V30 32 1 32 3
M  V30 33 1 30 7
M  V30 34 2 29 12
M  V30 35 1 26 19
M  V30 36 1 1 33
M  V30 37 1 1 34
M  V30 38 1 1 35
M  V30 39 1 2 36
M  V30 40 1 2 37
M  V30 41 1 4 38
M  V30 42 1 6 39
M  V30 43 1 9 40
M  V30 44 1 10 41
M  V30 45 1 13 42
M  V30 46 1 14 43
M  V30 47 1 16 44 CFG=3
M  V30 48 1 17 45
M  V30 49 1 17 46
M  V30 50 1 18 47
M  V30 51 1 20 48
M  V30 52 1 21 49
M  V30 53 1 26 50
M  V30 54 1 29 51
M  V30 55 1 31 52
M  V30 END BOND
M  V30 END CTAB
M  END
>  <Dataset>  (120) 
ChEMBL_Kinases

>  <Ligand_Instance>  (120) 
nan

>  <PDB_ID>  (120) 
nan

>  <Standardized_SMILES>  (120) 
CCn1cc(Nc2nccc(-c3ccn([C@H](CO)c4ccc(Cl)c(F)c4)c(=O)c3)n2)cn1

>  <Name>  (120) 
nan

>  <Pocket>  (120) 
nan

>  <ATP_Site>  (120) 
nan

>  <Peripheral>  (120) 
nan

>  <Num_H_Atoms_ProtBoundConf>  (120) 
nan

>  <Num_Resolved_Atoms>  (120) 
nan

>  <Num_Not_Resolved_Atoms>  (120) 
nan

$$$$
CHEMBL3687532
     RDKit          3D

  0  0  0  0  0  0  0  0  0  0999 V3000
M  V30 BEGIN CTAB
M  V30 COUNTS 65 69 0 0 0
M  V30 BEGIN ATOM
M  V30 1 C 2.343052 1.115147 2.272495 0
M  V30 2 C 1.495834 0.039275 1.595027 0 CFG=1
M  V30 3 C 2.446054 -0.786494 0.789237 0
M  V30 4 C 1.643776 -1.943104 0.245694 0 CFG=1
M  V30 5 C 2.243837 -2.606448 -0.922280 0
M  V30 6 C 3.115195 -3.650532 -0.887021 0
M  V30 7 C 3.626466 -4.207084 -2.054081 0
M  V30 8 N 3.278940 -3.733822 -3.271392 0
M  V30 9 C 2.418032 -2.701317 -3.325529 0
M  V30 10 C 1.877633 -2.108965 -2.179174 0
M  V30 11 N 0.972970 -1.020807 -2.326358 0
M  V30 12 C 1.039782 0.394654 -2.407578 0
M  V30 13 O 2.133529 1.016426 -2.349188 0
M  V30 14 C -0.263120 1.021952 -2.561358 0
M  V30 15 C -0.261283 2.391319 -2.644331 0
M  V30 16 C -1.424197 3.137244 -2.792369 0
M  V30 17 C -2.618056 2.469777 -2.857345 0
M  V30 18 F -3.833147 3.050631 -3.000000 0
M  V30 19 C -2.610436 1.093093 -2.773110 0
M  V30 20 C -3.770081 0.210522 -2.822269 0
M  V30 21 C -4.381111 -0.387675 -3.900822 0
M  V30 22 F -3.782858 -0.084867 -5.085296 0
M  V30 23 C -5.472811 -1.190140 -3.721659 0
M  V30 24 C -5.979051 -1.410359 -2.437284 0
M  V30 25 C -5.390255 -0.826009 -1.335082 0
M  V30 26 C -4.283088 -0.016130 -1.548028 0
M  V30 27 F -3.785422 0.507753 -0.379857 0
M  V30 28 N -1.462817 0.407857 -2.630096 0
M  V30 29 C 1.422686 -2.838001 1.432856 0
M  V30 30 C 0.426286 -2.147751 2.318608 0 CFG=1
M  V30 31 N 0.415429 -2.897378 3.571325 0
M  V30 32 C 0.669940 -0.708797 2.594578 0 CFG=1
M  V30 33 O 1.133707 -0.559848 3.901162 0
M  V30 34 C 0.530536 0.022149 4.969686 0
M  V30 35 C -0.687972 0.621946 5.074193 0
M  V30 36 C -1.188791 1.179972 6.227802 0
M  V30 37 C -0.390001 1.120246 7.348376 0
M  V30 38 C 0.846648 0.515926 7.258204 0
M  V30 39 N 1.307804 -0.026735 6.092961 0
M  V30 40 H 1.700431 1.954162 2.551684 0
M  V30 41 H 3.080182 1.485134 1.509425 0
M  V30 42 H 2.961245 0.721133 3.096796 0
M  V30 43 H 0.855743 0.579907 0.867780 0
M  V30 44 H 3.221366 -1.222079 1.482525 0
M  V30 45 H 2.886151 -0.150714 0.022977 0
M  V30 46 H 0.637909 -1.539318 -0.022313 0
M  V30 47 H 3.404113 -4.041255 0.058885 0
M  V30 48 H 4.326868 -5.045717 -2.044383 0
M  V30 49 H 2.114267 -2.293107 -4.276965 0
M  V30 50 H 0.094275 -1.590700 -2.369384 0
M  V30 51 H 0.660746 2.965947 -2.597494 0
M  V30 52 H -1.436484 4.214464 -2.859003 0
M  V30 53 H -5.901409 -1.627141 -4.615861 0
M  V30 54 H -6.847591 -2.056106 -2.355066 0
M  V30 55 H -5.824797 -1.032996 -0.377271 0
M  V30 56 H 2.365267 -3.092522 1.947025 0
M  V30 57 H 0.986630 -3.781829 1.080571 0
M  V30 58 H -0.575011 -2.352279 1.858399 0
M  V30 59 H 0.089432 -3.862084 3.479580 0
M  V30 60 H -0.117491 -2.413238 4.301994 0
M  V30 61 H -0.347168 -0.234458 2.584049 0
M  V30 62 H -1.262167 0.639551 4.178618 0
M  V30 63 H -2.181663 1.629328 6.173062 0
M  V30 64 H -0.773207 1.556365 8.262747 0
M  V30 65 H 1.397661 0.518119 8.185713 0
M  V30 END ATOM
M  V30 BEGIN BOND
M  V30 1 1 1 2
M  V30 2 1 2 3
M  V30 3 1 3 4
M  V30 4 1 4 5
M  V30 5 2 5 6
M  V30 6 1 6 7
M  V30 7 2 7 8
M  V30 8 1 8 9
M  V30 9 2 9 10
M  V30 10 1 10 11
M  V30 11 1 11 12
M  V30 12 2 12 13
M  V30 13 1 12 14
M  V30 14 2 14 15
M  V30 15 1 15 16
M  V30 16 2 16 17
M  V30 17 1 17 18
M  V30 18 1 17 19
M  V30 19 1 19 20
M  V30 20 2 20 21
M  V30 21 1 21 22
M  V30 22 1 21 23
M  V30 23 2 23 24
M  V30 24 1 24 25
M  V30 25 2 25 26
M  V30 26 1 26 27
M  V30 27 2 19 28
M  V30 28 1 4 29
M  V30 29 1 29 30
M  V30 30 1 30 31
M  V30 31 1 30 32
M  V30 32 1 32 33
M  V30 33 1 33 34
M  V30 34 2 34 35
M  V30 35 1 35 36
M  V30 36 2 36 37
M  V30 37 1 37 38
M  V30 38 2 38 39
M  V30 39 1 32 2
M  V30 40 1 39 34
M  V30 41 1 10 5
M  V30 42 1 28 14
M  V30 43 1 26 20
M  V30 44 1 1 40
M  V30 45 1 1 41
M  V30 46 1 1 42
M  V30 47 1 2 43 CFG=3
M  V30 48 1 3 44
M  V30 49 1 3 45
M  V30 50 1 4 46 CFG=3
M  V30 51 1 6 47
M  V30 52 1 7 48
M  V30 53 1 9 49
M  V30 54 1 11 50
M  V30 55 1 15 51
M  V30 56 1 16 52
M  V30 57 1 23 53
M  V30 58 1 24 54
M  V30 59 1 25 55
M  V30 60 1 29 56
M  V30 61 1 29 57
M  V30 62 1 30 58 CFG=3
M  V30 63 1 31 59
M  V30 64 1 31 60
M  V30 65 1 32 61 CFG=1
M  V30 66 1 35 62
M  V30 67 1 36 63
M  V30 68 1 37 64
M  V30 69 1 38 65
M  V30 END BOND
M  V30 END CTAB
M  END
>  <Dataset>  (121) 
ChEMBL_Kinases

>  <Ligand_Instance>  (121) 
nan

>  <PDB_ID>  (121) 
nan

>  <Standardized_SMILES>  (121) 
C[C@H]1C[C@@H](c2ccncc2NC(=O)c2ccc(F)c(-c3c(F)cccc3F)n2)C[C@@H](N)[C@H]1Oc1ccccn1

>  <Name>  (121) 
nan

>  <Pocket>  (121) 
nan

>  <ATP_Site>  (121) 
nan

>  <Peripheral>  (121) 
nan

>  <Num_H_Atoms_ProtBoundConf>  (121) 
nan

>  <Num_Resolved_Atoms>  (121) 
nan

>  <Num_Not_Resolved_Atoms>  (121) 
nan

$$$$
CHEMBL4443684
     RDKit          3D

  0  0  0  0  0  0  0  0  0  0999 V3000
M  V30 BEGIN CTAB
M  V30 COUNTS 66 70 0 0 0
M  V30 BEGIN ATOM
M  V30 1 C 3.933804 -2.406242 4.421286 0
M  V30 2 C 3.990534 -0.921634 4.675364 0 CFG=1
M  V30 3 N 5.353322 -0.583393 5.029510 0
M  V30 4 C 5.919284 0.262176 4.034461 0
M  V30 5 O 7.084142 0.740875 4.030078 0
M  V30 6 C 4.899361 0.476061 3.012924 0
M  V30 7 C 4.550788 1.070916 1.818640 0
M  V30 8 C 3.252699 0.763022 1.458163 0
M  V30 9 C 2.663763 1.280489 0.230126 0
M  V30 10 C 3.337399 2.100153 -0.651705 0
M  V30 11 C 2.742200 2.567979 -1.803485 0
M  V30 12 C 1.444229 2.245006 -2.139484 0
M  V30 13 C 0.746581 1.426329 -1.275153 0
M  V30 14 C -0.549307 1.110334 -1.621540 0
M  V30 15 O -1.068016 1.552416 -2.681357 0
M  V30 16 N -1.269241 0.316088 -0.811585 0
M  V30 17 C -2.609858 -0.065286 -1.111794 0
M  V30 18 C -2.675442 -1.358860 -1.913637 0 CFG=1
M  V30 19 C -4.123148 -1.708826 -2.199629 0
M  V30 20 N -4.158022 -2.589447 -3.334901 0
M  V30 21 C -4.829250 -1.937258 -4.420076 0
M  V30 22 C -2.904277 -3.192755 -3.671614 0
M  V30 23 C -1.807110 -2.164238 -3.902191 0
M  V30 24 O -2.116253 -1.047276 -3.160351 0
M  V30 25 C -0.692359 -0.139585 0.309649 0
M  V30 26 N -1.269069 -0.970455 1.316116 0
M  V30 27 C -1.987496 -1.047641 2.550231 0
M  V30 28 C -2.236626 -2.505784 2.960292 0
M  V30 29 C -3.341045 -0.393532 2.534018 0
M  V30 30 C -1.120436 -0.380749 3.624033 0
M  V30 31 N 0.575577 0.188648 0.616942 0
M  V30 32 C 1.368626 0.974239 -0.131075 0
M  V30 33 N 2.821629 -0.024172 2.447948 0
M  V30 34 C 3.765765 -0.216233 3.383983 0
M  V30 35 H 4.918503 -2.805958 4.101140 0
M  V30 36 H 3.124689 -2.678749 3.712735 0
M  V30 37 H 3.660212 -2.901091 5.396583 0
M  V30 38 H 3.249499 -0.657043 5.439945 0
M  V30 39 H 5.785736 -0.948662 5.907399 0
M  V30 40 H 5.269651 1.697370 1.279713 0
M  V30 41 H 4.369317 2.379349 -0.420910 0
M  V30 42 H 3.353501 3.216558 -2.449444 0
M  V30 43 H 1.085115 2.670775 -3.066872 0
M  V30 44 H -2.998349 0.715802 -1.836597 0
M  V30 45 H -3.325788 -0.029089 -0.280346 0
M  V30 46 H -2.215024 -2.211080 -1.416311 0
M  V30 47 H -4.520029 -2.283752 -1.319560 0
M  V30 48 H -4.762764 -0.812532 -2.318046 0
M  V30 49 H -5.466150 -2.647994 -4.987792 0
M  V30 50 H -5.523904 -1.180831 -3.985634 0
M  V30 51 H -4.085797 -1.414851 -5.072031 0
M  V30 52 H -3.040265 -3.704061 -4.646001 0
M  V30 53 H -2.639437 -3.937644 -2.905752 0
M  V30 54 H -0.813811 -2.524585 -3.572295 0
M  V30 55 H -1.765734 -1.855315 -4.966318 0
M  V30 56 H -1.002282 -1.899361 0.868442 0
M  V30 57 H -3.190858 -2.806208 2.481669 0
M  V30 58 H -1.449999 -3.092650 2.442053 0
M  V30 59 H -2.216972 -2.600340 4.044859 0
M  V30 60 H -3.312796 0.631087 2.111370 0
M  V30 61 H -4.087749 -1.035718 2.050013 0
M  V30 62 H -3.646201 -0.254618 3.608200 0
M  V30 63 H -0.585312 0.494581 3.188208 0
M  V30 64 H -0.392635 -1.114085 4.006922 0
M  V30 65 H -1.776304 0.024253 4.426198 0
M  V30 66 H 1.865971 -0.429225 2.471512 0
M  V30 END ATOM
M  V30 BEGIN BOND
M  V30 1 1 1 2
M  V30 2 1 2 3
M  V30 3 1 3 4
M  V30 4 2 4 5
M  V30 5 1 4 6
M  V30 6 1 6 7
M  V30 7 2 7 8
M  V30 8 1 8 9
M  V30 9 2 9 10
M  V30 10 1 10 11
M  V30 11 2 11 12
M  V30 12 1 12 13
M  V30 13 1 13 14
M  V30 14 2 14 15
M  V30 15 1 14 16
M  V30 16 1 16 17
M  V30 17 1 17 18
M  V30 18 1 18 19
M  V30 19 1 19 20
M  V30 20 1 20 21
M  V30 21 1 20 22
M  V30 22 1 22 23
M  V30 23 1 23 24
M  V30 24 1 16 25
M  V30 25 1 25 26
M  V30 26 1 26 27
M  V30 27 1 27 28
M  V30 28 1 27 29
M  V30 29 1 27 30
M  V30 30 2 25 31
M  V30 31 1 31 32
M  V30 32 1 8 33
M  V30 33 1 33 34
M  V30 34 1 34 2
M  V30 35 2 34 6
M  V30 36 1 32 9
M  V30 37 2 32 13
M  V30 38 1 24 18
M  V30 39 1 1 35
M  V30 40 1 1 36
M  V30 41 1 1 37
M  V30 42 1 2 38 CFG=1
M  V30 43 1 3 39
M  V30 44 1 7 40
M  V30 45 1 10 41
M  V30 46 1 11 42
M  V30 47 1 12 43
M  V30 48 1 17 44
M  V30 49 1 17 45
M  V30 50 1 18 46 CFG=1
M  V30 51 1 19 47
M  V30 52 1 19 48
M  V30 53 1 21 49
M  V30 54 1 21 50
M  V30 55 1 21 51
M  V30 56 1 22 52
M  V30 57 1 22 53
M  V30 58 1 23 54
M  V30 59 1 23 55
M  V30 60 1 26 56
M  V30 61 1 28 57
M  V30 62 1 28 58
M  V30 63 1 28 59
M  V30 64 1 29 60
M  V30 65 1 29 61
M  V30 66 1 29 62
M  V30 67 1 30 63
M  V30 68 1 30 64
M  V30 69 1 30 65
M  V30 70 1 33 66
M  V30 END BOND
M  V30 END CTAB
M  END
>  <Dataset>  (122) 
ChEMBL_Kinases

>  <Ligand_Instance>  (122) 
nan

>  <PDB_ID>  (122) 
nan

>  <Standardized_SMILES>  (122) 
C[C@H]1NC(=O)c2cc(-c3cccc4c(=O)n(C[C@H]5CN(C)CCO5)c(NC(C)(C)C)nc34)[nH]c21

>  <Name>  (122) 
nan

>  <Pocket>  (122) 
nan

>  <ATP_Site>  (122) 
nan

>  <Peripheral>  (122) 
nan

>  <Num_H_Atoms_ProtBoundConf>  (122) 
nan

>  <Num_Resolved_Atoms>  (122) 
nan

>  <Num_Not_Resolved_Atoms>  (122) 
nan

$$$$
CHEMBL246089
     RDKit          3D

  0  0  0  0  0  0  0  0  0  0999 V3000
M  V30 BEGIN CTAB
M  V30 COUNTS 48 51 0 0 0
M  V30 BEGIN ATOM
M  V30 1 C 2.785675 -3.036601 2.443403 0
M  V30 2 C 3.682396 -2.037734 3.116184 0
M  V30 3 C 5.018666 -2.603918 3.488889 0
M  V30 4 N 5.757704 -1.575359 4.205480 0
M  V30 5 C 5.981664 -0.349220 3.490989 0
M  V30 6 O 7.014952 0.351691 3.700531 0
M  V30 7 C 4.942895 0.032077 2.512136 0
M  V30 8 N 4.893817 1.109126 1.716617 0
M  V30 9 C 3.750027 0.997131 1.015018 0
M  V30 10 C 3.271450 1.880272 0.063538 0
M  V30 11 C 2.063279 1.555003 -0.531068 0
M  V30 12 C 1.385781 0.425145 -0.194204 0
M  V30 13 C 0.099897 0.042666 -0.801290 0
M  V30 14 O -0.521775 -1.024806 -0.471705 0
M  V30 15 N -0.552651 0.802618 -1.782916 0
M  V30 16 C -1.789222 0.137599 -2.156911 0
M  V30 17 N -2.899401 0.299535 -1.638979 0
M  V30 18 C -3.975861 -0.337085 -2.029459 0
M  V30 19 C -5.282392 -0.142829 -1.415660 0
M  V30 20 O -6.314580 -0.745797 -1.781465 0
M  V30 21 N -5.507753 0.753019 -0.339990 0
M  V30 22 C -6.877817 0.809469 0.138116 0
M  V30 23 C -7.359729 -0.514543 0.631870 0
M  V30 24 N -6.703502 -1.775796 0.701947 0
M  V30 25 O -8.431215 -0.961886 1.124817 0
M  V30 26 C -3.793237 -1.257525 -3.119998 0
M  V30 27 S -2.044554 -1.079213 -3.448340 0
M  V30 28 C 1.908791 -0.425168 0.764381 0
M  V30 29 C 3.108619 -0.170044 1.402918 0
M  V30 30 C 3.869070 -0.797758 2.366165 0
M  V30 31 H 3.099621 -4.039554 2.857491 0
M  V30 32 H 2.917413 -3.127108 1.361584 0
M  V30 33 H 1.753065 -2.901268 2.795849 0
M  V30 34 H 3.193885 -1.749528 4.091399 0
M  V30 35 H 5.617135 -2.904749 2.590190 0
M  V30 36 H 4.820827 -3.487448 4.129244 0
M  V30 37 H 6.140586 -1.644891 5.190291 0
M  V30 38 H 5.601780 1.862059 1.667238 0
M  V30 39 H 3.795127 2.770180 -0.208577 0
M  V30 40 H 1.657900 2.225663 -1.282280 0
M  V30 41 H -0.126286 1.686719 -2.116211 0
M  V30 42 H -4.692522 1.304075 0.033006 0
M  V30 43 H -6.922934 1.492823 1.014869 0
M  V30 44 H -7.565347 1.203345 -0.651914 0
M  V30 45 H -6.005684 -2.367206 1.205658 0
M  V30 46 H -6.730496 -2.654124 0.166626 0
M  V30 47 H -4.665226 -1.876865 -3.552917 0
M  V30 48 H 1.374184 -1.319405 1.032168 0
M  V30 END ATOM
M  V30 BEGIN BOND
M  V30 1 1 1 2
M  V30 2 1 2 3
M  V30 3 1 3 4
M  V30 4 1 4 5
M  V30 5 2 5 6
M  V30 6 1 5 7
M  V30 7 1 7 8
M  V30 8 1 8 9
M  V30 9 2 9 10
M  V30 10 1 10 11
M  V30 11 2 11 12
M  V30 12 1 12 13
M  V30 13 2 13 14
M  V30 14 1 13 15
M  V30 15 1 15 16
M  V30 16 2 16 17
M  V30 17 1 17 18
M  V30 18 1 18 19
M  V30 19 2 19 20
M  V30 20 1 19 21
M  V30 21 1 21 22
M  V30 22 1 22 23
M  V30 23 1 23 24
M  V30 24 2 23 25
M  V30 25 2 18 26
M  V30 26 1 26 27
M  V30 27 1 12 28
M  V30 28 2 28 29
M  V30 29 1 29 30
M  V30 30 1 30 2
M  V30 31 2 30 7
M  V30 32 1 29 9
M  V30 33 1 27 16
M  V30 34 1 1 31
M  V30 35 1 1 32
M  V30 36 1 1 33
M  V30 37 1 2 34
M  V30 38 1 3 35
M  V30 39 1 3 36
M  V30 40 1 4 37
M  V30 41 1 8 38
M  V30 42 1 10 39
M  V30 43 1 11 40
M  V30 44 1 15 41
M  V30 45 1 21 42
M  V30 46 1 22 43
M  V30 47 1 22 44
M  V30 48 1 24 45
M  V30 49 1 24 46
M  V30 50 1 26 47
M  V30 51 1 28 48
M  V30 END BOND
M  V30 END CTAB
M  END
>  <Dataset>  (123) 
ChEMBL_Kinases

>  <Ligand_Instance>  (123) 
nan

>  <PDB_ID>  (123) 
nan

>  <Standardized_SMILES>  (123) 
CC1CNC(=O)c2[nH]c3ccc(C(=O)Nc4nc(C(=O)NCC(N)=O)cs4)cc3c21

>  <Name>  (123) 
nan

>  <Pocket>  (123) 
nan

>  <ATP_Site>  (123) 
nan

>  <Peripheral>  (123) 
nan

>  <Num_H_Atoms_ProtBoundConf>  (123) 
nan

>  <Num_Resolved_Atoms>  (123) 
nan

>  <Num_Not_Resolved_Atoms>  (123) 
nan

$$$$
CHEMBL4443551
     RDKit          3D

  0  0  0  0  0  0  0  0  0  0999 V3000
M  V30 BEGIN CTAB
M  V30 COUNTS 68 71 0 0 0
M  V30 BEGIN ATOM
M  V30 1 C 2.350887 -0.869761 5.027849 0
M  V30 2 C 2.257667 -0.447283 3.586507 0
M  V30 3 C 2.864545 0.755093 3.236020 0
M  V30 4 C 2.777559 1.144466 1.892734 0
M  V30 5 C 2.116298 0.366047 0.952812 0
M  V30 6 C 2.104952 0.899642 -0.404424 0
M  V30 7 O 2.621944 2.004360 -0.620598 0
M  V30 8 N 1.526555 0.218417 -1.520711 0
M  V30 9 C 1.540655 0.805485 -2.875104 0 CFG=1
M  V30 10 C 2.296179 -0.086485 -3.761529 0
M  V30 11 C 2.468530 0.283435 -5.200842 0
M  V30 12 C 3.148387 1.575897 -5.443647 0
M  V30 13 C 2.346357 2.593148 -6.205121 0
M  V30 14 C 1.795895 1.887733 -7.423118 0
M  V30 15 C 0.714535 0.980888 -6.905299 0
M  V30 16 C 1.297192 -0.063268 -6.040700 0
M  V30 17 C 0.123562 1.046974 -3.210016 0
M  V30 18 N -0.949385 0.707175 -2.331177 0
M  V30 19 O -0.897392 1.416089 -3.875317 0
M  V30 20 C 1.529129 -0.810922 1.325809 0
M  V30 21 C 1.608358 -1.193761 2.621521 0
M  V30 22 N 1.024485 -2.406115 3.146565 0
M  V30 23 C -0.288838 -2.035147 3.568631 0
M  V30 24 O -0.569187 -0.832820 3.381966 0
M  V30 25 C -1.282999 -2.922412 4.176485 0
M  V30 26 C -1.232018 -4.265991 4.481565 0
M  V30 27 N -2.434682 -4.592903 5.037996 0
M  V30 28 N -3.193991 -3.486560 5.071424 0
M  V30 29 C -4.519380 -3.461050 5.594556 0
M  V30 30 C -5.725437 -3.805559 5.036050 0
M  V30 31 C -6.870998 -3.678260 5.792147 0
M  V30 32 C -6.849748 -3.215875 7.093447 0
M  V30 33 C -5.646653 -2.867418 7.664631 0
M  V30 34 C -4.487865 -2.992280 6.910727 0
M  V30 35 C -2.521281 -2.439088 4.550573 0
M  V30 36 N -3.071777 -1.140409 4.454902 0
M  V30 37 H 3.078817 -1.694063 5.149362 0
M  V30 38 H 1.342193 -1.224356 5.322899 0
M  V30 39 H 2.595846 -0.008172 5.651879 0
M  V30 40 H 3.373093 1.341188 3.984978 0
M  V30 41 H 3.275977 2.100079 1.682929 0
M  V30 42 H 1.081411 -0.726396 -1.360488 0
M  V30 43 H 1.999165 1.804998 -2.717403 0
M  V30 44 H 3.261107 -0.338854 -3.266941 0
M  V30 45 H 1.750052 -1.079258 -3.772729 0
M  V30 46 H 3.250428 -0.496007 -5.537205 0
M  V30 47 H 3.506665 1.984198 -4.453112 0
M  V30 48 H 4.087377 1.475969 -6.024877 0
M  V30 49 H 3.017829 3.393940 -6.541309 0
M  V30 50 H 1.504369 3.028583 -5.669320 0
M  V30 51 H 1.311154 2.636679 -8.103282 0
M  V30 52 H 2.542606 1.267864 -7.951239 0
M  V30 53 H -0.149246 1.544217 -6.491981 0
M  V30 54 H 0.284665 0.486116 -7.825983 0
M  V30 55 H 0.486968 -0.409159 -5.326747 0
M  V30 56 H 1.442928 -0.996351 -6.676723 0
M  V30 57 H -1.720633 0.412102 -1.679496 0
M  V30 58 H -1.128635 -0.211027 -1.846641 0
M  V30 59 H 1.024643 -1.405842 0.613048 0
M  V30 60 H 1.286159 -3.423660 3.294236 0
M  V30 61 H -0.334225 -4.843701 4.265777 0
M  V30 62 H -5.611358 -4.147335 4.026992 0
M  V30 63 H -7.784780 -3.965388 5.292970 0
M  V30 64 H -7.796642 -3.154032 7.595955 0
M  V30 65 H -5.699811 -2.519816 8.666952 0
M  V30 66 H -3.610190 -2.678726 7.496392 0
M  V30 67 H -2.818983 -0.582833 5.320977 0
M  V30 68 H -3.638213 -0.823307 3.627583 0
M  V30 END ATOM
M  V30 BEGIN BOND
M  V30 1 1 1 2
M  V30 2 2 2 3
M  V30 3 1 3 4
M  V30 4 2 4 5
M  V30 5 1 5 6
M  V30 6 2 6 7
M  V30 7 1 6 8
M  V30 8 1 8 9
M  V30 9 1 9 10
M  V30 10 1 10 11
M  V30 11 1 11 12
M  V30 12 1 12 13
M  V30 13 1 13 14
M  V30 14 1 14 15
M  V30 15 1 15 16
M  V30 16 1 9 17
M  V30 17 1 17 18
M  V30 18 2 17 19
M  V30 19 1 5 20
M  V30 20 2 20 21
M  V30 21 1 21 22
M  V30 22 1 22 23
M  V30 23 2 23 24
M  V30 24 1 23 25
M  V30 25 1 25 26
M  V30 26 2 26 27
M  V30 27 1 27 28
M  V30 28 1 28 29
M  V30 29 2 29 30
M  V30 30 1 30 31
M  V30 31 2 31 32
M  V30 32 1 32 33
M  V30 33 2 33 34
M  V30 34 1 28 35
M  V30 35 1 35 36
M  V30 36 1 21 2
M  V30 37 2 35 25
M  V30 38 1 16 11
M  V30 39 1 34 29
M  V30 40 1 1 37
M  V30 41 1 1 38
M  V30 42 1 1 39
M  V30 43 1 3 40
M  V30 44 1 4 41
M  V30 45 1 8 42
M  V30 46 1 9 43 CFG=1
M  V30 47 1 10 44
M  V30 48 1 10 45
M  V30 49 1 11 46
M  V30 50 1 12 47
M  V30 51 1 12 48
M  V30 52 1 13 49
M  V30 53 1 13 50
M  V30 54 1 14 51
M  V30 55 1 14 52
M  V30 56 1 15 53
M  V30 57 1 15 54
M  V30 58 1 16 55
M  V30 59 1 16 56
M  V30 60 1 18 57
M  V30 61 1 18 58
M  V30 62 1 20 59
M  V30 63 1 22 60
M  V30 64 1 26 61
M  V30 65 1 30 62
M  V30 66 1 31 63
M  V30 67 1 32 64
M  V30 68 1 33 65
M  V30 69 1 34 66
M  V30 70 1 36 67
M  V30 71 1 36 68
M  V30 END BOND
M  V30 END CTAB
M  END
>  <Dataset>  (124) 
ChEMBL_Kinases

>  <Ligand_Instance>  (124) 
nan

>  <PDB_ID>  (124) 
nan

>  <Standardized_SMILES>  (124) 
Cc1ccc(C(=O)N[C@@H](CC2CCCCC2)C(N)=O)cc1NC(=O)c1cnn(-c2ccccc2)c1N

>  <Name>  (124) 
nan

>  <Pocket>  (124) 
nan

>  <ATP_Site>  (124) 
nan

>  <Peripheral>  (124) 
nan

>  <Num_H_Atoms_ProtBoundConf>  (124) 
nan

>  <Num_Resolved_Atoms>  (124) 
nan

>  <Num_Not_Resolved_Atoms>  (124) 
nan

$$$$
CHEMBL4443472
     RDKit          3D

  0  0  0  0  0  0  0  0  0  0999 V3000
M  V30 BEGIN CTAB
M  V30 COUNTS 53 56 0 0 0
M  V30 BEGIN ATOM
M  V30 1 C 3.364797 -3.976665 4.680445 0
M  V30 2 C 3.793924 -3.788986 3.236051 0
M  V30 3 C 5.140863 -4.431662 2.975065 0
M  V30 4 O 2.789370 -4.302444 2.400658 0
M  V30 5 C 2.086184 -3.495411 1.535949 0
M  V30 6 C 2.156324 -2.147523 1.276903 0
M  V30 7 C 1.354319 -1.503170 0.358581 0
M  V30 8 C 1.552940 -0.058403 0.197436 0
M  V30 9 C 2.776411 0.562281 0.354444 0
M  V30 10 N 2.836524 1.896984 0.182594 0
M  V30 11 C 1.749602 2.620342 -0.132349 0
M  V30 12 C 0.503615 2.003840 -0.294317 0
M  V30 13 C -0.721227 2.757027 -0.639856 0
M  V30 14 C -0.943551 3.896649 -1.392197 0
M  V30 15 N -2.272217 4.161362 -1.384884 0
M  V30 16 N -2.895342 3.246717 -0.666668 0
M  V30 17 C -4.319777 3.108389 -0.366809 0
M  V30 18 C -4.807114 1.727127 -0.618814 0
M  V30 19 C -6.028722 1.932474 -1.480144 0
M  V30 20 O -5.896111 3.182301 -2.062023 0
M  V30 21 C -5.165559 3.972858 -1.224337 0
M  V30 22 C -1.991879 2.372242 -0.194111 0
M  V30 23 C 0.403965 0.638202 -0.126145 0
M  V30 24 C 0.413869 -2.206785 -0.365955 0
M  V30 25 C 0.315845 -3.562223 -0.131770 0
M  V30 26 C 1.131298 -4.205711 0.799276 0
M  V30 27 C 0.928110 -5.640241 0.952325 0
M  V30 28 N -0.024981 -6.363871 0.224886 0
M  V30 29 O 1.638252 -6.287578 1.779692 0
M  V30 30 H 2.915060 -3.031117 5.099253 0
M  V30 31 H 2.534050 -4.712952 4.737550 0
M  V30 32 H 4.188812 -4.289178 5.324831 0
M  V30 33 H 3.964008 -2.703192 3.124313 0
M  V30 34 H 5.891882 -3.884498 3.582976 0
M  V30 35 H 5.140840 -5.511343 3.221944 0
M  V30 36 H 5.382874 -4.200497 1.920268 0
M  V30 37 H 2.888748 -1.619835 1.846703 0
M  V30 38 H 3.632514 -0.076462 0.611802 0
M  V30 39 H 1.814975 3.690052 -0.266486 0
M  V30 40 H -0.112331 4.401178 -1.857436 0
M  V30 41 H -4.494782 3.343697 0.712753 0
M  V30 42 H -5.104880 1.188690 0.305814 0
M  V30 43 H -4.064380 1.063045 -1.108956 0
M  V30 44 H -6.957264 1.866779 -0.862816 0
M  V30 45 H -5.999191 1.174309 -2.289393 0
M  V30 46 H -5.849661 4.596136 -0.576867 0
M  V30 47 H -4.569795 4.715624 -1.823944 0
M  V30 48 H -2.181819 1.509190 0.426293 0
M  V30 49 H -0.575654 0.181173 -0.257762 0
M  V30 50 H -0.206662 -1.689346 -1.081260 0
M  V30 51 H -0.429025 -4.145075 -0.699426 0
M  V30 52 H -1.058349 -6.446527 0.096013 0
M  V30 53 H -1.033633 -6.541955 0.007511 0
M  V30 END ATOM
M  V30 BEGIN BOND
M  V30 1 1 1 2
M  V30 2 1 2 3
M  V30 3 1 2 4
M  V30 4 1 4 5
M  V30 5 2 5 6
M  V30 6 1 6 7
M  V30 7 1 7 8
M  V30 8 2 8 9
M  V30 9 1 9 10
M  V30 10 2 10 11
M  V30 11 1 11 12
M  V30 12 1 12 13
M  V30 13 1 13 14
M  V30 14 2 14 15
M  V30 15 1 15 16
M  V30 16 1 16 17
M  V30 17 1 17 18
M  V30 18 1 18 19
M  V30 19 1 19 20
M  V30 20 1 20 21
M  V30 21 1 16 22
M  V30 22 2 12 23
M  V30 23 2 7 24
M  V30 24 1 24 25
M  V30 25 2 25 26
M  V30 26 1 26 27
M  V30 27 1 27 28
M  V30 28 2 27 29
M  V30 29 1 26 5
M  V30 30 1 23 8
M  V30 31 2 22 13
M  V30 32 1 21 17
M  V30 33 1 1 30
M  V30 34 1 1 31
M  V30 35 1 1 32
M  V30 36 1 2 33
M  V30 37 1 3 34
M  V30 38 1 3 35
M  V30 39 1 3 36
M  V30 40 1 6 37
M  V30 41 1 9 38
M  V30 42 1 11 39
M  V30 43 1 14 40
M  V30 44 1 17 41
M  V30 45 1 18 42
M  V30 46 1 18 43
M  V30 47 1 19 44
M  V30 48 1 19 45
M  V30 49 1 21 46
M  V30 50 1 21 47
M  V30 51 1 22 48
M  V30 52 1 23 49
M  V30 53 1 24 50
M  V30 54 1 25 51
M  V30 55 1 28 52
M  V30 56 1 28 53
M  V30 END BOND
M  V30 END CTAB
M  END
>  <Dataset>  (125) 
ChEMBL_Kinases

>  <Ligand_Instance>  (125) 
nan

>  <PDB_ID>  (125) 
nan

>  <Standardized_SMILES>  (125) 
CC(C)Oc1cc(-c2cncc(-c3cnn(C4CCOC4)c3)c2)ccc1C(N)=O

>  <Name>  (125) 
nan

>  <Pocket>  (125) 
nan

>  <ATP_Site>  (125) 
nan

>  <Peripheral>  (125) 
nan

>  <Num_H_Atoms_ProtBoundConf>  (125) 
nan

>  <Num_Resolved_Atoms>  (125) 
nan

>  <Num_Not_Resolved_Atoms>  (125) 
nan

$$$$
CHEMBL3702074
     RDKit          3D

  0  0  0  0  0  0  0  0  0  0999 V3000
M  V30 BEGIN CTAB
M  V30 COUNTS 60 65 0 0 0
M  V30 BEGIN ATOM
M  V30 1 F 4.312054 -6.064557 1.880644 0
M  V30 2 C 3.427956 -5.541123 0.944299 0
M  V30 3 F 2.198699 -5.353570 1.574694 0
M  V30 4 F 3.337707 -6.445263 -0.092021 0
M  V30 5 C 3.923552 -4.195606 0.486765 0
M  V30 6 C 2.997176 -3.578992 -0.535233 0
M  V30 7 N 3.555306 -2.297527 -0.916379 0
M  V30 8 C 2.984543 -0.991262 -0.889301 0
M  V30 9 C 3.622047 0.165379 -1.286438 0
M  V30 10 C 2.921284 1.348566 -1.194014 0
M  V30 11 C 1.627392 1.487354 -0.736556 0
M  V30 12 N 0.976244 2.750958 -0.673657 0
M  V30 13 C -0.360655 2.837100 -0.193059 0
M  V30 14 N -0.966639 4.038176 -0.137896 0
M  V30 15 C -2.237164 4.109375 0.320300 0
M  V30 16 C -2.920187 2.976442 0.730574 0
M  V30 17 C -4.165586 2.726809 1.224409 0
M  V30 18 C -5.211105 3.602884 1.487028 0
M  V30 19 C -6.409834 3.098260 1.999361 0
M  V30 20 N -6.485740 1.770841 2.213135 0
M  V30 21 C -5.453467 0.931413 1.950267 0
M  V30 22 C -4.263673 1.371819 1.450217 0
M  V30 23 N -3.106027 0.749203 1.110818 0
M  V30 24 C -2.793977 -0.623974 1.188065 0
M  V30 25 C -3.622071 -1.583840 0.413378 0
M  V30 26 C -2.765738 -2.829900 0.649062 0
M  V30 27 C -2.611137 -2.744979 2.171567 0
M  V30 28 C -2.769100 -1.264177 2.533774 0
M  V30 29 C -2.302768 1.770840 0.671833 0
M  V30 30 N -1.022019 1.742786 0.203831 0
M  V30 31 N 1.026278 0.337030 -0.353722 0
M  V30 32 C 1.690770 -0.851291 -0.432053 0
M  V30 33 C 4.924355 -2.341801 -1.409558 0
M  V30 34 C 5.466436 -3.725242 -1.297171 0
M  V30 35 N 5.270425 -4.323776 -0.002003 0
M  V30 36 H 3.925708 -3.524721 1.370434 0
M  V30 37 H 3.038916 -4.268997 -1.423753 0
M  V30 38 H 1.985640 -3.443338 -0.154911 0
M  V30 39 H 4.623483 0.084499 -1.644350 0
M  V30 40 H 3.470295 2.222385 -1.518868 0
M  V30 41 H 1.497430 3.578740 -0.981698 0
M  V30 42 H -2.789383 5.043931 0.392955 0
M  V30 43 H -5.120773 4.669140 1.304493 0
M  V30 44 H -7.260716 3.741793 2.222828 0
M  V30 45 H -5.588003 -0.118264 2.146751 0
M  V30 46 H -1.754158 -0.779861 0.786788 0
M  V30 47 H -4.576445 -1.896785 0.890933 0
M  V30 48 H -3.709353 -1.349360 -0.662319 0
M  V30 49 H -1.800343 -2.729943 0.143838 0
M  V30 50 H -3.328255 -3.732476 0.357565 0
M  V30 51 H -3.477795 -3.265606 2.602442 0
M  V30 52 H -1.645912 -3.141018 2.492584 0
M  V30 53 H -3.643625 -1.083414 3.170554 0
M  V30 54 H -1.809425 -0.955770 3.037908 0
M  V30 55 H 1.049439 -1.646133 -0.084240 0
M  V30 56 H 4.858758 -2.082300 -2.485828 0
M  V30 57 H 5.576478 -1.572790 -0.938345 0
M  V30 58 H 6.583407 -3.653152 -1.449009 0
M  V30 59 H 5.060428 -4.391328 -2.059079 0
M  V30 60 H 5.995544 -4.108554 0.692238 0
M  V30 END ATOM
M  V30 BEGIN BOND
M  V30 1 1 1 2
M  V30 2 1 2 3
M  V30 3 1 2 4
M  V30 4 1 2 5
M  V30 5 1 5 6
M  V30 6 1 6 7
M  V30 7 1 7 8
M  V30 8 2 8 9
M  V30 9 1 9 10
M  V30 10 2 10 11
M  V30 11 1 11 12
M  V30 12 1 12 13
M  V30 13 2 13 14
M  V30 14 1 14 15
M  V30 15 2 15 16
M  V30 16 1 16 17
M  V30 17 2 17 18
M  V30 18 1 18 19
M  V30 19 2 19 20
M  V30 20 1 20 21
M  V30 21 2 21 22
M  V30 22 1 22 23
M  V30 23 1 23 24
M  V30 24 1 24 25
M  V30 25 1 25 26
M  V30 26 1 26 27
M  V30 27 1 27 28
M  V30 28 1 23 29
M  V30 29 2 29 30
M  V30 30 1 11 31
M  V30 31 2 31 32
M  V30 32 1 7 33
M  V30 33 1 33 34
M  V30 34 1 34 35
M  V30 35 1 35 5
M  V30 36 1 32 8
M  V30 37 1 30 13
M  V30 38 1 29 16
M  V30 39 1 22 17
M  V30 40 1 28 24
M  V30 41 1 5 36
M  V30 42 1 6 37
M  V30 43 1 6 38
M  V30 44 1 9 39
M  V30 45 1 10 40
M  V30 46 1 12 41
M  V30 47 1 15 42
M  V30 48 1 18 43
M  V30 49 1 19 44
M  V30 50 1 21 45
M  V30 51 1 24 46
M  V30 52 1 25 47
M  V30 53 1 25 48
M  V30 54 1 26 49
M  V30 55 1 26 50
M  V30 56 1 27 51
M  V30 57 1 27 52
M  V30 58 1 28 53
M  V30 59 1 28 54
M  V30 60 1 32 55
M  V30 61 1 33 56
M  V30 62 1 33 57
M  V30 63 1 34 58
M  V30 64 1 34 59
M  V30 65 1 35 60
M  V30 END BOND
M  V30 END CTAB
M  END
>  <Dataset>  (126) 
ChEMBL_Kinases

>  <Ligand_Instance>  (126) 
nan

>  <PDB_ID>  (126) 
nan

>  <Standardized_SMILES>  (126) 
FC(F)(F)C1CN(c2ccc(Nc3ncc4c5ccncc5n(C5CCCC5)c4n3)nc2)CCN1

>  <Name>  (126) 
nan

>  <Pocket>  (126) 
nan

>  <ATP_Site>  (126) 
nan

>  <Peripheral>  (126) 
nan

>  <Num_H_Atoms_ProtBoundConf>  (126) 
nan

>  <Num_Resolved_Atoms>  (126) 
nan

>  <Num_Not_Resolved_Atoms>  (126) 
nan

$$$$
CHEMBL4443342
     RDKit          3D

  0  0  0  0  0  0  0  0  0  0999 V3000
M  V30 BEGIN CTAB
M  V30 COUNTS 41 43 0 0 0
M  V30 BEGIN ATOM
M  V30 1 C 1.860931 -4.109002 3.624022 0
M  V30 2 O 0.568895 -4.096579 3.091581 0
M  V30 3 C 0.033020 -3.055271 2.349383 0
M  V30 4 C 0.798534 -1.940291 2.100061 0
M  V30 5 C 0.321237 -0.852298 1.358004 0
M  V30 6 N 1.027554 0.342241 1.070199 0
M  V30 7 C 1.119615 1.159054 -0.076611 0
M  V30 8 C 0.522021 0.915554 -1.287818 0
M  V30 9 C 0.591346 1.714193 -2.409936 0
M  V30 10 N 1.331692 2.854713 -2.286163 0
M  V30 11 C 1.932226 3.122573 -1.108694 0
M  V30 12 C 2.648811 4.300620 -1.110219 0
M  V30 13 C 3.332614 4.738163 0.014084 0
M  V30 14 C 3.262849 3.939251 1.136184 0
M  V30 15 Br 4.182892 4.488706 2.712580 0
M  V30 16 C 2.537360 2.772074 1.096035 0
M  V30 17 C 1.855922 2.312809 0.013628 0
M  V30 18 C -0.974050 -0.998375 0.904805 0
M  V30 19 C -1.760200 -2.108314 1.142923 0
M  V30 20 O -3.064906 -2.287075 0.701550 0
M  V30 21 C -3.639396 -1.237329 -0.060341 0
M  V30 22 C -1.255232 -3.159209 1.877020 0
M  V30 23 O -1.964994 -4.304316 2.163789 0
M  V30 24 C -1.968460 -5.450400 1.343170 0
M  V30 25 H 2.243740 -3.144016 3.963186 0
M  V30 26 H 1.806408 -4.747688 4.554012 0
M  V30 27 H 2.525980 -4.675265 2.941064 0
M  V30 28 H 1.823718 -1.829406 2.461772 0
M  V30 29 H 1.525694 0.544395 1.950146 0
M  V30 30 H -0.060093 0.020174 -1.431498 0
M  V30 31 H 0.093854 1.462301 -3.336338 0
M  V30 32 H 2.728056 4.952974 -1.966658 0
M  V30 33 H 3.902243 5.644769 0.061770 0
M  V30 34 H 2.524862 2.202914 1.997060 0
M  V30 35 H -1.534542 -0.273818 0.329682 0
M  V30 36 H -3.587765 -0.310908 0.556812 0
M  V30 37 H -4.714279 -1.494021 -0.154548 0
M  V30 38 H -3.131997 -1.100588 -1.023100 0
M  V30 39 H -2.872511 -5.529448 0.692222 0
M  V30 40 H -1.075151 -5.491436 0.666868 0
M  V30 41 H -1.945663 -6.388478 1.933393 0
M  V30 END ATOM
M  V30 BEGIN BOND
M  V30 1 1 1 2
M  V30 2 1 2 3
M  V30 3 2 3 4
M  V30 4 1 4 5
M  V30 5 1 5 6
M  V30 6 1 6 7
M  V30 7 2 7 8
M  V30 8 1 8 9
M  V30 9 2 9 10
M  V30 10 1 10 11
M  V30 11 2 11 12
M  V30 12 1 12 13
M  V30 13 2 13 14
M  V30 14 1 14 15
M  V30 15 1 14 16
M  V30 16 2 16 17
M  V30 17 2 5 18
M  V30 18 1 18 19
M  V30 19 1 19 20
M  V30 20 1 20 21
M  V30 21 2 19 22
M  V30 22 1 22 23
M  V30 23 1 23 24
M  V30 24 1 22 3
M  V30 25 1 17 7
M  V30 26 1 17 11
M  V30 27 1 1 25
M  V30 28 1 1 26
M  V30 29 1 1 27
M  V30 30 1 4 28
M  V30 31 1 6 29
M  V30 32 1 8 30
M  V30 33 1 9 31
M  V30 34 1 12 32
M  V30 35 1 13 33
M  V30 36 1 16 34
M  V30 37 1 18 35
M  V30 38 1 21 36
M  V30 39 1 21 37
M  V30 40 1 21 38
M  V30 41 1 24 39
M  V30 42 1 24 40
M  V30 43 1 24 41
M  V30 END BOND
M  V30 END CTAB
M  END
>  <Dataset>  (127) 
ChEMBL_Kinases

>  <Ligand_Instance>  (127) 
nan

>  <PDB_ID>  (127) 
nan

>  <Standardized_SMILES>  (127) 
COc1cc(Nc2ccnc3ccc(Br)cc23)cc(OC)c1OC

>  <Name>  (127) 
nan

>  <Pocket>  (127) 
nan

>  <ATP_Site>  (127) 
nan

>  <Peripheral>  (127) 
nan

>  <Num_H_Atoms_ProtBoundConf>  (127) 
nan

>  <Num_Resolved_Atoms>  (127) 
nan

>  <Num_Not_Resolved_Atoms>  (127) 
nan

$$$$
CHEMBL3687531
     RDKit          3D

  0  0  0  0  0  0  0  0  0  0999 V3000
M  V30 BEGIN CTAB
M  V30 COUNTS 64 67 0 0 0
M  V30 BEGIN ATOM
M  V30 1 C 6.552275 -3.822919 2.334851 0
M  V30 2 C 5.779130 -2.583284 2.007429 0
M  V30 3 C 4.595382 -2.358084 2.693008 0
M  V30 4 C 3.840483 -1.210846 2.418442 0
M  V30 5 F 2.705578 -1.103019 3.151963 0
M  V30 6 C 4.264072 -0.296966 1.467896 0
M  V30 7 C 3.399196 0.831986 1.286735 0
M  V30 8 N 2.396204 0.761268 0.361660 0
M  V30 9 C 1.566663 1.807523 0.168299 0
M  V30 10 C 0.461664 1.867738 -0.779977 0
M  V30 11 O -0.294022 2.865284 -0.934291 0
M  V30 12 N 0.086169 0.789411 -1.670293 0
M  V30 13 C -1.031839 1.210434 -2.444868 0
M  V30 14 C -0.713695 1.915132 -3.586157 0
M  V30 15 N -1.712469 2.342868 -4.375932 0
M  V30 16 C -2.977245 2.065378 -4.019393 0
M  V30 17 C -3.287960 1.359436 -2.875965 0
M  V30 18 C -2.293048 0.884125 -2.008211 0
M  V30 19 C -2.708028 0.143787 -0.846270 0 CFG=1
M  V30 20 C -2.752936 -1.324962 -1.308314 0
M  V30 21 C -3.619490 -2.082539 -0.365728 0 CFG=1
M  V30 22 N -3.043114 -3.418299 -0.223778 0
M  V30 23 C -3.813580 -1.437696 0.959453 0 CFG=1
M  V30 24 S -4.181976 -2.777998 2.080381 0
M  V30 25 C -5.598022 -3.617042 1.362551 0
M  V30 26 O -3.065730 -3.789681 2.114319 0
M  V30 27 O -4.537712 -2.289193 3.444321 0
M  V30 28 C -2.670205 -0.618771 1.459697 0 CFG=1
M  V30 29 C -1.685588 -1.472788 2.253592 0
M  V30 30 C -1.928832 0.157590 0.389788 0
M  V30 31 C 1.756873 2.944433 0.925194 0
M  V30 32 C 2.768477 3.023133 1.862082 0
M  V30 33 C 3.621403 1.951493 2.062996 0
M  V30 34 F 4.626793 1.990346 2.973626 0
M  V30 35 C 5.449064 -0.542009 0.795460 0
M  V30 36 F 5.825311 0.380127 -0.127139 0
M  V30 37 C 6.216749 -1.682203 1.055902 0
M  V30 38 H 6.103213 -4.698594 1.829830 0
M  V30 39 H 7.590566 -3.693067 1.971410 0
M  V30 40 H 6.507994 -4.038158 3.426143 0
M  V30 41 H 4.283962 -3.096367 3.438999 0
M  V30 42 H 0.669826 -0.099145 -1.612264 0
M  V30 43 H 0.307995 2.132428 -3.862459 0
M  V30 44 H -3.718994 2.441413 -4.703097 0
M  V30 45 H -4.368180 1.214285 -2.724405 0
M  V30 46 H -3.775008 0.400288 -0.590316 0
M  V30 47 H -3.210820 -1.307201 -2.326122 0
M  V30 48 H -1.746137 -1.726976 -1.420129 0
M  V30 49 H -4.620738 -2.215008 -0.821975 0
M  V30 50 H -3.387184 -4.008168 -1.038079 0
M  V30 51 H -1.997101 -3.348893 -0.386815 0
M  V30 52 H -4.741646 -0.812690 0.941899 0
M  V30 53 H -6.101978 -4.267753 2.108891 0
M  V30 54 H -5.289926 -4.282034 0.522036 0
M  V30 55 H -6.324826 -2.906589 0.944955 0
M  V30 56 H -3.103929 0.057754 2.228107 0
M  V30 57 H -1.222335 -2.252538 1.613976 0
M  V30 58 H -0.850236 -0.793148 2.546917 0
M  V30 59 H -2.125961 -1.845719 3.182074 0
M  V30 60 H -1.811699 1.172215 0.793938 0
M  V30 61 H -0.986596 -0.399922 0.220981 0
M  V30 62 H 1.112699 3.829261 0.812555 0
M  V30 63 H 2.898508 3.937910 2.450724 0
M  V30 64 H 7.123004 -1.842156 0.522610 0
M  V30 END ATOM
M  V30 BEGIN BOND
M  V30 1 1 1 2
M  V30 2 2 2 3
M  V30 3 1 3 4
M  V30 4 1 4 5
M  V30 5 2 4 6
M  V30 6 1 6 7
M  V30 7 2 7 8
M  V30 8 1 8 9
M  V30 9 1 9 10
M  V30 10 2 10 11
M  V30 11 1 10 12
M  V30 12 1 12 13
M  V30 13 2 13 14
M  V30 14 1 14 15
M  V30 15 2 15 16
M  V30 16 1 16 17
M  V30 17 2 17 18
M  V30 18 1 18 19
M  V30 19 1 19 20
M  V30 20 1 20 21
M  V30 21 1 21 22
M  V30 22 1 21 23
M  V30 23 1 23 24
M  V30 24 1 24 25
M  V30 25 2 24 26
M  V30 26 2 24 27
M  V30 27 1 23 28
M  V30 28 1 28 29
M  V30 29 1 28 30
M  V30 30 2 9 31
M  V30 31 1 31 32
M  V30 32 2 32 33
M  V30 33 1 33 34
M  V30 34 1 6 35
M  V30 35 1 35 36
M  V30 36 2 35 37
M  V30 37 1 37 2
M  V30 38 1 33 7
M  V30 39 1 18 13
M  V30 40 1 30 19
M  V30 41 1 1 38
M  V30 42 1 1 39
M  V30 43 1 1 40
M  V30 44 1 3 41
M  V30 45 1 12 42
M  V30 46 1 14 43
M  V30 47 1 16 44
M  V30 48 1 17 45
M  V30 49 1 19 46 CFG=1
M  V30 50 1 20 47
M  V30 51 1 20 48
M  V30 52 1 21 49 CFG=3
M  V30 53 1 22 50
M  V30 54 1 22 51
M  V30 55 1 23 52 CFG=3
M  V30 56 1 25 53
M  V30 57 1 25 54
M  V30 58 1 25 55
M  V30 59 1 28 56 CFG=1
M  V30 60 1 29 57
M  V30 61 1 29 58
M  V30 62 1 29 59
M  V30 63 1 30 60
M  V30 64 1 30 61
M  V30 65 1 31 62
M  V30 66 1 32 63
M  V30 67 1 37 64
M  V30 END BOND
M  V30 END CTAB
M  END
>  <Dataset>  (128) 
ChEMBL_Kinases

>  <Ligand_Instance>  (128) 
nan

>  <PDB_ID>  (128) 
nan

>  <Standardized_SMILES>  (128) 
Cc1cc(F)c(-c2nc(C(=O)Nc3cnccc3[C@H]3C[C@@H](N)[C@@H](S(C)(=O)=O)[C@@H](C)C3)ccc2F)c(F)c1

>  <Name>  (128) 
nan

>  <Pocket>  (128) 
nan

>  <ATP_Site>  (128) 
nan

>  <Peripheral>  (128) 
nan

>  <Num_H_Atoms_ProtBoundConf>  (128) 
nan

>  <Num_Resolved_Atoms>  (128) 
nan

>  <Num_Not_Resolved_Atoms>  (128) 
nan

$$$$
CHEMBL3687512
     RDKit          3D

  0  0  0  0  0  0  0  0  0  0999 V3000
M  V30 BEGIN CTAB
M  V30 COUNTS 62 65 0 0 0
M  V30 BEGIN ATOM
M  V30 1 C -1.693531 -2.730103 -4.460889 0
M  V30 2 O -1.544416 -1.896535 -3.329016 0
M  V30 3 C -0.623952 -2.449192 -2.439139 0 CFG=2
M  V30 4 C -1.348894 -2.682799 -1.157111 0 CFG=2
M  V30 5 N -2.165830 -1.549163 -0.800720 0
M  V30 6 C -0.481147 -3.153421 -0.009932 0
M  V30 7 C 0.956153 -2.917550 -0.423695 0 CFG=2
M  V30 8 C 1.969991 -3.483390 0.446112 0
M  V30 9 C 2.604153 -4.690779 0.069616 0
M  V30 10 C 3.606136 -5.392462 0.737492 0
M  V30 11 N 4.034579 -4.861403 1.893322 0
M  V30 12 C 3.474494 -3.714824 2.310981 0
M  V30 13 C 2.483786 -3.029299 1.642897 0
M  V30 14 N 1.932238 -1.833118 2.148437 0
M  V30 15 C 2.268705 -1.091060 3.306898 0
M  V30 16 O 3.179315 -1.466420 4.064949 0
M  V30 17 C 1.610646 0.140905 3.717163 0
M  V30 18 C 1.942434 0.846613 4.833800 0
M  V30 19 C 1.310274 2.012949 5.210952 0
M  V30 20 C 0.282781 2.497771 4.416555 0
M  V30 21 F -0.332472 3.632837 4.783521 0
M  V30 22 C -0.063359 1.779336 3.269337 0
M  V30 23 C -1.145935 2.284095 2.426371 0
M  V30 24 C -2.414548 1.811277 2.767108 0
M  V30 25 F -2.613640 0.956496 3.794840 0
M  V30 26 C -3.548361 2.188526 2.073236 0
M  V30 27 C -3.363280 3.066052 1.014253 0
M  V30 28 C -4.576298 3.499426 0.235009 0
M  V30 29 C -2.110292 3.554449 0.651012 0
M  V30 30 C -0.983956 3.158369 1.366913 0
M  V30 31 F 0.273825 3.576172 1.092752 0
M  V30 32 N 0.600215 0.651954 2.970134 0
M  V30 33 C 1.091478 -1.512887 -0.883154 0
M  V30 34 C 0.530948 -1.480234 -2.319490 0 CFG=2
M  V30 35 C 0.052708 -0.110762 -2.710423 0
M  V30 36 H -0.732395 -2.865089 -5.004638 0
M  V30 37 H -1.949521 -3.733228 -4.031828 0
M  V30 38 H -2.516727 -2.365148 -5.074101 0
M  V30 39 H -0.296867 -3.401191 -2.932784 0
M  V30 40 H -2.079625 -3.520720 -1.351326 0
M  V30 41 H -2.450193 -1.010931 -1.649578 0
M  V30 42 H -3.036908 -1.809008 -0.298833 0
M  V30 43 H -0.661724 -4.212940 0.264323 0
M  V30 44 H -0.756435 -2.526509 0.861635 0
M  V30 45 H 1.029885 -3.535970 -1.394889 0
M  V30 46 H 2.311979 -5.189758 -0.859910 0
M  V30 47 H 4.011253 -6.307620 0.346247 0
M  V30 48 H 3.906297 -3.403280 3.244082 0
M  V30 49 H 1.148320 -1.341716 1.685605 0
M  V30 50 H 2.749126 0.458953 5.450652 0
M  V30 51 H 1.649891 2.495066 6.114295 0
M  V30 52 H -4.531385 1.833398 2.323197 0
M  V30 53 H -5.486337 3.318134 0.814294 0
M  V30 54 H -4.638391 2.889029 -0.701075 0
M  V30 55 H -4.412046 4.542826 -0.087980 0
M  V30 56 H -1.968379 4.238111 -0.174496 0
M  V30 57 H 2.098461 -1.075148 -0.840707 0
M  V30 58 H 0.402031 -0.782826 -0.359484 0
M  V30 59 H 1.304282 -1.794997 -3.042693 0
M  V30 60 H -0.557710 -0.230890 -3.615904 0
M  V30 61 H -0.486990 0.353290 -1.857165 0
M  V30 62 H 0.953976 0.544100 -2.853321 0
M  V30 END ATOM
M  V30 BEGIN BOND
M  V30 1 1 1 2
M  V30 2 1 2 3
M  V30 3 1 3 4
M  V30 4 1 4 5
M  V30 5 1 4 6
M  V30 6 1 6 7
M  V30 7 1 7 8
M  V30 8 2 8 9
M  V30 9 1 9 10
M  V30 10 2 10 11
M  V30 11 1 11 12
M  V30 12 2 12 13
M  V30 13 1 13 14
M  V30 14 1 14 15
M  V30 15 2 15 16
M  V30 16 1 15 17
M  V30 17 2 17 18
M  V30 18 1 18 19
M  V30 19 2 19 20
M  V30 20 1 20 21
M  V30 21 1 20 22
M  V30 22 1 22 23
M  V30 23 2 23 24
M  V30 24 1 24 25
M  V30 25 1 24 26
M  V30 26 2 26 27
M  V30 27 1 27 28
M  V30 28 1 27 29
M  V30 29 2 29 30
M  V30 30 1 30 31
M  V30 31 2 22 32
M  V30 32 1 7 33
M  V30 33 1 33 34
M  V30 34 1 34 35
M  V30 35 1 34 3
M  V30 36 1 13 8
M  V30 37 1 32 17
M  V30 38 1 30 23
M  V30 39 1 1 36
M  V30 40 1 1 37
M  V30 41 1 1 38
M  V30 42 1 3 39 CFG=3
M  V30 43 1 4 40 CFG=3
M  V30 44 1 5 41
M  V30 45 1 5 42
M  V30 46 1 6 43
M  V30 47 1 6 44
M  V30 48 1 7 45 CFG=3
M  V30 49 1 9 46
M  V30 50 1 10 47
M  V30 51 1 12 48
M  V30 52 1 14 49
M  V30 53 1 18 50
M  V30 54 1 19 51
M  V30 55 1 26 52
M  V30 56 1 28 53
M  V30 57 1 28 54
M  V30 58 1 28 55
M  V30 59 1 29 56
M  V30 60 1 33 57
M  V30 61 1 33 58
M  V30 62 1 34 59 CFG=3
M  V30 63 1 35 60
M  V30 64 1 35 61
M  V30 65 1 35 62
M  V30 END BOND
M  V30 END CTAB
M  END
>  <Dataset>  (129) 
ChEMBL_Kinases

>  <Ligand_Instance>  (129) 
nan

>  <PDB_ID>  (129) 
nan

>  <Standardized_SMILES>  (129) 
CO[C@@H]1[C@H](N)C[C@H](c2ccncc2NC(=O)c2ccc(F)c(-c3c(F)cc(C)cc3F)n2)C[C@@H]1C

>  <Name>  (129) 
nan

>  <Pocket>  (129) 
nan

>  <ATP_Site>  (129) 
nan

>  <Peripheral>  (129) 
nan

>  <Num_H_Atoms_ProtBoundConf>  (129) 
nan

>  <Num_Resolved_Atoms>  (129) 
nan

>  <Num_Not_Resolved_Atoms>  (129) 
nan

$$$$
CHEMBL4576341
     RDKit          3D

  0  0  0  0  0  0  0  0  0  0999 V3000
M  V30 BEGIN CTAB
M  V30 COUNTS 48 52 0 0 0
M  V30 BEGIN ATOM
M  V30 1 C -0.984432 -3.961751 -2.881588 0
M  V30 2 C 0.215596 -3.623269 -2.071004 0
M  V30 3 C 1.268708 -4.495810 -2.159131 0
M  V30 4 C 2.436295 -4.263096 -1.437207 0
M  V30 5 C 2.463195 -3.121789 -0.644766 0
M  V30 6 C 1.387707 -2.239719 -0.560740 0
M  V30 7 C 1.448022 -1.051100 0.277609 0
M  V30 8 N 2.250387 0.001021 0.221953 0
M  V30 9 C 2.020120 0.939715 1.177490 0
M  V30 10 C 2.868600 2.172161 1.223359 0
M  V30 11 N 2.312207 3.195148 0.385111 0
M  V30 12 C 1.103408 3.896099 0.544342 0
M  V30 13 C 0.221093 3.738530 1.590764 0
M  V30 14 C -0.963325 4.401714 1.764490 0
M  V30 15 C -1.334801 5.324562 0.813882 0
M  V30 16 C -0.500120 5.534693 -0.261366 0
M  V30 17 F -0.821800 6.437420 -1.229673 0
M  V30 18 C 0.678530 4.833490 -0.376590 0
M  V30 19 N 1.000082 0.398422 1.851559 0
M  V30 20 C 0.625014 -0.787639 1.352036 0
M  V30 21 C -0.465284 -1.580985 1.913548 0
M  V30 22 C -0.617782 -2.114282 3.118131 0
M  V30 23 C -1.742321 -2.832829 3.429316 0
M  V30 24 C -2.132335 -3.474217 4.583664 0
M  V30 25 N -3.277850 -4.120000 4.672225 0
M  V30 26 C -4.196942 -4.249238 3.705770 0
M  V30 27 C -3.894856 -3.638998 2.508783 0
M  V30 28 C -2.683856 -2.956189 2.415182 0
M  V30 29 S -1.947062 -2.038489 1.019113 0
M  V30 30 N 0.290422 -2.532085 -1.289539 0
M  V30 31 H -1.522955 -4.844943 -2.523998 0
M  V30 32 H -0.715093 -4.125554 -3.957100 0
M  V30 33 H -1.656580 -3.065404 -2.852034 0
M  V30 34 H 1.304842 -5.394088 -2.755660 0
M  V30 35 H 3.324228 -4.913190 -1.453125 0
M  V30 36 H 3.383559 -2.936972 -0.074620 0
M  V30 37 H 2.988434 0.023127 -0.545362 0
M  V30 38 H 3.888873 1.928819 0.864464 0
M  V30 39 H 2.932336 2.526437 2.283320 0
M  V30 40 H 2.874344 3.473761 -0.476153 0
M  V30 41 H 0.451107 3.039782 2.374705 0
M  V30 42 H -1.625131 4.248569 2.597372 0
M  V30 43 H -2.251278 5.892813 0.870713 0
M  V30 44 H 1.306377 5.037894 -1.250719 0
M  V30 45 H 0.184447 -1.962914 3.859594 0
M  V30 46 H -1.499513 -3.472860 5.483321 0
M  V30 47 H -5.136640 -4.776550 3.771558 0
M  V30 48 H -4.513950 -3.637427 1.621725 0
M  V30 END ATOM
M  V30 BEGIN BOND
M  V30 1 1 1 2
M  V30 2 2 2 3
M  V30 3 1 3 4
M  V30 4 2 4 5
M  V30 5 1 5 6
M  V30 6 1 6 7
M  V30 7 1 7 8
M  V30 8 1 8 9
M  V30 9 1 9 10
M  V30 10 1 10 11
M  V30 11 1 11 12
M  V30 12 2 12 13
M  V30 13 1 13 14
M  V30 14 2 14 15
M  V30 15 1 15 16
M  V30 16 1 16 17
M  V30 17 2 16 18
M  V30 18 2 9 19
M  V30 19 1 19 20
M  V30 20 1 20 21
M  V30 21 2 21 22
M  V30 22 1 22 23
M  V30 23 2 23 24
M  V30 24 1 24 25
M  V30 25 2 25 26
M  V30 26 1 26 27
M  V30 27 2 27 28
M  V30 28 1 28 29
M  V30 29 2 6 30
M  V30 30 1 30 2
M  V30 31 2 20 7
M  V30 32 1 29 21
M  V30 33 1 18 12
M  V30 34 1 28 23
M  V30 35 1 1 31
M  V30 36 1 1 32
M  V30 37 1 1 33
M  V30 38 1 3 34
M  V30 39 1 4 35
M  V30 40 1 5 36
M  V30 41 1 8 37
M  V30 42 1 10 38
M  V30 43 1 10 39
M  V30 44 1 11 40
M  V30 45 1 13 41
M  V30 46 1 14 42
M  V30 47 1 15 43
M  V30 48 1 18 44
M  V30 49 1 22 45
M  V30 50 1 24 46
M  V30 51 1 26 47
M  V30 52 1 27 48
M  V30 END BOND
M  V30 END CTAB
M  END
>  <Dataset>  (130) 
ChEMBL_Kinases

>  <Ligand_Instance>  (130) 
nan

>  <PDB_ID>  (130) 
nan

>  <Standardized_SMILES>  (130) 
Cc1cccc(-c2[nH]c(CNc3cccc(F)c3)nc2-c2cc3cnccc3s2)n1

>  <Name>  (130) 
nan

>  <Pocket>  (130) 
nan

>  <ATP_Site>  (130) 
nan

>  <Peripheral>  (130) 
nan

>  <Num_H_Atoms_ProtBoundConf>  (130) 
nan

>  <Num_Resolved_Atoms>  (130) 
nan

>  <Num_Not_Resolved_Atoms>  (130) 
nan

$$$$
CHEMBL4576394
     RDKit          3D

  0  0  0  0  0  0  0  0  0  0999 V3000
M  V30 BEGIN CTAB
M  V30 COUNTS 58 61 0 0 0
M  V30 BEGIN ATOM
M  V30 1 C 9.369747 -1.150536 1.273040 0
M  V30 2 C 7.924182 -0.800013 0.994398 0
M  V30 3 C 7.652204 0.681395 1.156314 0
M  V30 4 C 6.236921 1.013411 0.881818 0
M  V30 5 C 5.296598 0.999822 1.891182 0
M  V30 6 C 3.947084 1.306306 1.680771 0
M  V30 7 C 3.573650 1.633072 0.391183 0
M  V30 8 C 2.177516 1.948550 0.181525 0
M  V30 9 O 1.389831 1.910559 1.162396 0
M  V30 10 N 1.598837 2.307278 -1.065549 0
M  V30 11 C 0.198103 2.554001 -0.920744 0
M  V30 12 C -0.334375 3.792894 -0.625790 0
M  V30 13 C -1.689469 4.014963 -0.489181 0
M  V30 14 C -2.578152 2.970841 -0.648855 0
M  V30 15 C -2.019798 1.743877 -0.943032 0
M  V30 16 N -2.873228 0.591917 -1.127638 0
M  V30 17 C -3.007772 0.004000 0.181752 0
M  V30 18 O -2.411067 0.547810 1.172693 0
M  V30 19 C -3.753535 -1.192995 0.647533 0
M  V30 20 O -4.432523 -1.832933 -0.410457 0
M  V30 21 C -5.200438 -2.974441 -0.230716 0
M  V30 22 C -5.880418 -3.632678 -1.233170 0
M  V30 23 C -6.630480 -4.767927 -0.990792 0
M  V30 24 C -6.694610 -5.255802 0.317586 0
M  V30 25 C -7.432065 -6.392258 0.622724 0
M  V30 26 O -8.057013 -7.010692 -0.254217 0
M  V30 27 C -7.437321 -6.801988 1.948195 0
M  V30 28 C -6.746624 -6.123981 2.935491 0
M  V30 29 O -6.055571 -5.042276 2.594339 0
M  V30 30 C -6.020896 -4.615660 1.350438 0
M  V30 31 C -5.285508 -3.484547 1.053252 0
M  V30 32 C -0.682873 1.501742 -1.082636 0
M  V30 33 C 4.491191 1.655074 -0.638208 0
M  V30 34 C 5.837474 1.346909 -0.416014 0
M  V30 35 H 9.751380 -0.597647 2.163625 0
M  V30 36 H 10.036439 -0.896572 0.439706 0
M  V30 37 H 9.450499 -2.227610 1.510315 0
M  V30 38 H 7.635690 -1.205224 0.018830 0
M  V30 39 H 7.291964 -1.318721 1.755163 0
M  V30 40 H 8.314882 1.260842 0.487091 0
M  V30 41 H 7.850827 0.930308 2.219622 0
M  V30 42 H 5.607075 0.741443 2.895692 0
M  V30 43 H 3.282217 1.269450 2.533104 0
M  V30 44 H 2.222179 2.349031 -1.901164 0
M  V30 45 H 0.346233 4.633777 -0.494867 0
M  V30 46 H -2.065909 5.020357 -0.253520 0
M  V30 47 H -3.651827 3.085372 -0.553483 0
M  V30 48 H -3.414184 0.035354 -1.816606 0
M  V30 49 H -4.418161 -0.889638 1.484491 0
M  V30 50 H -3.003642 -1.889083 1.124555 0
M  V30 51 H -5.808837 -3.223637 -2.247091 0
M  V30 52 H -7.160663 -5.279376 -1.778280 0
M  V30 53 H -7.979543 -7.668270 2.273667 0
M  V30 54 H -6.726578 -6.411438 3.976095 0
M  V30 55 H -4.764036 -2.992258 1.863237 0
M  V30 56 H -0.289980 0.520065 -1.314425 0
M  V30 57 H 4.198980 1.911024 -1.648628 0
M  V30 58 H 6.569998 1.358903 -1.209495 0
M  V30 END ATOM
M  V30 BEGIN BOND
M  V30 1 1 1 2
M  V30 2 1 2 3
M  V30 3 1 3 4
M  V30 4 2 4 5
M  V30 5 1 5 6
M  V30 6 2 6 7
M  V30 7 1 7 8
M  V30 8 2 8 9
M  V30 9 1 8 10
M  V30 10 1 10 11
M  V30 11 2 11 12
M  V30 12 1 12 13
M  V30 13 2 13 14
M  V30 14 1 14 15
M  V30 15 1 15 16
M  V30 16 1 16 17
M  V30 17 2 17 18
M  V30 18 1 17 19
M  V30 19 1 19 20
M  V30 20 1 20 21
M  V30 21 2 21 22
M  V30 22 1 22 23
M  V30 23 2 23 24
M  V30 24 1 24 25
M  V30 25 2 25 26
M  V30 26 1 25 27
M  V30 27 2 27 28
M  V30 28 1 28 29
M  V30 29 1 29 30
M  V30 30 2 30 31
M  V30 31 2 15 32
M  V30 32 1 7 33
M  V30 33 2 33 34
M  V30 34 1 34 4
M  V30 35 1 32 11
M  V30 36 1 31 21
M  V30 37 1 30 24
M  V30 38 1 1 35
M  V30 39 1 1 36
M  V30 40 1 1 37
M  V30 41 1 2 38
M  V30 42 1 2 39
M  V30 43 1 3 40
M  V30 44 1 3 41
M  V30 45 1 5 42
M  V30 46 1 6 43
M  V30 47 1 10 44
M  V30 48 1 12 45
M  V30 49 1 13 46
M  V30 50 1 14 47
M  V30 51 1 16 48
M  V30 52 1 19 49
M  V30 53 1 19 50
M  V30 54 1 22 51
M  V30 55 1 23 52
M  V30 56 1 27 53
M  V30 57 1 28 54
M  V30 58 1 31 55
M  V30 59 1 32 56
M  V30 60 1 33 57
M  V30 61 1 34 58
M  V30 END BOND
M  V30 END CTAB
M  END
>  <Dataset>  (131) 
ChEMBL_Kinases

>  <Ligand_Instance>  (131) 
nan

>  <PDB_ID>  (131) 
nan

>  <Standardized_SMILES>  (131) 
CCCc1ccc(C(=O)Nc2cccc(NC(=O)COc3ccc4c(=O)ccoc4c3)c2)cc1

>  <Name>  (131) 
nan

>  <Pocket>  (131) 
nan

>  <ATP_Site>  (131) 
nan

>  <Peripheral>  (131) 
nan

>  <Num_H_Atoms_ProtBoundConf>  (131) 
nan

>  <Num_Resolved_Atoms>  (131) 
nan

>  <Num_Not_Resolved_Atoms>  (131) 
nan

$$$$
CHEMBL4443125
     RDKit          3D

  0  0  0  0  0  0  0  0  0  0999 V3000
M  V30 BEGIN CTAB
M  V30 COUNTS 67 70 0 0 0
M  V30 BEGIN ATOM
M  V30 1 C 4.606192 -2.789497 5.055021 0
M  V30 2 C 4.001936 -1.378339 5.101912 0
M  V30 3 C 5.094788 -0.436958 5.540917 0
M  V30 4 C 3.536414 -1.013737 3.713561 0
M  V30 5 C 2.426827 -1.933874 3.245413 0
M  V30 6 N 1.909524 -1.452201 1.995974 0
M  V30 7 C 2.133453 -2.147411 0.772516 0
M  V30 8 O 2.811219 -3.202861 0.850164 0
M  V30 9 C 1.650882 -1.745500 -0.543302 0
M  V30 10 C 2.038485 -2.537551 -1.605430 0
M  V30 11 C 1.574470 -2.164852 -2.874108 0
M  V30 12 C 0.770122 -1.075965 -3.119652 0
M  V30 13 N 0.351945 -0.774264 -4.435880 0
M  V30 14 C -0.528722 0.322983 -4.641432 0
M  V30 15 N -0.302933 1.634959 -4.848664 0
M  V30 16 C -1.300357 2.498547 -5.026137 0
M  V30 17 C -2.602613 2.032149 -4.996445 0
M  V30 18 N -3.673309 2.960068 -5.186523 0 CHG=1 VAL=4
M  V30 19 O -3.613695 4.172548 -4.905753 0
M  V30 20 O -4.900039 2.585795 -5.713535 0 CHG=-1 VAL=1
M  V30 21 C -2.878101 0.694212 -4.786578 0
M  V30 22 N -4.232500 0.270929 -4.771754 0
M  V30 23 C -5.295569 0.118615 -3.869169 0
M  V30 24 C -6.493199 -0.372457 -4.381295 0
M  V30 25 C -7.512346 -0.505253 -3.474028 0
M  V30 26 C -7.415431 -0.193385 -2.149826 0
M  V30 27 Cl -8.817383 -0.423658 -1.122925 0
M  V30 28 C -6.231900 0.294603 -1.628787 0
M  V30 29 C -5.196449 0.432608 -2.536282 0
M  V30 30 N -1.802246 -0.061371 -4.623834 0
M  V30 31 C 0.413029 -0.320913 -2.027988 0
M  V30 32 C 0.844120 -0.645624 -0.754526 0
M  V30 33 C 1.401775 -2.161869 4.301435 0
M  V30 34 C 1.628761 -1.333263 5.545217 0
M  V30 35 C 0.703724 -1.895666 6.607666 0
M  V30 36 C 1.190585 0.098836 5.301858 0
M  V30 37 N 2.964694 -1.417414 6.069616 0
M  V30 38 O 3.051215 -2.521704 6.878732 0 RAD=2 VAL=1
M  V30 39 H 3.812684 -3.540877 5.186352 0
M  V30 40 H 5.285091 -2.857452 5.939821 0
M  V30 41 H 5.212478 -2.918623 4.152640 0
M  V30 42 H 4.693678 0.402122 6.156715 0
M  V30 43 H 5.820220 -0.950538 6.236290 0
M  V30 44 H 5.739092 -0.085487 4.706874 0
M  V30 45 H 3.295357 0.046537 3.670451 0
M  V30 46 H 4.399672 -1.210959 3.036882 0
M  V30 47 H 2.935963 -2.918864 3.029885 0
M  V30 48 H 1.349112 -0.576224 1.924809 0
M  V30 49 H 2.678724 -3.428915 -1.519434 0
M  V30 50 H 1.875782 -2.779195 -3.698250 0
M  V30 51 H 0.692483 -1.354384 -5.229834 0
M  V30 52 H -1.024423 3.528305 -5.185030 0
M  V30 53 H -4.291809 0.051903 -5.766919 0
M  V30 54 H -6.603634 -0.628476 -5.416971 0
M  V30 55 H -8.458792 -0.887545 -3.849940 0
M  V30 56 H -6.183237 0.529616 -0.592384 0
M  V30 57 H -4.264721 0.816132 -2.128657 0
M  V30 58 H -0.228590 0.552731 -2.196229 0
M  V30 59 H 0.548978 -0.033658 0.089173 0
M  V30 60 H 0.413308 -1.834042 3.884240 0
M  V30 61 H 1.295042 -3.237978 4.515008 0
M  V30 62 H 0.652413 -2.991452 6.440325 0
M  V30 63 H -0.304666 -1.430652 6.560892 0
M  V30 64 H 1.171012 -1.761601 7.615262 0
M  V30 65 H 0.967367 0.219683 4.216322 0
M  V30 66 H 0.243506 0.343774 5.818406 0
M  V30 67 H 1.981305 0.824641 5.551932 0
M  V30 END ATOM
M  V30 BEGIN BOND
M  V30 1 1 1 2
M  V30 2 1 2 3
M  V30 3 1 2 4
M  V30 4 1 4 5
M  V30 5 1 5 6
M  V30 6 1 6 7
M  V30 7 2 7 8
M  V30 8 1 7 9
M  V30 9 2 9 10
M  V30 10 1 10 11
M  V30 11 2 11 12
M  V30 12 1 12 13
M  V30 13 1 13 14
M  V30 14 2 14 15
M  V30 15 1 15 16
M  V30 16 2 16 17
M  V30 17 1 17 18
M  V30 18 2 18 19
M  V30 19 1 18 20
M  V30 20 1 17 21
M  V30 21 1 21 22
M  V30 22 1 22 23
M  V30 23 2 23 24
M  V30 24 1 24 25
M  V30 25 2 25 26
M  V30 26 1 26 27
M  V30 27 1 26 28
M  V30 28 2 28 29
M  V30 29 2 21 30
M  V30 30 1 12 31
M  V30 31 2 31 32
M  V30 32 1 5 33
M  V30 33 1 33 34
M  V30 34 1 34 35
M  V30 35 1 34 36
M  V30 36 1 34 37
M  V30 37 1 37 38
M  V30 38 1 37 2
M  V30 39 1 32 9
M  V30 40 1 30 14
M  V30 41 1 29 23
M  V30 42 1 1 39
M  V30 43 1 1 40
M  V30 44 1 1 41
M  V30 45 1 3 42
M  V30 46 1 3 43
M  V30 47 1 3 44
M  V30 48 1 4 45
M  V30 49 1 4 46
M  V30 50 1 5 47
M  V30 51 1 6 48
M  V30 52 1 10 49
M  V30 53 1 11 50
M  V30 54 1 13 51
M  V30 55 1 16 52
M  V30 56 1 22 53
M  V30 57 1 24 54
M  V30 58 1 25 55
M  V30 59 1 28 56
M  V30 60 1 29 57
M  V30 61 1 31 58
M  V30 62 1 32 59
M  V30 63 1 33 60
M  V30 64 1 33 61
M  V30 65 1 35 62
M  V30 66 1 35 63
M  V30 67 1 35 64
M  V30 68 1 36 65
M  V30 69 1 36 66
M  V30 70 1 36 67
M  V30 END BOND
M  V30 END CTAB
M  END
>  <Dataset>  (132) 
ChEMBL_Kinases

>  <Ligand_Instance>  (132) 
nan

>  <PDB_ID>  (132) 
nan

>  <Standardized_SMILES>  (132) 
CC1(C)CC(NC(=O)c2ccc(Nc3ncc([N+](=O)[O-])c(Nc4ccc(Cl)cc4)n3)cc2)CC(C)(C)N1[O]

>  <Name>  (132) 
nan

>  <Pocket>  (132) 
nan

>  <ATP_Site>  (132) 
nan

>  <Peripheral>  (132) 
nan

>  <Num_H_Atoms_ProtBoundConf>  (132) 
nan

>  <Num_Resolved_Atoms>  (132) 
nan

>  <Num_Not_Resolved_Atoms>  (132) 
nan

$$$$
CHEMBL3687530
     RDKit          3D

  0  0  0  0  0  0  0  0  0  0999 V3000
M  V30 BEGIN CTAB
M  V30 COUNTS 76 80 0 0 0
M  V30 BEGIN ATOM
M  V30 1 C 4.100132 3.411276 -0.965748 0
M  V30 2 C 3.072443 3.058960 0.079134 0 CFG=1
M  V30 3 C 1.946332 2.208210 -0.437116 0
M  V30 4 C 2.119551 0.762524 -0.517180 0 CFG=1
M  V30 5 C 2.622040 0.137941 -1.714770 0
M  V30 6 C 3.938024 -0.100820 -2.083132 0
M  V30 7 C 4.346395 -0.704224 -3.253079 0
M  V30 8 N 3.442858 -1.116819 -4.150274 0
M  V30 9 C 2.156033 -0.925844 -3.875079 0
M  V30 10 C 1.749290 -0.326161 -2.712223 0
M  V30 11 N 0.340583 -0.143580 -2.460496 0
M  V30 12 C -0.508397 0.949954 -2.798251 0
M  V30 13 O -0.077032 1.981413 -3.417503 0
M  V30 14 C -1.903290 0.818931 -2.392543 0
M  V30 15 C -2.756142 1.856409 -2.704955 0
M  V30 16 C -4.111927 1.808870 -2.350675 0
M  V30 17 C -4.563815 0.689438 -1.679152 0
M  V30 18 F -5.851043 0.525594 -1.283241 0
M  V30 19 C -3.699583 -0.344001 -1.371563 0
M  V30 20 C -4.035586 -1.579740 -0.668562 0
M  V30 21 C -3.871246 -1.420433 0.703736 0
M  V30 22 F -3.459447 -0.295597 1.344135 0
M  V30 23 C -4.140875 -2.488622 1.563142 0
M  V30 24 C -4.560794 -3.673571 1.054891 0
M  V30 25 C -4.859728 -4.831486 1.903858 0
M  V30 26 O -6.189147 -5.193391 1.689061 0
M  V30 27 C -4.661629 -4.584629 3.366411 0
M  V30 28 C -3.205282 -4.587824 3.772525 0
M  V30 29 O -2.383538 -4.762612 2.635906 0
M  V30 30 C -2.659368 -6.027906 2.141202 0
M  V30 31 C -4.012503 -6.034824 1.472245 0
M  V30 32 C -4.722836 -3.829445 -0.303186 0
M  V30 33 C -4.464041 -2.791623 -1.175462 0
M  V30 34 F -4.576957 -2.794707 -2.526073 0
M  V30 35 N -2.402508 -0.251813 -1.733982 0
M  V30 36 C 2.928771 0.307580 0.667748 0
M  V30 37 C 2.969659 1.333912 1.766071 0 CFG=1
M  V30 38 N 3.510835 0.736919 2.962146 0
M  V30 39 C 3.640368 2.622496 1.393635 0 CFG=1
M  V30 40 S 5.389766 2.592252 1.480891 0
M  V30 41 C 6.021487 1.976681 3.009435 0
M  V30 42 O 5.920856 3.992773 1.331770 0
M  V30 43 O 6.058390 1.785017 0.407071 0
M  V30 44 H 4.726215 2.602393 -1.315699 0
M  V30 45 H 3.600617 3.811043 -1.898797 0
M  V30 46 H 4.652256 4.311751 -0.589792 0
M  V30 47 H 2.590302 4.071499 0.267874 0
M  V30 48 H 1.100570 2.388601 0.268723 0
M  V30 49 H 1.606829 2.714115 -1.365156 0
M  V30 50 H 1.096666 0.287859 -0.356528 0
M  V30 51 H 4.712814 0.213273 -1.398192 0
M  V30 52 H 5.409432 -0.842133 -3.440893 0
M  V30 53 H 1.448567 -1.267260 -4.614459 0
M  V30 54 H -0.010258 -0.988767 -1.954639 0
M  V30 55 H -2.449728 2.752609 -3.229011 0
M  V30 56 H -4.796930 2.595819 -2.578437 0
M  V30 57 H -4.031096 -2.420749 2.630918 0
M  V30 58 H -6.727970 -4.985550 2.481448 0
M  V30 59 H -5.137609 -5.466968 3.887760 0
M  V30 60 H -5.218163 -3.701070 3.692577 0
M  V30 61 H -2.951271 -5.442329 4.446720 0
M  V30 62 H -2.900865 -3.680167 4.330578 0
M  V30 63 H -1.844199 -6.309452 1.432276 0
M  V30 64 H -2.675166 -6.803598 2.914397 0
M  V30 65 H -3.799884 -5.870257 0.379851 0
M  V30 66 H -4.554449 -6.981229 1.546582 0
M  V30 67 H -5.049675 -4.727388 -0.792807 0
M  V30 68 H 2.505318 -0.615698 1.151912 0
M  V30 69 H 3.974950 0.052524 0.455732 0
M  V30 70 H 1.909862 1.577657 1.993036 0
M  V30 71 H 3.366775 1.337886 3.803879 0
M  V30 72 H 3.095287 -0.185575 3.132360 0
M  V30 73 H 3.327562 3.308595 2.242059 0
M  V30 74 H 5.614488 2.480334 3.904130 0
M  V30 75 H 7.111983 2.186928 3.041390 0
M  V30 76 H 5.932272 0.868000 3.046895 0
M  V30 END ATOM
M  V30 BEGIN BOND
M  V30 1 1 1 2
M  V30 2 1 2 3
M  V30 3 1 3 4
M  V30 4 1 4 5
M  V30 5 2 5 6
M  V30 6 1 6 7
M  V30 7 2 7 8
M  V30 8 1 8 9
M  V30 9 2 9 10
M  V30 10 1 10 11
M  V30 11 1 11 12
M  V30 12 2 12 13
M  V30 13 1 12 14
M  V30 14 2 14 15
M  V30 15 1 15 16
M  V30 16 2 16 17
M  V30 17 1 17 18
M  V30 18 1 17 19
M  V30 19 1 19 20
M  V30 20 2 20 21
M  V30 21 1 21 22
M  V30 22 1 21 23
M  V30 23 2 23 24
M  V30 24 1 24 25
M  V30 25 1 25 26
M  V30 26 1 25 27
M  V30 27 1 27 28
M  V30 28 1 28 29
M  V30 29 1 29 30
M  V30 30 1 30 31
M  V30 31 1 24 32
M  V30 32 2 32 33
M  V30 33 1 33 34
M  V30 34 2 19 35
M  V30 35 1 4 36
M  V30 36 1 36 37
M  V30 37 1 37 38
M  V30 38 1 37 39
M  V30 39 1 39 40
M  V30 40 1 40 41
M  V30 41 2 40 42
M  V30 42 2 40 43
M  V30 43 1 39 2
M  V30 44 1 10 5
M  V30 45 1 35 14
M  V30 46 1 33 20
M  V30 47 1 31 25
M  V30 48 1 1 44
M  V30 49 1 1 45
M  V30 50 1 1 46
M  V30 51 1 2 47 CFG=1
M  V30 52 1 3 48
M  V30 53 1 3 49
M  V30 54 1 4 50 CFG=1
M  V30 55 1 6 51
M  V30 56 1 7 52
M  V30 57 1 9 53
M  V30 58 1 11 54
M  V30 59 1 15 55
M  V30 60 1 16 56
M  V30 61 1 23 57
M  V30 62 1 26 58
M  V30 63 1 27 59
M  V30 64 1 27 60
M  V30 65 1 28 61
M  V30 66 1 28 62
M  V30 67 1 30 63
M  V30 68 1 30 64
M  V30 69 1 31 65
M  V30 70 1 31 66
M  V30 71 1 32 67
M  V30 72 1 36 68
M  V30 73 1 36 69
M  V30 74 1 37 70 CFG=1
M  V30 75 1 38 71
M  V30 76 1 38 72
M  V30 77 1 39 73 CFG=1
M  V30 78 1 41 74
M  V30 79 1 41 75
M  V30 80 1 41 76
M  V30 END BOND
M  V30 END CTAB
M  END
>  <Dataset>  (133) 
ChEMBL_Kinases

>  <Ligand_Instance>  (133) 
nan

>  <PDB_ID>  (133) 
nan

>  <Standardized_SMILES>  (133) 
C[C@H]1C[C@@H](c2ccncc2NC(=O)c2ccc(F)c(-c3c(F)cc(C4(O)CCOCC4)cc3F)n2)C[C@@H](N)[C@H]1S(C)(=O)=O

>  <Name>  (133) 
nan

>  <Pocket>  (133) 
nan

>  <ATP_Site>  (133) 
nan

>  <Peripheral>  (133) 
nan

>  <Num_H_Atoms_ProtBoundConf>  (133) 
nan

>  <Num_Resolved_Atoms>  (133) 
nan

>  <Num_Not_Resolved_Atoms>  (133) 
nan

$$$$
CHEMBL4443086
     RDKit          3D

  0  0  0  0  0  0  0  0  0  0999 V3000
M  V30 BEGIN CTAB
M  V30 COUNTS 80 83 0 0 0
M  V30 BEGIN ATOM
M  V30 1 C -0.985152 -6.099227 3.986099 0
M  V30 2 C 0.349699 -5.404383 3.790349 0
M  V30 3 C 0.383081 -4.707578 2.423046 0
M  V30 4 C 1.693024 -4.013392 2.216904 0
M  V30 5 O 1.733556 -3.364143 0.955287 0
M  V30 6 C 2.882859 -2.662402 0.611627 0
M  V30 7 O 3.916326 -2.558465 1.350686 0
M  V30 8 C 2.864330 -2.000899 -0.717455 0
M  V30 9 C 4.142541 -1.248371 -0.957951 0
M  V30 10 C 4.324191 0.035737 -0.440677 0
M  V30 11 C 5.554198 0.548920 -0.784813 0
M  V30 12 N 6.127897 1.805272 -0.459907 0
M  V30 13 C 5.506929 2.734141 0.420215 0
M  V30 14 N 4.407479 2.467945 1.128788 0
M  V30 15 C 3.772753 3.295105 1.953921 0
M  V30 16 N 2.605845 2.986896 2.697936 0
M  V30 17 C 1.337883 2.478945 2.284351 0
M  V30 18 C 0.356554 2.357206 3.271950 0
M  V30 19 C -0.876075 1.863300 2.829885 0
M  V30 20 C -1.175414 1.502877 1.536640 0
M  V30 21 C -2.500249 1.017901 1.170927 0
M  V30 22 O -3.423342 1.008468 2.004661 0
M  V30 23 N -2.736776 0.553592 -0.147488 0
M  V30 24 C -4.067688 0.069908 -0.550259 0
M  V30 25 C -4.016337 -1.420316 -0.536565 0
M  V30 26 C -3.445532 -1.961374 -1.789391 0
M  V30 27 C -1.938087 -1.918360 -1.877558 0
M  V30 28 C -3.816087 -3.468607 -1.802198 0
M  V30 29 N -4.041011 -1.426515 -2.946407 0
M  V30 30 O -3.600928 -2.008722 -4.069799 0 RAD=2 VAL=1
M  V30 31 C -4.338127 -0.061601 -3.047801 0
M  V30 32 C -5.584206 0.055798 -3.944270 0
M  V30 33 C -3.222430 0.626020 -3.843453 0
M  V30 34 C -4.550170 0.699621 -1.804171 0
M  V30 35 C -0.158522 1.647605 0.613340 0
M  V30 36 C 1.080780 2.129406 0.981638 0
M  V30 37 N 4.320757 4.527664 2.066384 0
M  V30 38 C 5.425718 4.902401 1.399947 0
M  V30 39 C 6.042537 3.995735 0.555521 0
M  V30 40 F 7.159125 4.338926 -0.139206 0
M  V30 41 N 6.098393 -0.433965 -1.504983 0
M  V30 42 N 5.298943 -1.475743 -1.614343 0
M  V30 43 H -1.663872 -5.439728 4.562674 0
M  V30 44 H -1.430163 -6.340931 2.979400 0
M  V30 45 H -0.844972 -7.047989 4.548590 0
M  V30 46 H 1.201338 -6.088839 3.913534 0
M  V30 47 H 0.461062 -4.587327 4.559505 0
M  V30 48 H -0.412049 -3.928483 2.463075 0
M  V30 49 H 0.127350 -5.444115 1.659530 0
M  V30 50 H 1.758859 -3.212717 3.009835 0
M  V30 51 H 2.512492 -4.748131 2.337839 0
M  V30 52 H 2.753286 -2.739468 -1.552334 0
M  V30 53 H 2.035254 -1.265043 -0.742935 0
M  V30 54 H 3.562592 0.543279 0.158542 0
M  V30 55 H 7.045732 2.051489 -0.891365 0
M  V30 56 H 2.796545 3.189567 3.716895 0
M  V30 57 H 0.502953 2.613512 4.312185 0
M  V30 58 H -1.681019 1.742384 3.544658 0
M  V30 59 H -2.024350 0.513968 -0.903145 0
M  V30 60 H -4.709537 0.344409 0.347459 0
M  V30 61 H -5.076041 -1.804192 -0.475523 0
M  V30 62 H -3.450915 -1.743917 0.380396 0
M  V30 63 H -1.596163 -1.189153 -2.658366 0
M  V30 64 H -1.596233 -2.901237 -2.271715 0
M  V30 65 H -1.428592 -1.785904 -0.925113 0
M  V30 66 H -4.801805 -3.596695 -2.301103 0
M  V30 67 H -3.787914 -3.865251 -0.767527 0
M  V30 68 H -3.062269 -4.025309 -2.390412 0
M  V30 69 H -5.915626 1.086522 -4.075162 0
M  V30 70 H -5.274277 -0.421689 -4.895186 0
M  V30 71 H -6.382192 -0.593591 -3.530166 0
M  V30 72 H -3.617176 1.450852 -4.447157 0
M  V30 73 H -2.671948 -0.061877 -4.483554 0
M  V30 74 H -2.458426 1.088815 -3.164374 0
M  V30 75 H -4.139938 1.732033 -1.892351 0
M  V30 76 H -5.663092 0.880293 -1.686211 0
M  V30 77 H -0.283499 1.396988 -0.430364 0
M  V30 78 H 1.874155 2.235521 0.233957 0
M  V30 79 H 5.802575 5.922751 1.546679 0
M  V30 80 H 5.400027 -2.404668 -2.098285 0
M  V30 END ATOM
M  V30 BEGIN BOND
M  V30 1 1 1 2
M  V30 2 1 2 3
M  V30 3 1 3 4
M  V30 4 1 4 5
M  V30 5 1 5 6
M  V30 6 2 6 7
M  V30 7 1 6 8
M  V30 8 1 8 9
M  V30 9 2 9 10
M  V30 10 1 10 11
M  V30 11 1 11 12
M  V30 12 1 12 13
M  V30 13 2 13 14
M  V30 14 1 14 15
M  V30 15 1 15 16
M  V30 16 1 16 17
M  V30 17 2 17 18
M  V30 18 1 18 19
M  V30 19 2 19 20
M  V30 20 1 20 21
M  V30 21 2 21 22
M  V30 22 1 21 23
M  V30 23 1 23 24
M  V30 24 1 24 25
M  V30 25 1 25 26
M  V30 26 1 26 27
M  V30 27 1 26 28
M  V30 28 1 26 29
M  V30 29 1 29 30
M  V30 30 1 29 31
M  V30 31 1 31 32
M  V30 32 1 31 33
M  V30 33 1 31 34
M  V30 34 1 20 35
M  V30 35 2 35 36
M  V30 36 2 15 37
M  V30 37 1 37 38
M  V30 38 2 38 39
M  V30 39 1 39 40
M  V30 40 2 11 41
M  V30 41 1 41 42
M  V30 42 1 42 9
M  V30 43 1 39 13
M  V30 44 1 36 17
M  V30 45 1 34 24
M  V30 46 1 1 43
M  V30 47 1 1 44
M  V30 48 1 1 45
M  V30 49 1 2 46
M  V30 50 1 2 47
M  V30 51 1 3 48
M  V30 52 1 3 49
M  V30 53 1 4 50
M  V30 54 1 4 51
M  V30 55 1 8 52
M  V30 56 1 8 53
M  V30 57 1 10 54
M  V30 58 1 12 55
M  V30 59 1 16 56
M  V30 60 1 18 57
M  V30 61 1 19 58
M  V30 62 1 23 59
M  V30 63 1 24 60
M  V30 64 1 25 61
M  V30 65 1 25 62
M  V30 66 1 27 63
M  V30 67 1 27 64
M  V30 68 1 27 65
M  V30 69 1 28 66
M  V30 70 1 28 67
M  V30 71 1 28 68
M  V30 72 1 32 69
M  V30 73 1 32 70
M  V30 74 1 32 71
M  V30 75 1 33 72
M  V30 76 1 33 73
M  V30 77 1 33 74
M  V30 78 1 34 75
M  V30 79 1 34 76
M  V30 80 1 35 77
M  V30 81 1 36 78
M  V30 82 1 38 79
M  V30 83 1 42 80
M  V30 END BOND
M  V30 END CTAB
M  END
>  <Dataset>  (134) 
ChEMBL_Kinases

>  <Ligand_Instance>  (134) 
nan

>  <PDB_ID>  (134) 
nan

>  <Standardized_SMILES>  (134) 
CCCCOC(=O)Cc1cc(Nc2nc(Nc3ccc(C(=O)NC4CC(C)(C)N([O])C(C)(C)C4)cc3)ncc2F)n[nH]1

>  <Name>  (134) 
nan

>  <Pocket>  (134) 
nan

>  <ATP_Site>  (134) 
nan

>  <Peripheral>  (134) 
nan

>  <Num_H_Atoms_ProtBoundConf>  (134) 
nan

>  <Num_Resolved_Atoms>  (134) 
nan

>  <Num_Not_Resolved_Atoms>  (134) 
nan

$$$$
CHEMBL3687529
     RDKit          3D

  0  0  0  0  0  0  0  0  0  0999 V3000
M  V30 BEGIN CTAB
M  V30 COUNTS 58 61 0 0 0
M  V30 BEGIN ATOM
M  V30 1 C 2.651639 -3.190070 1.394353 0
M  V30 2 C 1.570557 -2.212125 1.033150 0 CFG=1
M  V30 3 C 2.068880 -0.808589 0.911141 0
M  V30 4 C 1.756936 -0.257945 -0.464959 0 CFG=1
M  V30 5 C 2.312100 1.110713 -0.605235 0
M  V30 6 C 3.566202 1.178005 -1.166977 0
M  V30 7 C 4.230764 2.376840 -1.379600 0
M  V30 8 N 3.586790 3.518191 -1.005088 0
M  V30 9 C 2.363713 3.412539 -0.459982 0
M  V30 10 C 1.659059 2.256773 -0.226017 0
M  V30 11 N 0.372706 2.170218 0.351112 0
M  V30 12 C -0.495810 3.188853 0.800961 0
M  V30 13 O -0.116073 4.380384 0.695172 0
M  V30 14 C -1.799809 2.903543 1.375474 0
M  V30 15 C -2.644438 3.966205 1.811493 0
M  V30 16 S -4.173271 3.063678 2.456928 0
M  V30 17 C -3.356513 1.424727 2.004241 0
M  V30 18 C -4.078837 0.163809 2.266992 0
M  V30 19 C -3.497951 -1.023558 1.943408 0
M  V30 20 F -2.268618 -0.972658 1.389280 0
M  V30 21 C -4.189684 -2.210237 2.196249 0
M  V30 22 C -5.449333 -2.210184 2.766731 0
M  V30 23 C -6.018421 -1.004685 3.085894 0
M  V30 24 C -5.329987 0.161869 2.833521 0
M  V30 25 F -5.947370 1.325583 3.172258 0
M  V30 26 N -2.329637 1.722550 1.555040 0
M  V30 27 C 2.386411 -1.226827 -1.452040 0
M  V30 28 C 1.501045 -2.455314 -1.477029 0 CFG=1
M  V30 29 N 2.321240 -3.595510 -1.812004 0
M  V30 30 C 0.768423 -2.635183 -0.165448 0 CFG=1
M  V30 31 S 0.245506 -4.308792 -0.039557 0
M  V30 32 C -0.730430 -4.684440 -1.484084 0
M  V30 33 O -0.625124 -4.500933 1.175850 0
M  V30 34 O 1.389856 -5.270759 0.098598 0
M  V30 35 H 3.375197 -2.697501 2.079898 0
M  V30 36 H 3.227005 -3.562272 0.539480 0
M  V30 37 H 2.227920 -4.037389 1.986205 0
M  V30 38 H 0.855319 -2.214810 1.901949 0
M  V30 39 H 3.193028 -0.851571 0.962006 0
M  V30 40 H 1.772535 -0.143547 1.736783 0
M  V30 41 H 0.689639 -0.217820 -0.704755 0
M  V30 42 H 4.146610 0.341183 -1.490829 0
M  V30 43 H 5.224153 2.456693 -1.822879 0
M  V30 44 H 1.952365 4.366038 -0.203984 0
M  V30 45 H -0.042231 1.222036 0.488830 0
M  V30 46 H -2.422679 5.166327 1.772354 0
M  V30 47 H -3.695842 -3.133671 1.925516 0
M  V30 48 H -5.990997 -3.122327 2.965631 0
M  V30 49 H -7.013322 -0.971673 3.538237 0
M  V30 50 H 2.498547 -0.796163 -2.465132 0
M  V30 51 H 3.402732 -1.496285 -1.093410 0
M  V30 52 H 0.743651 -2.339038 -2.273742 0
M  V30 53 H 1.808142 -4.283983 -2.432284 0
M  V30 54 H 3.097405 -3.238138 -2.427719 0
M  V30 55 H -0.147910 -2.011965 -0.210276 0
M  V30 56 H -0.467623 -5.663446 -1.919547 0
M  V30 57 H -0.562221 -3.938155 -2.287557 0
M  V30 58 H -1.827337 -4.627045 -1.257339 0
M  V30 END ATOM
M  V30 BEGIN BOND
M  V30 1 1 1 2
M  V30 2 1 2 3
M  V30 3 1 3 4
M  V30 4 1 4 5
M  V30 5 2 5 6
M  V30 6 1 6 7
M  V30 7 2 7 8
M  V30 8 1 8 9
M  V30 9 2 9 10
M  V30 10 1 10 11
M  V30 11 1 11 12
M  V30 12 2 12 13
M  V30 13 1 12 14
M  V30 14 2 14 15
M  V30 15 1 15 16
M  V30 16 1 16 17
M  V30 17 1 17 18
M  V30 18 2 18 19
M  V30 19 1 19 20
M  V30 20 1 19 21
M  V30 21 2 21 22
M  V30 22 1 22 23
M  V30 23 2 23 24
M  V30 24 1 24 25
M  V30 25 2 17 26
M  V30 26 1 4 27
M  V30 27 1 27 28
M  V30 28 1 28 29
M  V30 29 1 28 30
M  V30 30 1 30 31
M  V30 31 1 31 32
M  V30 32 2 31 33
M  V30 33 2 31 34
M  V30 34 1 30 2
M  V30 35 1 10 5
M  V30 36 1 26 14
M  V30 37 1 24 18
M  V30 38 1 1 35
M  V30 39 1 1 36
M  V30 40 1 1 37
M  V30 41 1 2 38 CFG=1
M  V30 42 1 3 39
M  V30 43 1 3 40
M  V30 44 1 4 41 CFG=3
M  V30 45 1 6 42
M  V30 46 1 7 43
M  V30 47 1 9 44
M  V30 48 1 11 45
M  V30 49 1 15 46
M  V30 50 1 21 47
M  V30 51 1 22 48
M  V30 52 1 23 49
M  V30 53 1 27 50
M  V30 54 1 27 51
M  V30 55 1 28 52 CFG=3
M  V30 56 1 29 53
M  V30 57 1 29 54
M  V30 58 1 30 55 CFG=3
M  V30 59 1 32 56
M  V30 60 1 32 57
M  V30 61 1 32 58
M  V30 END BOND
M  V30 END CTAB
M  END
>  <Dataset>  (135) 
ChEMBL_Kinases

>  <Ligand_Instance>  (135) 
nan

>  <PDB_ID>  (135) 
nan

>  <Standardized_SMILES>  (135) 
C[C@H]1C[C@@H](c2ccncc2NC(=O)c2csc(-c3c(F)cccc3F)n2)C[C@@H](N)[C@H]1S(C)(=O)=O

>  <Name>  (135) 
nan

>  <Pocket>  (135) 
nan

>  <ATP_Site>  (135) 
nan

>  <Peripheral>  (135) 
nan

>  <Num_H_Atoms_ProtBoundConf>  (135) 
nan

>  <Num_Resolved_Atoms>  (135) 
nan

>  <Num_Not_Resolved_Atoms>  (135) 
nan

$$$$
CHEMBL3702072
     RDKit          3D

  0  0  0  0  0  0  0  0  0  0999 V3000
M  V30 BEGIN CTAB
M  V30 COUNTS 56 61 0 0 0
M  V30 BEGIN ATOM
M  V30 1 O 2.921923 -4.507061 -1.587618 0
M  V30 2 C 3.094517 -3.450590 -0.688326 0 CFG=1
M  V30 3 C 2.003288 -3.479691 0.371311 0
M  V30 4 C 2.666154 -3.000609 1.634356 0
M  V30 5 N 4.096158 -3.007725 1.427767 0
M  V30 6 C 4.680400 -1.699055 1.551124 0
M  V30 7 C 4.310296 -0.786131 0.435584 0
M  V30 8 C 5.326610 -0.725794 -0.676247 0
M  V30 9 S 4.523496 0.405673 -1.806241 0
M  V30 10 C 3.010932 0.625309 -0.678878 0
M  V30 11 N 2.001322 1.493819 -1.207171 0
M  V30 12 C 0.795688 1.852232 -0.575794 0
M  V30 13 N 0.625788 3.068447 -0.071615 0
M  V30 14 C -0.517397 3.408774 0.542924 0
M  V30 15 C -1.493242 2.432862 0.620775 0
M  V30 16 C -2.737679 2.502899 1.190928 0
M  V30 17 C -3.461342 3.485555 1.855278 0
M  V30 18 C -4.747069 3.311376 2.360160 0
M  V30 19 N -5.288494 2.080390 2.165446 0
M  V30 20 C -4.627875 1.105699 1.531295 0
M  V30 21 C -3.356374 1.257973 1.025238 0
M  V30 22 N -2.463935 0.477625 0.358543 0
M  V30 23 C -2.700533 -0.900745 -0.014833 0
M  V30 24 C -2.789903 -1.754586 1.208527 0
M  V30 25 C -3.721872 -2.859634 0.837934 0
M  V30 26 C -4.668867 -2.281142 -0.171482 0
M  V30 27 C -3.939905 -1.110670 -0.835120 0
M  V30 28 C -1.316188 1.172438 0.098384 0
M  V30 29 N -0.157864 0.899400 -0.500114 0
M  V30 30 N 3.234191 -0.041984 0.236332 0
M  V30 31 C 4.326398 -3.641682 0.162635 0
M  V30 32 H 2.905641 -4.143964 -2.521615 0
M  V30 33 H 3.165918 -2.484142 -1.186563 0
M  V30 34 H 1.684849 -4.540007 0.453383 0
M  V30 35 H 1.129410 -2.864387 0.060058 0
M  V30 36 H 2.261562 -2.056075 2.025001 0
M  V30 37 H 2.496066 -3.780458 2.433778 0
M  V30 38 H 5.771662 -1.829638 1.674916 0
M  V30 39 H 4.319283 -1.291959 2.542857 0
M  V30 40 H 6.222415 -1.192096 -0.775699 0
M  V30 41 H 2.025470 1.974675 -2.128957 0
M  V30 42 H -0.604279 4.414135 0.936408 0
M  V30 43 H -2.933153 4.435266 1.956121 0
M  V30 44 H -5.159230 4.177380 2.844637 0
M  V30 45 H -5.123884 0.166370 1.417264 0
M  V30 46 H -1.839677 -1.273613 -0.613294 0
M  V30 47 H -1.759633 -2.136875 1.466810 0
M  V30 48 H -3.104612 -1.172066 2.085086 0
M  V30 49 H -4.261919 -3.207947 1.737345 0
M  V30 50 H -3.132783 -3.707498 0.412310 0
M  V30 51 H -5.612227 -1.932245 0.272209 0
M  V30 52 H -4.846214 -3.048228 -0.971508 0
M  V30 53 H -3.682187 -1.355374 -1.906298 0
M  V30 54 H -4.582924 -0.210758 -0.883079 0
M  V30 55 H 4.408985 -4.748502 0.355449 0
M  V30 56 H 5.246342 -3.331233 -0.364876 0
M  V30 END ATOM
M  V30 BEGIN BOND
M  V30 1 1 1 2
M  V30 2 1 2 3
M  V30 3 1 3 4
M  V30 4 1 4 5
M  V30 5 1 5 6
M  V30 6 1 6 7
M  V30 7 2 7 8
M  V30 8 1 8 9
M  V30 9 1 9 10
M  V30 10 1 10 11
M  V30 11 1 11 12
M  V30 12 2 12 13
M  V30 13 1 13 14
M  V30 14 2 14 15
M  V30 15 1 15 16
M  V30 16 2 16 17
M  V30 17 1 17 18
M  V30 18 2 18 19
M  V30 19 1 19 20
M  V30 20 2 20 21
M  V30 21 1 21 22
M  V30 22 1 22 23
M  V30 23 1 23 24
M  V30 24 1 24 25
M  V30 25 1 25 26
M  V30 26 1 26 27
M  V30 27 1 22 28
M  V30 28 2 28 29
M  V30 29 2 10 30
M  V30 30 1 5 31
M  V30 31 1 31 2
M  V30 32 1 30 7
M  V30 33 1 29 12
M  V30 34 1 28 15
M  V30 35 1 21 16
M  V30 36 1 27 23
M  V30 37 1 1 32
M  V30 38 1 2 33 CFG=3
M  V30 39 1 3 34
M  V30 40 1 3 35
M  V30 41 1 4 36
M  V30 42 1 4 37
M  V30 43 1 6 38
M  V30 44 1 6 39
M  V30 45 1 8 40
M  V30 46 1 11 41
M  V30 47 1 14 42
M  V30 48 1 17 43
M  V30 49 1 18 44
M  V30 50 1 20 45
M  V30 51 1 23 46
M  V30 52 1 24 47
M  V30 53 1 24 48
M  V30 54 1 25 49
M  V30 55 1 25 50
M  V30 56 1 26 51
M  V30 57 1 26 52
M  V30 58 1 27 53
M  V30 59 1 27 54
M  V30 60 1 31 55
M  V30 61 1 31 56
M  V30 END BOND
M  V30 END CTAB
M  END
>  <Dataset>  (136) 
ChEMBL_Kinases

>  <Ligand_Instance>  (136) 
nan

>  <PDB_ID>  (136) 
nan

>  <Standardized_SMILES>  (136) 
O[C@H]1CCN(Cc2csc(Nc3ncc4c5ccncc5n(C5CCCC5)c4n3)n2)C1

>  <Name>  (136) 
nan

>  <Pocket>  (136) 
nan

>  <ATP_Site>  (136) 
nan

>  <Peripheral>  (136) 
nan

>  <Num_H_Atoms_ProtBoundConf>  (136) 
nan

>  <Num_Resolved_Atoms>  (136) 
nan

>  <Num_Not_Resolved_Atoms>  (136) 
nan

$$$$
CHEMBL3687528
     RDKit          3D

  0  0  0  0  0  0  0  0  0  0999 V3000
M  V30 BEGIN CTAB
M  V30 COUNTS 72 75 0 0 0
M  V30 BEGIN ATOM
M  V30 1 C 1.468020 -2.532028 7.009842 0
M  V30 2 O 2.812744 -2.737255 7.156810 0
M  V30 3 C 3.356998 -3.616384 6.266252 0
M  V30 4 C 3.169054 -3.136018 4.865410 0
M  V30 5 O 3.786826 -1.864127 4.658524 0
M  V30 6 C 3.641139 -1.360471 3.351953 0
M  V30 7 C 2.949112 -2.056828 2.355699 0
M  V30 8 C 2.831016 -1.521364 1.081807 0
M  V30 9 F 2.129093 -2.301870 0.196387 0
M  V30 10 C 3.406609 -0.281191 0.795438 0
M  V30 11 C 3.161072 0.091767 -0.603440 0
M  V30 12 N 2.017805 0.793218 -0.750257 0
M  V30 13 C 1.606162 1.229941 -1.938335 0
M  V30 14 C 0.413695 1.989363 -2.257826 0
M  V30 15 O 0.112609 2.355462 -3.423975 0
M  V30 16 N -0.398871 2.285840 -1.098748 0
M  V30 17 C -1.623961 2.984728 -0.929041 0
M  V30 18 C -1.594514 4.351530 -0.735816 0
M  V30 19 N -2.713136 5.079310 -0.564190 0
M  V30 20 C -3.894603 4.410334 -0.588033 0
M  V30 21 C -3.930685 3.048287 -0.779997 0
M  V30 22 C -2.792059 2.256824 -0.961688 0
M  V30 23 C -2.975521 0.829097 -1.143749 0 CFG=1
M  V30 24 C -3.119087 0.539671 -2.626594 0
M  V30 25 C -3.079805 -0.944024 -2.911474 0 CFG=1
M  V30 26 N -1.776731 -1.410788 -3.333540 0
M  V30 27 C -3.535556 -1.726356 -1.719388 0 CFG=1
M  V30 28 S -3.728885 -3.414093 -2.162753 0
M  V30 29 C -4.434876 -4.316258 -0.794901 0
M  V30 30 O -2.486749 -4.105739 -2.559755 0
M  V30 31 O -4.712074 -3.494369 -3.294962 0
M  V30 32 C -2.657098 -1.495196 -0.529593 0 CFG=1
M  V30 33 C -1.589290 -2.506634 -0.304691 0
M  V30 34 C -1.973156 -0.116981 -0.632961 0
M  V30 35 C 2.438959 0.906993 -2.990577 0
M  V30 36 C 3.597296 0.204380 -2.891604 0
M  V30 37 C 4.005577 -0.237556 -1.659002 0
M  V30 38 F 5.111638 -0.937030 -1.387659 0
M  V30 39 C 4.082777 0.402319 1.763589 0
M  V30 40 F 4.587290 1.582654 1.355195 0
M  V30 41 C 4.195876 -0.135110 3.025050 0
M  V30 42 H 1.168951 -1.800160 7.817394 0
M  V30 43 H 0.872415 -3.445367 7.140215 0
M  V30 44 H 1.187967 -2.036152 6.038628 0
M  V30 45 H 2.810058 -4.593190 6.338259 0
M  V30 46 H 4.443611 -3.776665 6.413871 0
M  V30 47 H 2.093010 -3.111856 4.610720 0
M  V30 48 H 3.616230 -3.838049 4.117820 0
M  V30 49 H 2.509405 -3.025100 2.609402 0
M  V30 50 H -0.154645 1.986886 -0.131985 0
M  V30 51 H -0.633027 4.856864 -0.722122 0
M  V30 52 H -4.829729 4.967929 -0.451933 0
M  V30 53 H -4.922372 2.578658 -0.786844 0
M  V30 54 H -3.972358 0.503731 -0.705369 0
M  V30 55 H -2.221610 0.958920 -3.123770 0
M  V30 56 H -4.069010 0.961616 -3.024011 0
M  V30 57 H -3.806721 -1.168649 -3.735631 0
M  V30 58 H -1.926195 -2.230184 -3.954186 0
M  V30 59 H -1.228378 -0.718779 -3.869296 0
M  V30 60 H -4.553505 -1.349216 -1.477024 0
M  V30 61 H -3.899785 -5.257706 -0.596350 0
M  V30 62 H -5.518146 -4.509439 -0.934827 0
M  V30 63 H -4.354173 -3.696757 0.142989 0
M  V30 64 H -3.290841 -1.478690 0.385057 0
M  V30 65 H -1.928122 -3.360590 0.347715 0
M  V30 66 H -0.801164 -2.011824 0.336799 0
M  V30 67 H -1.062744 -2.830824 -1.211979 0
M  V30 68 H -1.548456 0.038106 0.352566 0
M  V30 69 H -1.131725 -0.257881 -1.354924 0
M  V30 70 H 2.193157 1.219100 -4.015905 0
M  V30 71 H 4.234904 -0.035793 -3.740556 0
M  V30 72 H 4.740560 0.448883 3.748503 0
M  V30 END ATOM
M  V30 BEGIN BOND
M  V30 1 1 1 2
M  V30 2 1 2 3
M  V30 3 1 3 4
M  V30 4 1 4 5
M  V30 5 1 5 6
M  V30 6 2 6 7
M  V30 7 1 7 8
M  V30 8 1 8 9
M  V30 9 2 8 10
M  V30 10 1 10 11
M  V30 11 2 11 12
M  V30 12 1 12 13
M  V30 13 1 13 14
M  V30 14 2 14 15
M  V30 15 1 14 16
M  V30 16 1 16 17
M  V30 17 2 17 18
M  V30 18 1 18 19
M  V30 19 2 19 20
M  V30 20 1 20 21
M  V30 21 2 21 22
M  V30 22 1 22 23
M  V30 23 1 23 24
M  V30 24 1 24 25
M  V30 25 1 25 26
M  V30 26 1 25 27
M  V30 27 1 27 28
M  V30 28 1 28 29
M  V30 29 2 28 30
M  V30 30 2 28 31
M  V30 31 1 27 32
M  V30 32 1 32 33
M  V30 33 1 32 34
M  V30 34 2 13 35
M  V30 35 1 35 36
M  V30 36 2 36 37
M  V30 37 1 37 38
M  V30 38 1 10 39
M  V30 39 1 39 40
M  V30 40 2 39 41
M  V30 41 1 41 6
M  V30 42 1 37 11
M  V30 43 1 22 17
M  V30 44 1 34 23
M  V30 45 1 1 42
M  V30 46 1 1 43
M  V30 47 1 1 44
M  V30 48 1 3 45
M  V30 49 1 3 46
M  V30 50 1 4 47
M  V30 51 1 4 48
M  V30 52 1 7 49
M  V30 53 1 16 50
M  V30 54 1 18 51
M  V30 55 1 20 52
M  V30 56 1 21 53
M  V30 57 1 23 54 CFG=1
M  V30 58 1 24 55
M  V30 59 1 24 56
M  V30 60 1 25 57 CFG=3
M  V30 61 1 26 58
M  V30 62 1 26 59
M  V30 63 1 27 60 CFG=1
M  V30 64 1 29 61
M  V30 65 1 29 62
M  V30 66 1 29 63
M  V30 67 1 32 64 CFG=1
M  V30 68 1 33 65
M  V30 69 1 33 66
M  V30 70 1 33 67
M  V30 71 1 34 68
M  V30 72 1 34 69
M  V30 73 1 35 70
M  V30 74 1 36 71
M  V30 75 1 41 72
M  V30 END BOND
M  V30 END CTAB
M  END
>  <Dataset>  (137) 
ChEMBL_Kinases

>  <Ligand_Instance>  (137) 
nan

>  <PDB_ID>  (137) 
nan

>  <Standardized_SMILES>  (137) 
COCCOc1cc(F)c(-c2nc(C(=O)Nc3cnccc3[C@H]3C[C@@H](N)[C@@H](S(C)(=O)=O)[C@@H](C)C3)ccc2F)c(F)c1

>  <Name>  (137) 
nan

>  <Pocket>  (137) 
nan

>  <ATP_Site>  (137) 
nan

>  <Peripheral>  (137) 
nan

>  <Num_H_Atoms_ProtBoundConf>  (137) 
nan

>  <Num_Resolved_Atoms>  (137) 
nan

>  <Num_Not_Resolved_Atoms>  (137) 
nan

$$$$
CHEMBL4445116
     RDKit          3D

  0  0  0  0  0  0  0  0  0  0999 V3000
M  V30 BEGIN CTAB
M  V30 COUNTS 49 51 0 0 0
M  V30 BEGIN ATOM
M  V30 1 C 4.914076 -3.357558 3.660948 0
M  V30 2 C 3.923271 -2.338008 3.221474 0
M  V30 3 C 2.626183 -2.352978 4.002349 0
M  V30 4 C 4.505189 -0.997640 3.297444 0
M  V30 5 N 4.963049 0.072560 3.370213 0
M  V30 6 C 3.576161 -2.563205 1.746037 0
M  V30 7 C 2.592054 -1.549187 1.313234 0
M  V30 8 C 1.790688 -0.718557 0.952343 0
M  V30 9 C 0.827277 0.254671 0.507122 0
M  V30 10 C 1.148661 1.594949 0.396613 0
M  V30 11 Cl 2.679309 2.359208 0.743774 0
M  V30 12 C 0.047363 2.300421 -0.048425 0
M  V30 13 C -0.281598 3.610380 -0.352075 0
M  V30 14 Cl 1.014893 4.768121 -0.136926 0
M  V30 15 C -1.533205 3.990578 -0.792071 0
M  V30 16 C -2.462393 2.978907 -0.917702 0
M  V30 17 C -3.812879 3.348776 -1.384559 0
M  V30 18 N -4.813777 2.320173 -1.524752 0
M  V30 19 O -4.155939 4.503652 -1.670734 0
M  V30 20 N -2.161040 1.699333 -0.627233 0
M  V30 21 C -0.941578 1.319848 -0.197142 0
M  V30 22 N -0.454717 0.091987 0.141962 0
M  V30 23 C -1.159211 -1.150657 0.120394 0 CFG=1
M  V30 24 C -2.576696 -1.011133 -0.378471 0
M  V30 25 C -3.327258 -2.327399 -0.290148 0
M  V30 26 C -2.415473 -3.504720 -0.503736 0
M  V30 27 N -1.265427 -3.159469 -1.317710 0
M  V30 28 C -0.433720 -2.139451 -0.750605 0
M  V30 29 H 5.330943 -3.991392 2.853314 0
M  V30 30 H 4.429462 -4.024016 4.433262 0
M  V30 31 H 5.746743 -2.838610 4.197357 0
M  V30 32 H 1.918516 -3.148654 3.652593 0
M  V30 33 H 2.783885 -2.429007 5.086765 0
M  V30 34 H 2.103728 -1.383889 3.825428 0
M  V30 35 H 4.472207 -2.538535 1.124250 0
M  V30 36 H 3.085686 -3.534241 1.623496 0
M  V30 37 H -1.715266 5.030752 -1.008931 0
M  V30 38 H -5.142991 2.250192 -0.522701 0
M  V30 39 H -5.047853 2.351530 -0.495137 0
M  V30 40 H -1.193478 -1.538388 1.157584 0
M  V30 41 H -3.099164 -0.293502 0.281641 0
M  V30 42 H -2.622532 -0.713195 -1.442177 0
M  V30 43 H -3.750728 -2.425377 0.731568 0
M  V30 44 H -4.165258 -2.365305 -0.998958 0
M  V30 45 H -2.095165 -3.979531 0.446305 0
M  V30 46 H -2.985865 -4.273389 -1.062663 0
M  V30 47 H -0.718018 -4.012001 -1.562000 0
M  V30 48 H 0.132286 -1.629630 -1.572285 0
M  V30 49 H 0.312499 -2.664864 -0.084730 0
M  V30 END ATOM
M  V30 BEGIN BOND
M  V30 1 1 1 2
M  V30 2 1 2 3
M  V30 3 1 2 4
M  V30 4 3 4 5
M  V30 5 1 2 6
M  V30 6 1 6 7
M  V30 7 3 7 8
M  V30 8 1 8 9
M  V30 9 2 9 10
M  V30 10 1 10 11
M  V30 11 1 10 12
M  V30 12 2 12 13
M  V30 13 1 13 14
M  V30 14 1 13 15
M  V30 15 2 15 16
M  V30 16 1 16 17
M  V30 17 1 17 18
M  V30 18 2 17 19
M  V30 19 1 16 20
M  V30 20 2 20 21
M  V30 21 1 21 22
M  V30 22 1 22 23
M  V30 23 1 23 24
M  V30 24 1 24 25
M  V30 25 1 25 26
M  V30 26 1 26 27
M  V30 27 1 27 28
M  V30 28 1 22 9
M  V30 29 1 28 23
M  V30 30 1 21 12
M  V30 31 1 1 29
M  V30 32 1 1 30
M  V30 33 1 1 31
M  V30 34 1 3 32
M  V30 35 1 3 33
M  V30 36 1 3 34
M  V30 37 1 6 35
M  V30 38 1 6 36
M  V30 39 1 15 37
M  V30 40 1 18 38
M  V30 41 1 18 39
M  V30 42 1 23 40 CFG=1
M  V30 43 1 24 41
M  V30 44 1 24 42
M  V30 45 1 25 43
M  V30 46 1 25 44
M  V30 47 1 26 45
M  V30 48 1 26 46
M  V30 49 1 27 47
M  V30 50 1 28 48
M  V30 51 1 28 49
M  V30 END BOND
M  V30 END CTAB
M  END
>  <Dataset>  (138) 
ChEMBL_Kinases

>  <Ligand_Instance>  (138) 
nan

>  <PDB_ID>  (138) 
nan

>  <Standardized_SMILES>  (138) 
CC(C)(C#N)CC#Cc1c(Cl)c2c(Cl)cc(C(N)=O)nc2n1[C@H]1CCCNC1

>  <Name>  (138) 
nan

>  <Pocket>  (138) 
nan

>  <ATP_Site>  (138) 
nan

>  <Peripheral>  (138) 
nan

>  <Num_H_Atoms_ProtBoundConf>  (138) 
nan

>  <Num_Resolved_Atoms>  (138) 
nan

>  <Num_Not_Resolved_Atoms>  (138) 
nan

$$$$
CHEMBL4444620
     RDKit          3D

  0  0  0  0  0  0  0  0  0  0999 V3000
M  V30 BEGIN CTAB
M  V30 COUNTS 29 31 0 0 0
M  V30 BEGIN ATOM
M  V30 1 N 3.913633 -2.415779 4.924364 0
M  V30 2 C 3.152263 -2.647405 3.952061 0
M  V30 3 N 1.795451 -2.274726 3.776224 0
M  V30 4 C 1.232060 -2.390568 2.484561 0
M  V30 5 O 0.040885 -2.086891 2.214272 0
M  V30 6 C 2.183181 -2.899457 1.506774 0
M  V30 7 C 2.155004 -2.912941 0.152304 0
M  V30 8 C 0.960778 -2.301679 -0.489448 0
M  V30 9 C 0.108850 -2.728408 -1.464491 0
M  V30 10 C -0.769617 -1.679741 -1.588873 0
M  V30 11 C -0.462489 -0.664853 -0.728766 0
M  V30 12 C -0.983475 0.648333 -0.400733 0
M  V30 13 C -0.324004 1.412619 0.577546 0
M  V30 14 C -0.834395 2.667342 0.853879 0
M  V30 15 C -1.933028 3.239365 0.259114 0
M  V30 16 Cl -2.399878 4.843143 0.762497 0
M  V30 17 C -2.602366 2.481121 -0.724435 0
M  V30 18 C -2.065958 1.226423 -0.979186 0
M  V30 19 Cl -2.983554 0.379958 -2.209954 0
M  V30 20 O 0.596650 -1.111707 -0.092131 0
M  V30 21 S 3.575264 -3.558877 2.466331 0
M  V30 22 H 3.710626 -1.900330 5.811830 0
M  V30 23 H 1.246954 -1.921905 4.622392 0
M  V30 24 H 2.989969 -3.356791 -0.386083 0
M  V30 25 H 0.196275 -3.672841 -1.946993 0
M  V30 26 H -1.600127 -1.647083 -2.269290 0
M  V30 27 H 0.560686 1.072201 1.126036 0
M  V30 28 H -0.285164 3.234027 1.630388 0
M  V30 29 H -3.451578 2.915047 -1.191493 0
M  V30 END ATOM
M  V30 BEGIN BOND
M  V30 1 2 1 2 CFG=2
M  V30 2 1 2 3
M  V30 3 1 3 4
M  V30 4 2 4 5
M  V30 5 1 4 6
M  V30 6 2 6 7
M  V30 7 1 7 8
M  V30 8 2 8 9
M  V30 9 1 9 10
M  V30 10 2 10 11
M  V30 11 1 11 12
M  V30 12 2 12 13
M  V30 13 1 13 14
M  V30 14 2 14 15
M  V30 15 1 15 16
M  V30 16 1 15 17
M  V30 17 2 17 18
M  V30 18 1 18 19
M  V30 19 1 11 20
M  V30 20 1 6 21
M  V30 21 1 21 2
M  V30 22 1 20 8
M  V30 23 1 18 12
M  V30 24 1 1 22
M  V30 25 1 3 23
M  V30 26 1 7 24
M  V30 27 1 9 25
M  V30 28 1 10 26
M  V30 29 1 13 27
M  V30 30 1 14 28
M  V30 31 1 17 29
M  V30 END BOND
M  V30 END CTAB
M  END
>  <Dataset>  (139) 
ChEMBL_Kinases

>  <Ligand_Instance>  (139) 
nan

>  <PDB_ID>  (139) 
nan

>  <Standardized_SMILES>  (139) 
N=C1NC(=O)/C(=C\c2ccc(-c3ccc(Cl)cc3Cl)o2)S1

>  <Name>  (139) 
nan

>  <Pocket>  (139) 
nan

>  <ATP_Site>  (139) 
nan

>  <Peripheral>  (139) 
nan

>  <Num_H_Atoms_ProtBoundConf>  (139) 
nan

>  <Num_Resolved_Atoms>  (139) 
nan

>  <Num_Not_Resolved_Atoms>  (139) 
nan

$$$$
CHEMBL4575880
     RDKit          3D

  0  0  0  0  0  0  0  0  0  0999 V3000
M  V30 BEGIN CTAB
M  V30 COUNTS 45 47 0 0 0
M  V30 BEGIN ATOM
M  V30 1 C 1.426479 -6.440015 -3.494594 0
M  V30 2 O 1.553319 -5.032442 -3.710851 0
M  V30 3 C 1.565756 -4.203244 -2.604423 0
M  V30 4 C 1.457429 -4.705158 -1.302675 0
M  V30 5 C 1.471896 -3.842000 -0.197372 0
M  V30 6 C 1.595668 -2.486834 -0.426996 0
M  V30 7 C 1.706904 -1.902840 -1.663201 0
M  V30 8 C 1.835035 -0.460131 -1.940185 0 CFG=2
M  V30 9 C 3.271747 -0.028373 -1.680698 0
M  V30 10 N 0.882754 0.298852 -1.213335 0
M  V30 11 C -0.102098 1.090546 -0.638270 0
M  V30 12 O -0.690303 1.614205 -1.649427 0
M  V30 13 C -0.468877 1.341572 0.746751 0
M  V30 14 C 0.104133 0.784502 1.868038 0
M  V30 15 C -0.308828 1.084921 3.147377 0
M  V30 16 C -1.344248 1.987056 3.270446 0
M  V30 17 C -1.777547 2.301757 4.632806 0
M  V30 18 C -1.704761 1.355931 5.638109 0
M  V30 19 C -2.109160 1.640307 6.925128 0
M  V30 20 N -2.586409 2.867750 7.211270 0
M  V30 21 C -2.671575 3.823902 6.243349 0
M  V30 22 C -2.272945 3.578980 4.925482 0
M  V30 23 C -1.928635 2.553674 2.158154 0
M  V30 24 C -1.499832 2.240100 0.871161 0
M  V30 25 C 1.682645 -2.833784 -2.684694 0
M  V30 26 H 1.242659 -6.914345 -4.500284 0
M  V30 27 H 2.332770 -6.875422 -3.027297 0
M  V30 28 H 0.563465 -6.695620 -2.866365 0
M  V30 29 H 1.360231 -5.757642 -1.119910 0
M  V30 30 H 1.388828 -4.249657 0.803473 0
M  V30 31 H 1.603148 -1.878816 0.463531 0
M  V30 32 H 1.689005 -0.332901 -3.061372 0
M  V30 33 H 3.615022 -0.380135 -0.690172 0
M  V30 34 H 3.862430 -0.482290 -2.523937 0
M  V30 35 H 3.331733 1.075170 -1.806164 0
M  V30 36 H 1.322125 -0.054777 -0.283610 0
M  V30 37 H 0.906194 0.090005 1.688240 0
M  V30 38 H 0.223178 0.576699 3.940842 0
M  V30 39 H -1.321375 0.400617 5.364128 0
M  V30 40 H -2.015133 0.835943 7.650484 0
M  V30 41 H -3.068296 4.801919 6.536797 0
M  V30 42 H -2.348238 4.354756 4.169385 0
M  V30 43 H -2.734972 3.255722 2.266409 0
M  V30 44 H -1.978624 2.701351 0.010644 0
M  V30 45 H 1.766135 -2.472815 -3.726027 0
M  V30 END ATOM
M  V30 BEGIN BOND
M  V30 1 1 1 2
M  V30 2 1 2 3
M  V30 3 2 3 4
M  V30 4 1 4 5
M  V30 5 2 5 6
M  V30 6 1 6 7
M  V30 7 1 7 8
M  V30 8 1 8 9
M  V30 9 1 8 10
M  V30 10 1 10 11
M  V30 11 2 11 12
M  V30 12 1 11 13
M  V30 13 2 13 14
M  V30 14 1 14 15
M  V30 15 2 15 16
M  V30 16 1 16 17
M  V30 17 2 17 18
M  V30 18 1 18 19
M  V30 19 2 19 20
M  V30 20 1 20 21
M  V30 21 2 21 22
M  V30 22 1 16 23
M  V30 23 2 23 24
M  V30 24 2 7 25
M  V30 25 1 25 3
M  V30 26 1 24 13
M  V30 27 1 22 17
M  V30 28 1 1 26
M  V30 29 1 1 27
M  V30 30 1 1 28
M  V30 31 1 4 29
M  V30 32 1 5 30
M  V30 33 1 6 31
M  V30 34 1 8 32 CFG=3
M  V30 35 1 9 33
M  V30 36 1 9 34
M  V30 37 1 9 35
M  V30 38 1 10 36
M  V30 39 1 14 37
M  V30 40 1 15 38
M  V30 41 1 18 39
M  V30 42 1 19 40
M  V30 43 1 21 41
M  V30 44 1 22 42
M  V30 45 1 23 43
M  V30 46 1 24 44
M  V30 47 1 25 45
M  V30 END BOND
M  V30 END CTAB
M  END
>  <Dataset>  (140) 
ChEMBL_Kinases

>  <Ligand_Instance>  (140) 
nan

>  <PDB_ID>  (140) 
nan

>  <Standardized_SMILES>  (140) 
COc1cccc([C@H](C)NC(=O)c2ccc(-c3ccncc3)cc2)c1

>  <Name>  (140) 
nan

>  <Pocket>  (140) 
nan

>  <ATP_Site>  (140) 
nan

>  <Peripheral>  (140) 
nan

>  <Num_H_Atoms_ProtBoundConf>  (140) 
nan

>  <Num_Resolved_Atoms>  (140) 
nan

>  <Num_Not_Resolved_Atoms>  (140) 
nan

$$$$
CHEMBL372764
     RDKit          3D

  0  0  0  0  0  0  0  0  0  0999 V3000
M  V30 BEGIN CTAB
M  V30 COUNTS 83 83 0 0 0
M  V30 BEGIN ATOM
M  V30 1 C -0.693744 -2.586669 7.135337 0
M  V30 2 C 0.673755 -2.650634 6.513818 0
M  V30 3 C 1.121450 -4.101258 6.451991 0
M  V30 4 C 2.464580 -4.290401 5.850731 0
M  V30 5 C 2.637150 -3.755048 4.492384 0
M  V30 6 C 1.859335 -4.231256 3.338279 0
M  V30 7 C 0.402842 -4.029293 3.301824 0
M  V30 8 C -0.245822 -4.556979 2.027503 0
M  V30 9 C 0.314051 -3.876416 0.841632 0
M  V30 10 C 0.138470 -2.373764 0.809358 0
M  V30 11 C 0.775528 -1.917416 -0.490660 0
M  V30 12 C 0.700842 -0.437656 -0.710497 0
M  V30 13 C 1.388948 0.377270 0.360644 0
M  V30 14 C 1.298418 1.826044 0.106422 0
M  V30 15 C -0.084152 2.417388 0.033979 0
M  V30 16 C -0.907033 2.268705 1.235067 0
M  V30 17 C -2.273481 2.879907 1.203969 0
M  V30 18 C -3.121424 2.291138 0.116879 0
M  V30 19 O -2.671173 2.466113 -1.160299 0
M  V30 20 P -3.738368 1.758290 -2.249219 0
M  V30 21 O -5.074420 2.481838 -2.133895 0
M  V30 22 O -3.954660 0.146024 -1.853719 0 CHG=-1 VAL=1
M  V30 23 O -3.232632 1.979024 -3.850656 0
M  V30 24 C -1.902004 1.714154 -4.022727 0
M  V30 25 C -1.668513 0.726234 -5.119032 0
M  V30 26 C -0.253227 0.396778 -5.373765 0
M  V30 27 N 0.720073 1.420248 -5.159511 0 CHG=1 VAL=4
M  V30 28 C 1.908949 0.789356 -4.612858 0
M  V30 29 C 1.081320 2.036705 -6.410650 0
M  V30 30 C 0.353161 2.466485 -4.245484 0
M  V30 31 C -1.085608 2.948233 -4.434157 0
M  V30 32 H -1.472989 -3.028990 6.478404 0
M  V30 33 H -0.665114 -3.119313 8.113133 0
M  V30 34 H -0.973753 -1.552165 7.341216 0
M  V30 35 H 1.353876 -2.085996 7.206693 0
M  V30 36 H 0.635771 -2.174331 5.518206 0
M  V30 37 H 1.295800 -4.367086 7.593076 0
M  V30 38 H 0.361795 -4.816061 6.171957 0
M  V30 39 H 3.275531 -3.903833 6.545652 0
M  V30 40 H 2.634024 -5.428281 5.814856 0
M  V30 41 H 3.768521 -3.824391 4.269382 0
M  V30 42 H 2.495660 -2.604462 4.523484 0
M  V30 43 H 2.343153 -3.892234 2.359254 0
M  V30 44 H 2.060878 -5.363480 3.267947 0
M  V30 45 H 0.173273 -2.929232 3.305119 0
M  V30 46 H -0.147292 -4.497856 4.133609 0
M  V30 47 H -0.075078 -5.641520 1.918538 0
M  V30 48 H -1.323168 -4.312303 2.096953 0
M  V30 49 H -0.219831 -4.228420 -0.103845 0
M  V30 50 H 1.386765 -4.083055 0.639757 0
M  V30 51 H 0.559013 -1.857789 1.672179 0
M  V30 52 H -0.948601 -2.162558 0.780252 0
M  V30 53 H 0.235062 -2.400832 -1.305686 0
M  V30 54 H 1.828514 -2.248314 -0.566236 0
M  V30 55 H -0.326689 -0.097683 -0.946653 0
M  V30 56 H 1.280381 -0.242081 -1.648265 0
M  V30 57 H 1.143322 0.064745 1.394287 0
M  V30 58 H 2.473617 0.079143 0.259671 0
M  V30 59 H 1.862906 2.069789 -0.817674 0
M  V30 60 H 1.833721 2.376376 0.910033 0
M  V30 61 H -0.029028 3.490049 -0.236899 0
M  V30 62 H -0.564026 1.907117 -0.827814 0
M  V30 63 H -1.047443 1.221565 1.587968 0
M  V30 64 H -0.402042 2.758509 2.130673 0
M  V30 65 H -2.834812 2.662258 2.167889 0
M  V30 66 H -2.212459 4.000732 1.114380 0
M  V30 67 H -3.207880 1.191519 0.385954 0
M  V30 68 H -4.171174 2.677876 0.151655 0
M  V30 69 H -1.479350 1.410567 -3.042518 0
M  V30 70 H -2.151573 1.089631 -6.027056 0
M  V30 71 H -2.219850 -0.211765 -4.819024 0
M  V30 72 H -0.170788 0.074292 -6.443084 0
M  V30 73 H 0.010226 -0.542929 -4.805537 0
M  V30 74 H 2.622733 0.603384 -5.423503 0
M  V30 75 H 1.641961 -0.138190 -4.060254 0
M  V30 76 H 2.423899 1.471637 -3.876100 0
M  V30 77 H 1.839709 2.829283 -6.199637 0
M  V30 78 H 0.183270 2.517619 -6.850996 0
M  V30 79 H 1.508584 1.273531 -7.073559 0
M  V30 80 H 1.040390 3.314596 -4.403737 0
M  V30 81 H 0.412427 2.065351 -3.205202 0
M  V30 82 H -1.234129 3.791631 -3.753806 0
M  V30 83 H -1.263873 3.212139 -5.498380 0
M  V30 END ATOM
M  V30 BEGIN BOND
M  V30 1 1 1 2
M  V30 2 1 2 3
M  V30 3 1 3 4
M  V30 4 1 4 5
M  V30 5 1 5 6
M  V30 6 1 6 7
M  V30 7 1 7 8
M  V30 8 1 8 9
M  V30 9 1 9 10
M  V30 10 1 10 11
M  V30 11 1 11 12
M  V30 12 1 12 13
M  V30 13 1 13 14
M  V30 14 1 14 15
M  V30 15 1 15 16
M  V30 16 1 16 17
M  V30 17 1 17 18
M  V30 18 1 18 19
M  V30 19 1 19 20
M  V30 20 2 20 21
M  V30 21 1 20 22
M  V30 22 1 20 23
M  V30 23 1 23 24
M  V30 24 1 24 25
M  V30 25 1 25 26
M  V30 26 1 26 27
M  V30 27 1 27 28
M  V30 28 1 27 29
M  V30 29 1 27 30
M  V30 30 1 30 31
M  V30 31 1 31 24
M  V30 32 1 1 32
M  V30 33 1 1 33
M  V30 34 1 1 34
M  V30 35 1 2 35
M  V30 36 1 2 36
M  V30 37 1 3 37
M  V30 38 1 3 38
M  V30 39 1 4 39
M  V30 40 1 4 40
M  V30 41 1 5 41
M  V30 42 1 5 42
M  V30 43 1 6 43
M  V30 44 1 6 44
M  V30 45 1 7 45
M  V30 46 1 7 46
M  V30 47 1 8 47
M  V30 48 1 8 48
M  V30 49 1 9 49
M  V30 50 1 9 50
M  V30 51 1 10 51
M  V30 52 1 10 52
M  V30 53 1 11 53
M  V30 54 1 11 54
M  V30 55 1 12 55
M  V30 56 1 12 56
M  V30 57 1 13 57
M  V30 58 1 13 58
M  V30 59 1 14 59
M  V30 60 1 14 60
M  V30 61 1 15 61
M  V30 62 1 15 62
M  V30 63 1 16 63
M  V30 64 1 16 64
M  V30 65 1 17 65
M  V30 66 1 17 66
M  V30 67 1 18 67
M  V30 68 1 18 68
M  V30 69 1 24 69
M  V30 70 1 25 70
M  V30 71 1 25 71
M  V30 72 1 26 72
M  V30 73 1 26 73
M  V30 74 1 28 74
M  V30 75 1 28 75
M  V30 76 1 28 76
M  V30 77 1 29 77
M  V30 78 1 29 78
M  V30 79 1 29 79
M  V30 80 1 30 80
M  V30 81 1 30 81
M  V30 82 1 31 82
M  V30 83 1 31 83
M  V30 END BOND
M  V30 END CTAB
M  END
>  <Dataset>  (141) 
ChEMBL_Kinases

>  <Ligand_Instance>  (141) 
nan

>  <PDB_ID>  (141) 
nan

>  <Standardized_SMILES>  (141) 
CCCCCCCCCCCCCCCCCCOP(=O)([O-])OC1CC[N+](C)(C)CC1

>  <Name>  (141) 
PERIFOSINE

>  <Pocket>  (141) 
nan

>  <ATP_Site>  (141) 
nan

>  <Peripheral>  (141) 
nan

>  <Num_H_Atoms_ProtBoundConf>  (141) 
nan

>  <Num_Resolved_Atoms>  (141) 
nan

>  <Num_Not_Resolved_Atoms>  (141) 
nan

$$$$
CHEMBL4575895
     RDKit          3D

  0  0  0  0  0  0  0  0  0  0999 V3000
M  V30 BEGIN CTAB
M  V30 COUNTS 42 44 0 0 0
M  V30 BEGIN ATOM
M  V30 1 C 2.486433 -4.891733 1.942945 0
M  V30 2 O 1.087596 -4.753207 2.057392 0
M  V30 3 C 0.424164 -3.563423 1.825621 0
M  V30 4 C 1.133256 -2.441255 1.464420 0
M  V30 5 C 0.515165 -1.206935 1.216392 0
M  V30 6 N 1.173601 -0.001302 0.861460 0
M  V30 7 C 0.861233 1.031984 -0.046769 0
M  V30 8 C -0.219428 1.070757 -0.891618 0
M  V30 9 C -0.548228 2.076081 -1.770947 0
M  V30 10 N 0.303287 3.139507 -1.791246 0
M  V30 11 C 1.393641 3.148119 -0.969473 0
M  V30 12 C 2.182075 4.274609 -1.077113 0
M  V30 13 C 3.318863 4.429572 -0.311382 0
M  V30 14 C 4.146619 5.597899 -0.415493 0
M  V30 15 N 4.809335 6.546412 -0.491445 0
M  V30 16 C 3.652836 3.424477 0.572136 0
M  V30 17 C 2.831480 2.320979 0.640381 0
M  V30 18 C 1.690818 2.121120 -0.100205 0
M  V30 19 C -0.857632 -1.219623 1.367058 0
M  V30 20 C -1.599721 -2.326594 1.727688 0
M  V30 21 O -2.968190 -2.369638 1.884992 0
M  V30 22 C -3.693577 -1.166771 1.656997 0
M  V30 23 C -0.946948 -3.520545 1.961244 0
M  V30 24 O -1.614355 -4.681610 2.327514 0
M  V30 25 C -2.092724 -5.593267 1.339293 0
M  V30 26 H 2.796595 -5.933578 1.798081 0
M  V30 27 H 2.782026 -4.356845 1.009789 0
M  V30 28 H 3.064276 -4.460428 2.764255 0
M  V30 29 H 2.224079 -2.423969 1.343614 0
M  V30 30 H 2.016959 -0.003470 1.447709 0
M  V30 31 H -0.907568 0.241189 -0.912894 0
M  V30 32 H -1.420991 2.035512 -2.407632 0
M  V30 33 H 1.958088 5.084391 -1.754674 0
M  V30 34 H 4.536681 3.510686 1.188990 0
M  V30 35 H 3.136867 1.566853 1.345422 0
M  V30 36 H -1.513130 -0.368895 1.236507 0
M  V30 37 H -3.449012 -0.379628 2.401823 0
M  V30 38 H -4.785274 -1.394932 1.671110 0
M  V30 39 H -3.441675 -0.758173 0.659409 0
M  V30 40 H -1.395333 -6.470217 1.344561 0
M  V30 41 H -2.121192 -5.139896 0.326696 0
M  V30 42 H -3.086104 -5.986758 1.589105 0
M  V30 END ATOM
M  V30 BEGIN BOND
M  V30 1 1 1 2
M  V30 2 1 2 3
M  V30 3 2 3 4
M  V30 4 1 4 5
M  V30 5 1 5 6
M  V30 6 1 6 7
M  V30 7 2 7 8
M  V30 8 1 8 9
M  V30 9 2 9 10
M  V30 10 1 10 11
M  V30 11 2 11 12
M  V30 12 1 12 13
M  V30 13 1 13 14
M  V30 14 3 14 15
M  V30 15 2 13 16
M  V30 16 1 16 17
M  V30 17 2 17 18
M  V30 18 2 5 19
M  V30 19 1 19 20
M  V30 20 1 20 21
M  V30 21 1 21 22
M  V30 22 2 20 23
M  V30 23 1 23 24
M  V30 24 1 24 25
M  V30 25 1 23 3
M  V30 26 1 18 7
M  V30 27 1 18 11
M  V30 28 1 1 26
M  V30 29 1 1 27
M  V30 30 1 1 28
M  V30 31 1 4 29
M  V30 32 1 6 30
M  V30 33 1 8 31
M  V30 34 1 9 32
M  V30 35 1 12 33
M  V30 36 1 16 34
M  V30 37 1 17 35
M  V30 38 1 19 36
M  V30 39 1 22 37
M  V30 40 1 22 38
M  V30 41 1 22 39
M  V30 42 1 25 40
M  V30 43 1 25 41
M  V30 44 1 25 42
M  V30 END BOND
M  V30 END CTAB
M  END
>  <Dataset>  (142) 
ChEMBL_Kinases

>  <Ligand_Instance>  (142) 
nan

>  <PDB_ID>  (142) 
nan

>  <Standardized_SMILES>  (142) 
COc1cc(Nc2ccnc3cc(C#N)ccc23)cc(OC)c1OC

>  <Name>  (142) 
nan

>  <Pocket>  (142) 
nan

>  <ATP_Site>  (142) 
nan

>  <Peripheral>  (142) 
nan

>  <Num_H_Atoms_ProtBoundConf>  (142) 
nan

>  <Num_Resolved_Atoms>  (142) 
nan

>  <Num_Not_Resolved_Atoms>  (142) 
nan

$$$$
CHEMBL4444997
     RDKit          3D

  0  0  0  0  0  0  0  0  0  0999 V3000
M  V30 BEGIN CTAB
M  V30 COUNTS 45 48 0 0 0
M  V30 BEGIN ATOM
M  V30 1 N -1.188962 -3.133303 0.455135 0
M  V30 2 C 0.192424 -3.471748 0.458239 0
M  V30 3 C 1.204347 -2.925711 -0.287899 0
M  V30 4 C 1.031592 -1.859284 -1.251455 0
M  V30 5 O -0.134900 -1.409748 -1.394665 0
M  V30 6 N 2.072332 -1.307507 -2.021978 0
M  V30 7 C 1.576959 -0.245600 -2.902564 0
M  V30 8 C 0.963444 0.873723 -2.026283 0
M  V30 9 N 0.038298 1.257825 -1.526804 0
M  V30 10 C -0.173886 2.326392 -0.796514 0
M  V30 11 C 0.868749 3.122678 -0.587260 0
M  V30 12 C 1.268613 4.402364 0.104937 0
M  V30 13 O 2.468220 4.750042 -0.011256 0
M  V30 14 N 0.209371 5.017045 0.786329 0
M  V30 15 C 0.482486 6.262796 1.492581 0
M  V30 16 C -0.367724 6.616855 2.691941 0
M  V30 17 C -0.687605 7.283293 1.401946 0
M  V30 18 S 2.224565 2.233208 -1.524183 0
M  V30 19 C 2.321019 -3.615883 0.106035 0
M  V30 20 N 1.966751 -4.511227 1.030451 0
M  V30 21 N 0.662051 -4.444347 1.266562 0
M  V30 22 C -0.029385 -5.271579 2.203828 0
M  V30 23 C 0.423625 -6.567257 2.354165 0
M  V30 24 C -0.173269 -7.447492 3.232410 0
M  V30 25 C -1.263371 -7.062401 4.007313 0
M  V30 26 C -1.694402 -5.775630 3.841784 0
M  V30 27 C -1.108317 -4.873316 2.963701 0
M  V30 28 H -1.922139 -2.531684 0.888700 0
M  V30 29 H -2.115176 -3.329177 0.017448 0
M  V30 30 H 3.024877 -1.706936 -1.875796 0
M  V30 31 H 0.711435 -0.575552 -3.491993 0
M  V30 32 H 2.382453 0.174944 -3.527507 0
M  V30 33 H -1.085053 2.669769 -0.326567 0
M  V30 34 H -0.758157 4.631920 0.814035 0
M  V30 35 H 1.488430 6.679852 1.477022 0
M  V30 36 H -1.036853 5.779746 3.046482 0
M  V30 37 H 0.058000 7.208626 3.502378 0
M  V30 38 H -0.414996 8.348805 1.332956 0
M  V30 39 H -1.622777 6.941678 0.919324 0
M  V30 40 H 3.323107 -3.443580 -0.285995 0
M  V30 41 H 1.270211 -7.014258 1.814040 0
M  V30 42 H 0.158299 -8.481435 3.378165 0
M  V30 43 H -1.783874 -7.690570 4.715234 0
M  V30 44 H -2.543439 -5.401334 4.414215 0
M  V30 45 H -1.458538 -3.858004 2.841506 0
M  V30 END ATOM
M  V30 BEGIN BOND
M  V30 1 1 1 2
M  V30 2 2 2 3
M  V30 3 1 3 4
M  V30 4 2 4 5
M  V30 5 1 4 6
M  V30 6 1 6 7
M  V30 7 1 7 8
M  V30 8 2 8 9
M  V30 9 1 9 10
M  V30 10 2 10 11
M  V30 11 1 11 12
M  V30 12 2 12 13
M  V30 13 1 12 14
M  V30 14 1 14 15
M  V30 15 1 15 16
M  V30 16 1 16 17
M  V30 17 1 11 18
M  V30 18 1 3 19
M  V30 19 2 19 20
M  V30 20 1 20 21
M  V30 21 1 21 22
M  V30 22 2 22 23
M  V30 23 1 23 24
M  V30 24 2 24 25
M  V30 25 1 25 26
M  V30 26 2 26 27
M  V30 27 1 21 2
M  V30 28 1 27 22
M  V30 29 1 18 8
M  V30 30 1 17 15
M  V30 31 1 1 28
M  V30 32 1 1 29
M  V30 33 1 6 30
M  V30 34 1 7 31
M  V30 35 1 7 32
M  V30 36 1 10 33
M  V30 37 1 14 34
M  V30 38 1 15 35
M  V30 39 1 16 36
M  V30 40 1 16 37
M  V30 41 1 17 38
M  V30 42 1 17 39
M  V30 43 1 19 40
M  V30 44 1 23 41
M  V30 45 1 24 42
M  V30 46 1 25 43
M  V30 47 1 26 44
M  V30 48 1 27 45
M  V30 END BOND
M  V30 END CTAB
M  END
>  <Dataset>  (143) 
ChEMBL_Kinases

>  <Ligand_Instance>  (143) 
nan

>  <PDB_ID>  (143) 
nan

>  <Standardized_SMILES>  (143) 
Nc1c(C(=O)NCc2ncc(C(=O)NC3CC3)s2)cnn1-c1ccccc1

>  <Name>  (143) 
nan

>  <Pocket>  (143) 
nan

>  <ATP_Site>  (143) 
nan

>  <Peripheral>  (143) 
nan

>  <Num_H_Atoms_ProtBoundConf>  (143) 
nan

>  <Num_Resolved_Atoms>  (143) 
nan

>  <Num_Not_Resolved_Atoms>  (143) 
nan

$$$$
CHEMBL4444495
     RDKit          3D

  0  0  0  0  0  0  0  0  0  0999 V3000
M  V30 BEGIN CTAB
M  V30 COUNTS 44 46 0 0 0
M  V30 BEGIN ATOM
M  V30 1 C 1.829312 -2.667662 3.875305 0
M  V30 2 C 1.488905 -3.040243 2.440149 0
M  V30 3 C 2.791944 -3.377432 1.741784 0
M  V30 4 C 2.574242 -3.750856 0.282550 0
M  V30 5 O 1.986504 -2.646873 -0.374689 0
M  V30 6 C 1.691753 -2.689118 -1.724557 0
M  V30 7 O 1.931490 -3.714143 -2.407598 0
M  V30 8 C 1.095970 -1.485166 -2.295313 0
M  V30 9 C 0.683771 -0.428817 -1.499915 0
M  V30 10 C 0.118820 0.726892 -1.976133 0
M  V30 11 C -0.318618 1.785727 -1.066276 0
M  V30 12 C -0.845009 3.023786 -1.421954 0
M  V30 13 C -1.093681 3.636542 -0.214235 0
M  V30 14 C -0.731714 2.801348 0.820978 0
M  V30 15 C -0.787491 2.966506 2.293116 0
M  V30 16 C -1.267822 2.039372 3.140594 0
M  V30 17 N -1.401025 2.008762 4.554159 0
M  V30 18 C -2.018670 0.786702 4.937285 0
M  V30 19 S -2.327867 0.416919 6.497393 0
M  V30 20 N -2.300156 -0.005371 3.777427 0
M  V30 21 C -1.836553 0.765956 2.645323 0
M  V30 22 O -1.975275 0.276151 1.489394 0
M  V30 23 O -0.281092 1.724580 0.236320 0
M  V30 24 C -0.039452 0.823122 -3.334166 0
M  V30 25 C 0.352621 -0.201997 -4.199337 0
M  V30 26 C 0.923980 -1.366180 -3.684458 0
M  V30 27 Cl 1.415030 -2.672353 -4.771930 0
M  V30 28 H 2.453026 -3.459021 4.331299 0
M  V30 29 H 2.447003 -1.723084 3.879626 0
M  V30 30 H 0.922735 -2.459430 4.473935 0
M  V30 31 H 0.866181 -2.316080 1.920576 0
M  V30 32 H 0.943274 -4.031077 2.498550 0
M  V30 33 H 3.534297 -2.549659 1.805467 0
M  V30 34 H 3.228308 -4.251319 2.266870 0
M  V30 35 H 3.601321 -3.867354 -0.138111 0
M  V30 36 H 1.998025 -4.666164 0.164174 0
M  V30 37 H 0.824407 -0.532234 -0.410553 0
M  V30 38 H -1.022327 3.421015 -2.410873 0
M  V30 39 H -1.507622 4.624876 -0.031207 0
M  V30 40 H -0.437922 3.874848 2.806269 0
M  V30 41 H -1.065505 2.808763 5.160814 0
M  V30 42 H -2.757586 -0.967854 3.766741 0
M  V30 43 H -0.488745 1.754953 -3.687522 0
M  V30 44 H 0.199100 -0.068155 -5.279681 0
M  V30 END ATOM
M  V30 BEGIN BOND
M  V30 1 1 1 2
M  V30 2 1 2 3
M  V30 3 1 3 4
M  V30 4 1 4 5
M  V30 5 1 5 6
M  V30 6 2 6 7
M  V30 7 1 6 8
M  V30 8 2 8 9
M  V30 9 1 9 10
M  V30 10 1 10 11
M  V30 11 2 11 12
M  V30 12 1 12 13
M  V30 13 2 13 14
M  V30 14 1 14 15
M  V30 15 2 15 16
M  V30 16 1 16 17
M  V30 17 1 17 18
M  V30 18 2 18 19
M  V30 19 1 18 20
M  V30 20 1 20 21
M  V30 21 2 21 22
M  V30 22 1 14 23
M  V30 23 2 10 24
M  V30 24 1 24 25
M  V30 25 2 25 26
M  V30 26 1 26 27
M  V30 27 1 26 8
M  V30 28 1 23 11
M  V30 29 1 21 16
M  V30 30 1 1 28
M  V30 31 1 1 29
M  V30 32 1 1 30
M  V30 33 1 2 31
M  V30 34 1 2 32
M  V30 35 1 3 33
M  V30 36 1 3 34
M  V30 37 1 4 35
M  V30 38 1 4 36
M  V30 39 1 9 37
M  V30 40 1 12 38
M  V30 41 1 13 39
M  V30 42 1 15 40
M  V30 43 1 17 41
M  V30 44 1 20 42
M  V30 45 1 24 43
M  V30 46 1 25 44
M  V30 END BOND
M  V30 END CTAB
M  END
>  <Dataset>  (144) 
ChEMBL_Kinases

>  <Ligand_Instance>  (144) 
nan

>  <PDB_ID>  (144) 
nan

>  <Standardized_SMILES>  (144) 
CCCCOC(=O)c1cc(-c2ccc(/C=C3/NC(=S)NC3=O)o2)ccc1Cl

>  <Name>  (144) 
nan

>  <Pocket>  (144) 
nan

>  <ATP_Site>  (144) 
nan

>  <Peripheral>  (144) 
nan

>  <Num_H_Atoms_ProtBoundConf>  (144) 
nan

>  <Num_Resolved_Atoms>  (144) 
nan

>  <Num_Not_Resolved_Atoms>  (144) 
nan

$$$$
CHEMBL247067
     RDKit          3D

  0  0  0  0  0  0  0  0  0  0999 V3000
M  V30 BEGIN CTAB
M  V30 COUNTS 71 77 0 0 0
M  V30 BEGIN ATOM
M  V30 1 C 5.508464 -1.708020 0.014467 0
M  V30 2 N 4.448615 -1.105855 0.767474 0
M  V30 3 C 4.481959 -1.189457 2.216867 0
M  V30 4 C 3.348437 -0.420479 0.174301 0
M  V30 5 C 2.338431 0.151975 0.928715 0
M  V30 6 C 1.317482 0.793014 0.253300 0
M  V30 7 C 1.302418 0.862319 -1.124313 0
M  V30 8 C 2.327593 0.279717 -1.841783 0
M  V30 9 N 3.309095 -0.338348 -1.166009 0
M  V30 10 C 2.150020 0.484277 -3.274734 0
M  V30 11 C 1.410129 -0.516285 -4.063036 0
M  V30 12 C 0.018499 -0.846631 -3.726933 0
M  V30 13 N -0.313068 -1.519440 -2.522202 0
M  V30 14 C -1.601750 -1.297610 -2.138112 0
M  V30 15 C -1.890614 -2.016380 -1.007706 0
M  V30 16 C -0.752362 -2.707776 -0.670216 0
M  V30 17 C -0.542898 -3.576240 0.376338 0
M  V30 18 C 0.710753 -4.170666 0.495085 0
M  V30 19 C 1.659036 -3.839652 -0.456724 0
M  V30 20 C 1.419294 -2.968101 -1.491139 0
M  V30 21 C 0.198571 -2.367008 -1.637302 0
M  V30 22 C -3.181552 -2.054273 -0.327732 0
M  V30 23 C -3.891070 -1.419905 0.579405 0
M  V30 24 C -5.181784 -2.075352 0.755009 0
M  V30 25 O -6.122964 -1.763528 1.520783 0
M  V30 26 N -5.280901 -3.204231 -0.104427 0
M  V30 27 C -4.012341 -3.197254 -0.794869 0
M  V30 28 O -3.834612 -4.139907 -1.652413 0
M  V30 29 C -3.420699 -0.261111 1.309337 0
M  V30 30 C -2.749980 0.816314 0.809220 0
M  V30 31 N -2.465943 1.673449 1.796800 0
M  V30 32 C -2.924942 1.219547 2.971450 0
M  V30 33 C -2.826767 1.811243 4.205049 0
M  V30 34 C -3.375148 1.143843 5.270065 0
M  V30 35 C -3.990410 -0.070875 5.060858 0
M  V30 36 C -4.052464 -0.606749 3.792236 0
M  V30 37 C -3.522436 0.011655 2.678593 0
M  V30 38 C -1.698348 2.875592 1.409848 0
M  V30 39 C -0.584907 2.418089 0.450228 0
M  V30 40 C 0.266731 1.368703 1.119916 0
M  V30 41 H 5.275372 -1.799049 -1.062559 0
M  V30 42 H 5.662811 -2.756325 0.392567 0
M  V30 43 H 6.450638 -1.141265 0.161952 0
M  V30 44 H 4.441155 -0.175877 2.683042 0
M  V30 45 H 5.330936 -1.789109 2.580842 0
M  V30 46 H 3.546816 -1.709670 2.559448 0
M  V30 47 H 2.373865 0.083515 2.017558 0
M  V30 48 H 0.452478 1.390028 -1.534075 0
M  V30 49 H 3.210208 0.487890 -3.705584 0
M  V30 50 H 1.823569 1.544040 -3.511279 0
M  V30 51 H 2.021800 -1.466953 -4.103995 0
M  V30 52 H 1.489626 -0.180517 -5.155942 0
M  V30 53 H -0.360125 -1.539883 -4.561095 0
M  V30 54 H -0.658191 0.055386 -3.844505 0
M  V30 55 H -2.405043 -0.671423 -2.561306 0
M  V30 56 H -1.263747 -3.848355 1.127615 0
M  V30 57 H 1.030074 -4.866427 1.251666 0
M  V30 58 H 2.675992 -4.258442 -0.444617 0
M  V30 59 H 2.166239 -2.721880 -2.218275 0
M  V30 60 H -6.091066 -3.858880 -0.189797 0
M  V30 61 H -2.563072 0.817565 -0.240917 0
M  V30 62 H -2.343037 2.754855 4.335918 0
M  V30 63 H -3.338016 1.544870 6.270206 0
M  V30 64 H -4.422162 -0.595718 5.902556 0
M  V30 65 H -4.541221 -1.563266 3.696211 0
M  V30 66 H -2.361114 3.614596 0.930773 0
M  V30 67 H -1.273602 3.336569 2.317516 0
M  V30 68 H -1.062908 2.102987 -0.486265 0
M  V30 69 H 0.065468 3.285168 0.223262 0
M  V30 70 H -0.389402 0.527685 1.403840 0
M  V30 71 H 0.695364 1.739851 2.079145 0
M  V30 END ATOM
M  V30 BEGIN BOND
M  V30 1 1 1 2
M  V30 2 1 2 3
M  V30 3 1 2 4
M  V30 4 2 4 5
M  V30 5 1 5 6
M  V30 6 2 6 7
M  V30 7 1 7 8
M  V30 8 2 8 9
M  V30 9 1 8 10
M  V30 10 1 10 11
M  V30 11 1 11 12
M  V30 12 1 12 13
M  V30 13 1 13 14
M  V30 14 2 14 15
M  V30 15 1 15 16
M  V30 16 2 16 17
M  V30 17 1 17 18
M  V30 18 2 18 19
M  V30 19 1 19 20
M  V30 20 2 20 21
M  V30 21 1 15 22
M  V30 22 2 22 23
M  V30 23 1 23 24
M  V30 24 2 24 25
M  V30 25 1 24 26
M  V30 26 1 26 27
M  V30 27 2 27 28
M  V30 28 1 23 29
M  V30 29 2 29 30
M  V30 30 1 30 31
M  V30 31 1 31 32
M  V30 32 2 32 33
M  V30 33 1 33 34
M  V30 34 2 34 35
M  V30 35 1 35 36
M  V30 36 2 36 37
M  V30 37 1 31 38
M  V30 38 1 38 39
M  V30 39 1 39 40
M  V30 40 1 9 4
M  V30 41 1 21 13
M  V30 42 1 27 22
M  V30 43 1 37 29
M  V30 44 1 40 6
M  V30 45 1 21 16
M  V30 46 1 37 32
M  V30 47 1 1 41
M  V30 48 1 1 42
M  V30 49 1 1 43
M  V30 50 1 3 44
M  V30 51 1 3 45
M  V30 52 1 3 46
M  V30 53 1 5 47
M  V30 54 1 7 48
M  V30 55 1 10 49
M  V30 56 1 10 50
M  V30 57 1 11 51
M  V30 58 1 11 52
M  V30 59 1 12 53
M  V30 60 1 12 54
M  V30 61 1 14 55
M  V30 62 1 17 56
M  V30 63 1 18 57
M  V30 64 1 19 58
M  V30 65 1 20 59
M  V30 66 1 26 60
M  V30 67 1 30 61
M  V30 68 1 33 62
M  V30 69 1 34 63
M  V30 70 1 35 64
M  V30 71 1 36 65
M  V30 72 1 38 66
M  V30 73 1 38 67
M  V30 74 1 39 68
M  V30 75 1 39 69
M  V30 76 1 40 70
M  V30 77 1 40 71
M  V30 END BOND
M  V30 END CTAB
M  END
>  <Dataset>  (145) 
ChEMBL_Kinases

>  <Ligand_Instance>  (145) 
nan

>  <PDB_ID>  (145) 
nan

>  <Standardized_SMILES>  (145) 
CN(C)c1cc2cc(n1)CCCn1cc(c3ccccc31)C1=C(C(=O)NC1=O)c1cn(c3ccccc13)CCC2

>  <Name>  (145) 
nan

>  <Pocket>  (145) 
nan

>  <ATP_Site>  (145) 
nan

>  <Peripheral>  (145) 
nan

>  <Num_H_Atoms_ProtBoundConf>  (145) 
nan

>  <Num_Resolved_Atoms>  (145) 
nan

>  <Num_Not_Resolved_Atoms>  (145) 
nan

$$$$
CHEMBL3727506
     RDKit          3D

  0  0  0  0  0  0  0  0  0  0999 V3000
M  V30 BEGIN CTAB
M  V30 COUNTS 33 34 0 0 0
M  V30 BEGIN ATOM
M  V30 1 O -0.982574 -1.010989 -0.122331 0
M  V30 2 C -0.270577 -0.607470 0.835031 0
M  V30 3 C 0.591742 -1.658679 1.417679 0
M  V30 4 N 0.438983 -2.938359 0.766122 0
M  V30 5 C 1.182973 -4.086227 1.177162 0
M  V30 6 C 2.068473 -3.953660 2.226806 0
M  V30 7 C 2.782842 -5.088294 2.609613 0
M  V30 8 C 2.616163 -6.298109 1.969254 0
M  V30 9 C 1.724369 -6.386938 0.928830 0
M  V30 10 C 0.993049 -5.275863 0.518083 0
M  V30 11 N -0.209086 0.688756 1.390337 0
M  V30 12 N -1.084436 1.614703 0.746306 0
M  V30 13 C -0.543320 2.543526 0.032174 0
M  V30 14 C -1.414917 3.501332 -0.635614 0
M  V30 15 C -2.785274 3.431369 -0.517833 0
M  V30 16 C -3.641663 4.325976 -1.139773 0
M  V30 17 N -3.109338 5.314184 -1.897882 0
M  V30 18 C -1.772827 5.402594 -2.027700 0
M  V30 19 C -0.901567 4.519827 -1.415262 0
M  V30 20 H 1.654473 -1.377167 1.462113 0
M  V30 21 H 0.204609 -1.816186 2.467730 0
M  V30 22 H -0.241854 -2.995454 -0.024557 0
M  V30 23 H 2.238378 -3.032413 2.762940 0
M  V30 24 H 3.501880 -5.058543 3.432822 0
M  V30 25 H 3.185571 -7.148800 2.294419 0
M  V30 26 H 1.612904 -7.332204 0.449700 0
M  V30 27 H 0.309759 -5.420602 -0.307742 0
M  V30 28 H 0.446011 0.872813 2.201101 0
M  V30 29 H 0.526878 2.645499 -0.094715 0
M  V30 30 H -3.188732 2.617156 0.105129 0
M  V30 31 H -4.702827 4.154760 -0.961812 0
M  V30 32 H -1.453566 6.229501 -2.656034 0
M  V30 33 H 0.164483 4.641891 -1.556987 0
M  V30 END ATOM
M  V30 BEGIN BOND
M  V30 1 2 1 2
M  V30 2 1 2 3
M  V30 3 1 3 4
M  V30 4 1 4 5
M  V30 5 2 5 6
M  V30 6 1 6 7
M  V30 7 2 7 8
M  V30 8 1 8 9
M  V30 9 2 9 10
M  V30 10 1 2 11
M  V30 11 1 11 12
M  V30 12 2 12 13
M  V30 13 1 13 14
M  V30 14 2 14 15
M  V30 15 1 15 16
M  V30 16 2 16 17
M  V30 17 1 17 18
M  V30 18 2 18 19
M  V30 19 1 10 5
M  V30 20 1 19 14
M  V30 21 1 3 20
M  V30 22 1 3 21
M  V30 23 1 4 22
M  V30 24 1 6 23
M  V30 25 1 7 24
M  V30 26 1 8 25
M  V30 27 1 9 26
M  V30 28 1 10 27
M  V30 29 1 11 28
M  V30 30 1 13 29
M  V30 31 1 15 30
M  V30 32 1 16 31
M  V30 33 1 18 32
M  V30 34 1 19 33
M  V30 END BOND
M  V30 END CTAB
M  END
>  <Dataset>  (146) 
ChEMBL_Kinases

>  <Ligand_Instance>  (146) 
nan

>  <PDB_ID>  (146) 
nan

>  <Standardized_SMILES>  (146) 
O=C(CNc1ccccc1)N/N=C/c1ccncc1

>  <Name>  (146) 
nan

>  <Pocket>  (146) 
nan

>  <ATP_Site>  (146) 
nan

>  <Peripheral>  (146) 
nan

>  <Num_H_Atoms_ProtBoundConf>  (146) 
nan

>  <Num_Resolved_Atoms>  (146) 
nan

>  <Num_Not_Resolved_Atoms>  (146) 
nan

$$$$
CHEMBL3687533
     RDKit          3D

  0  0  0  0  0  0  0  0  0  0999 V3000
M  V30 BEGIN CTAB
M  V30 COUNTS 70 73 0 0 0
M  V30 BEGIN ATOM
M  V30 1 C 8.122667 -0.561767 5.818548 0
M  V30 2 O 7.319028 -1.667944 5.613805 0
M  V30 3 C 5.975000 -1.392721 5.459115 0
M  V30 4 C 5.633536 -0.504683 4.301131 0
M  V30 5 O 4.226148 -0.333049 4.294933 0
M  V30 6 C 3.537034 0.428822 3.362093 0
M  V30 7 C 4.114070 1.119181 2.316558 0
M  V30 8 C 3.381468 1.863748 1.415051 0
M  V30 9 F 3.964876 2.534745 0.395814 0
M  V30 10 C 2.007038 1.894130 1.602274 0
M  V30 11 C 1.134443 2.647609 0.702266 0
M  V30 12 N 0.688997 1.881098 -0.312885 0
M  V30 13 C -0.117143 2.311440 -1.274614 0
M  V30 14 C -0.615952 1.500663 -2.380381 0
M  V30 15 O -1.378846 1.927459 -3.284608 0
M  V30 16 N -0.190094 0.168695 -2.390949 0
M  V30 17 C -0.342235 -1.013284 -3.166677 0
M  V30 18 C 0.565703 -1.234766 -4.200635 0
M  V30 19 N 0.420189 -2.358474 -4.933817 0
M  V30 20 C -0.582128 -3.240976 -4.666352 0
M  V30 21 C -1.473085 -3.009988 -3.641271 0
M  V30 22 C -1.391233 -1.869527 -2.834756 0
M  V30 23 C -2.303245 -1.532225 -1.711680 0 CFG=1
M  V30 24 C -3.499178 -0.771365 -2.148154 0
M  V30 25 C -4.807904 -1.161327 -1.595724 0 CFG=1
M  V30 26 N -5.765560 -1.521389 -2.656279 0
M  V30 27 C -4.867540 -2.258849 -0.603016 0 CFG=2
M  V30 28 O -5.924236 -2.120703 0.303138 0
M  V30 29 C -6.789620 -3.201462 0.214809 0
M  V30 30 C -3.582558 -2.399780 0.147678 0 CFG=1
M  V30 31 C -3.608125 -3.382213 1.271581 0
M  V30 32 C -2.564463 -2.775293 -0.937698 0
M  V30 33 C -0.539201 3.622250 -1.255554 0
M  V30 34 C -0.101322 4.437725 -0.228014 0
M  V30 35 C 0.735783 3.976068 0.763800 0
M  V30 36 F 1.241168 4.635544 1.815231 0
M  V30 37 C 1.366885 1.213267 2.645677 0
M  V30 38 F 0.031593 1.265226 2.795876 0
M  V30 39 C 2.167771 0.476061 3.525904 0
M  V30 40 H 8.052914 0.111407 4.963689 0
M  V30 41 H 7.848713 -0.025229 6.775153 0
M  V30 42 H 9.172714 -0.935832 5.918843 0
M  V30 43 H 5.531080 -0.906706 6.371129 0
M  V30 44 H 5.481089 -2.404709 5.355539 0
M  V30 45 H 6.042092 -0.934302 3.376594 0
M  V30 46 H 6.144929 0.476712 4.458801 0
M  V30 47 H 5.190654 1.047881 2.234757 0
M  V30 48 H 0.455851 -0.225613 -1.644372 0
M  V30 49 H 1.352107 -0.517803 -4.391278 0
M  V30 50 H -0.678028 -4.134893 -5.267899 0
M  V30 51 H -2.269779 -3.699362 -3.419933 0
M  V30 52 H -1.688012 -0.882299 -1.015368 0
M  V30 53 H -3.323844 0.315813 -1.994105 0
M  V30 54 H -3.545453 -0.863806 -3.265080 0
M  V30 55 H -5.311218 -0.276641 -1.110419 0
M  V30 56 H -5.585229 -2.498824 -2.972271 0
M  V30 57 H -5.781322 -0.818965 -3.425905 0
M  V30 58 H -5.021882 -3.226834 -1.155902 0
M  V30 59 H -6.328558 -4.174103 0.427570 0
M  V30 60 H -7.273661 -3.256879 -0.774241 0
M  V30 61 H -7.572668 -3.055738 1.011793 0
M  V30 62 H -3.360228 -1.390441 0.577223 0
M  V30 63 H -2.835187 -3.043463 2.022250 0
M  V30 64 H -3.362349 -4.419930 0.977822 0
M  V30 65 H -4.570838 -3.305937 1.808379 0
M  V30 66 H -3.046964 -3.533234 -1.557675 0
M  V30 67 H -1.669106 -3.102567 -0.384215 0
M  V30 68 H -1.196330 4.020566 -2.016729 0
M  V30 69 H -0.379328 5.474501 -0.132706 0
M  V30 70 H 1.619882 -0.039039 4.324841 0
M  V30 END ATOM
M  V30 BEGIN BOND
M  V30 1 1 1 2
M  V30 2 1 2 3
M  V30 3 1 3 4
M  V30 4 1 4 5
M  V30 5 1 5 6
M  V30 6 2 6 7
M  V30 7 1 7 8
M  V30 8 1 8 9
M  V30 9 2 8 10
M  V30 10 1 10 11
M  V30 11 2 11 12
M  V30 12 1 12 13
M  V30 13 1 13 14
M  V30 14 2 14 15
M  V30 15 1 14 16
M  V30 16 1 16 17
M  V30 17 2 17 18
M  V30 18 1 18 19
M  V30 19 2 19 20
M  V30 20 1 20 21
M  V30 21 2 21 22
M  V30 22 1 22 23
M  V30 23 1 23 24
M  V30 24 1 24 25
M  V30 25 1 25 26
M  V30 26 1 25 27
M  V30 27 1 27 28
M  V30 28 1 28 29
M  V30 29 1 27 30
M  V30 30 1 30 31
M  V30 31 1 30 32
M  V30 32 2 13 33
M  V30 33 1 33 34
M  V30 34 2 34 35
M  V30 35 1 35 36
M  V30 36 1 10 37
M  V30 37 1 37 38
M  V30 38 2 37 39
M  V30 39 1 39 6
M  V30 40 1 35 11
M  V30 41 1 22 17
M  V30 42 1 32 23
M  V30 43 1 1 40
M  V30 44 1 1 41
M  V30 45 1 1 42
M  V30 46 1 3 43
M  V30 47 1 3 44
M  V30 48 1 4 45
M  V30 49 1 4 46
M  V30 50 1 7 47
M  V30 51 1 16 48
M  V30 52 1 18 49
M  V30 53 1 20 50
M  V30 54 1 21 51
M  V30 55 1 23 52 CFG=1
M  V30 56 1 24 53
M  V30 57 1 24 54
M  V30 58 1 25 55 CFG=1
M  V30 59 1 26 56
M  V30 60 1 26 57
M  V30 61 1 27 58 CFG=3
M  V30 62 1 29 59
M  V30 63 1 29 60
M  V30 64 1 29 61
M  V30 65 1 30 62 CFG=1
M  V30 66 1 31 63
M  V30 67 1 31 64
M  V30 68 1 31 65
M  V30 69 1 32 66
M  V30 70 1 32 67
M  V30 71 1 33 68
M  V30 72 1 34 69
M  V30 73 1 39 70
M  V30 END BOND
M  V30 END CTAB
M  END
>  <Dataset>  (147) 
ChEMBL_Kinases

>  <Ligand_Instance>  (147) 
nan

>  <PDB_ID>  (147) 
nan

>  <Standardized_SMILES>  (147) 
COCCOc1cc(F)c(-c2nc(C(=O)Nc3cnccc3[C@H]3C[C@@H](N)[C@H](OC)[C@@H](C)C3)ccc2F)c(F)c1

>  <Name>  (147) 
nan

>  <Pocket>  (147) 
nan

>  <ATP_Site>  (147) 
nan

>  <Peripheral>  (147) 
nan

>  <Num_H_Atoms_ProtBoundConf>  (147) 
nan

>  <Num_Resolved_Atoms>  (147) 
nan

>  <Num_Not_Resolved_Atoms>  (147) 
nan

$$$$
CHEMBL24609
     RDKit          3D

  0  0  0  0  0  0  0  0  0  0999 V3000
M  V30 BEGIN CTAB
M  V30 COUNTS 60 59 0 0 0
M  V30 BEGIN ATOM
M  V30 1 C 1.055966 -4.735841 5.585280 0
M  V30 2 C 0.988539 -3.218881 5.495742 0
M  V30 3 C 0.430825 -2.803129 4.168964 0
M  V30 4 C 0.316914 -1.327776 3.970233 0
M  V30 5 C 1.617369 -0.574550 4.056270 0
M  V30 6 C 2.621480 -0.999636 3.046401 0
M  V30 7 C 2.173113 -0.832060 1.624215 0
M  V30 8 C 1.852908 0.544742 1.256918 0
M  V30 9 O 1.970975 1.460762 2.085016 0
M  V30 10 O 1.440382 0.661764 -0.018502 0
M  V30 11 C 1.017298 1.691324 -0.821559 0
M  V30 12 C -0.276586 2.356112 -0.605393 0
M  V30 13 C -0.360376 3.324074 0.520796 0
M  V30 14 O -0.605665 2.727671 1.747631 0
M  V30 15 O -1.425578 1.541309 -0.685411 0
M  V30 16 C -2.319715 1.735793 -1.719786 0
M  V30 17 O -2.182012 2.624884 -2.633960 0
M  V30 18 C -3.480614 0.838171 -1.718870 0
M  V30 19 C -3.234278 -0.617643 -1.749544 0
M  V30 20 C -2.505538 -1.209710 -2.887363 0
M  V30 21 C -1.110591 -0.737591 -3.076035 0
M  V30 22 C -0.428028 -1.411262 -4.260728 0
M  V30 23 C -0.366518 -2.912474 -4.086163 0
M  V30 24 C 0.388818 -3.338880 -2.869172 0
M  V30 25 H 1.149659 -5.082658 6.626773 0
M  V30 26 H 0.083533 -5.119088 5.166979 0
M  V30 27 H 1.845580 -5.084685 4.904841 0
M  V30 28 H 2.015115 -2.816057 5.591211 0
M  V30 29 H 0.289453 -2.829192 6.276067 0
M  V30 30 H 0.968849 -3.302512 3.313565 0
M  V30 31 H -0.609684 -3.206079 4.084461 0
M  V30 32 H -0.360248 -0.924568 4.747803 0
M  V30 33 H -0.204668 -1.172825 3.003878 0
M  V30 34 H 2.050564 -0.847907 5.064746 0
M  V30 35 H 1.417137 0.498902 4.129407 0
M  V30 36 H 2.959400 -2.018934 3.279028 0
M  V30 37 H 3.524936 -0.348010 3.180334 0
M  V30 38 H 2.907465 -1.235245 0.902521 0
M  V30 39 H 1.258360 -1.488216 1.525566 0
M  V30 40 H 1.829186 2.520330 -0.854345 0
M  V30 41 H 1.110041 1.317504 -1.898720 0
M  V30 42 H -0.379050 3.057193 -1.544765 0
M  V30 43 H 0.593830 3.892068 0.620076 0
M  V30 44 H -1.153820 4.100636 0.363226 0
M  V30 45 H -0.380523 3.360479 2.481348 0
M  V30 46 H -4.135248 1.030188 -0.809240 0
M  V30 47 H -4.179396 1.085817 -2.580092 0
M  V30 48 H -4.264068 -1.106925 -1.743017 0
M  V30 49 H -2.816383 -0.988899 -0.754313 0
M  V30 50 H -2.541470 -2.323297 -2.785151 0
M  V30 51 H -3.127540 -1.022923 -3.811118 0
M  V30 52 H -0.519847 -0.988743 -2.173225 0
M  V30 53 H -1.056357 0.339328 -3.300244 0
M  V30 54 H -1.069397 -1.214276 -5.144892 0
M  V30 55 H 0.591417 -1.034315 -4.330010 0
M  V30 56 H -1.368536 -3.390315 -4.097356 0
M  V30 57 H 0.167869 -3.304916 -4.981704 0
M  V30 58 H 1.003782 -2.523522 -2.417127 0
M  V30 59 H 1.102029 -4.176787 -3.077202 0
M  V30 60 H -0.324384 -3.783685 -2.119423 0
M  V30 END ATOM
M  V30 BEGIN BOND
M  V30 1 1 1 2
M  V30 2 1 2 3
M  V30 3 1 3 4
M  V30 4 1 4 5
M  V30 5 1 5 6
M  V30 6 1 6 7
M  V30 7 1 7 8
M  V30 8 2 8 9
M  V30 9 1 8 10
M  V30 10 1 10 11
M  V30 11 1 11 12
M  V30 12 1 12 13
M  V30 13 1 13 14
M  V30 14 1 12 15
M  V30 15 1 15 16
M  V30 16 2 16 17
M  V30 17 1 16 18
M  V30 18 1 18 19
M  V30 19 1 19 20
M  V30 20 1 20 21
M  V30 21 1 21 22
M  V30 22 1 22 23
M  V30 23 1 23 24
M  V30 24 1 1 25
M  V30 25 1 1 26
M  V30 26 1 1 27
M  V30 27 1 2 28
M  V30 28 1 2 29
M  V30 29 1 3 30
M  V30 30 1 3 31
M  V30 31 1 4 32
M  V30 32 1 4 33
M  V30 33 1 5 34
M  V30 34 1 5 35
M  V30 35 1 6 36
M  V30 36 1 6 37
M  V30 37 1 7 38
M  V30 38 1 7 39
M  V30 39 1 11 40
M  V30 40 1 11 41
M  V30 41 1 12 42
M  V30 42 1 13 43
M  V30 43 1 13 44
M  V30 44 1 14 45
M  V30 45 1 18 46
M  V30 46 1 18 47
M  V30 47 1 19 48
M  V30 48 1 19 49
M  V30 49 1 20 50
M  V30 50 1 20 51
M  V30 51 1 21 52
M  V30 52 1 21 53
M  V30 53 1 22 54
M  V30 54 1 22 55
M  V30 55 1 23 56
M  V30 56 1 23 57
M  V30 57 1 24 58
M  V30 58 1 24 59
M  V30 59 1 24 60
M  V30 END BOND
M  V30 END CTAB
M  END
>  <Dataset>  (148) 
ChEMBL_Kinases

>  <Ligand_Instance>  (148) 
nan

>  <PDB_ID>  (148) 
nan

>  <Standardized_SMILES>  (148) 
CCCCCCCC(=O)OCC(CO)OC(=O)CCCCCCC

>  <Name>  (148) 
MONOCTANOIN COMPONENT C

>  <Pocket>  (148) 
nan

>  <ATP_Site>  (148) 
nan

>  <Peripheral>  (148) 
nan

>  <Num_H_Atoms_ProtBoundConf>  (148) 
nan

>  <Num_Resolved_Atoms>  (148) 
nan

>  <Num_Not_Resolved_Atoms>  (148) 
nan

$$$$
CHEMBL3687537
     RDKit          3D

  0  0  0  0  0  0  0  0  0  0999 V3000
M  V30 BEGIN CTAB
M  V30 COUNTS 83 86 0 0 0
M  V30 BEGIN ATOM
M  V30 1 C -1.300274 -1.873392 -5.426157 0
M  V30 2 C 0.034494 -2.188242 -4.770234 0
M  V30 3 C -0.244635 -3.238913 -3.707942 0
M  V30 4 N 0.673660 -1.029703 -4.234866 0
M  V30 5 C 1.912841 -0.407353 -4.529254 0
M  V30 6 O 2.575187 -0.980158 -5.430068 0
M  V30 7 C 2.402789 0.776209 -3.875960 0
M  V30 8 C 3.642470 1.231142 -4.306543 0
M  V30 9 C 4.160792 2.358043 -3.717106 0
M  V30 10 C 3.442699 2.983425 -2.737133 0
M  V30 11 F 4.002299 4.084233 -2.195382 0
M  V30 12 C 2.215239 2.576263 -2.275256 0
M  V30 13 C 1.404300 3.188620 -1.244897 0
M  V30 14 C 1.662868 4.303482 -0.492617 0
M  V30 15 C 0.839840 4.828280 0.474432 0
M  V30 16 C -0.357415 4.201386 0.733874 0
M  V30 17 N -1.229021 4.722633 1.729191 0
M  V30 18 C -0.622402 3.081860 -0.018206 0
M  V30 19 C -1.876608 2.384463 0.219412 0
M  V30 20 O -2.661957 2.846551 1.113698 0
M  V30 21 N -2.209422 1.225437 -0.525725 0
M  V30 22 C -3.349064 0.382438 -0.483122 0
M  V30 23 C -4.418946 0.717841 -1.299116 0
M  V30 24 N -5.479686 -0.107863 -1.231415 0
M  V30 25 C -5.523596 -1.192760 -0.433399 0
M  V30 26 C -4.449173 -1.530806 0.386933 0
M  V30 27 C -3.351704 -0.717226 0.347674 0
M  V30 28 C -2.222656 -1.098829 1.227966 0 CFG=1
M  V30 29 C -2.296466 -0.520086 2.605926 0
M  V30 30 C -1.213562 -1.080401 3.456953 0 CFG=1
M  V30 31 N -1.746463 -1.833384 4.602435 0
M  V30 32 C -0.182746 -1.904842 2.750735 0 CFG=1
M  V30 33 O 0.559493 -2.582359 3.717513 0
M  V30 34 C 1.872069 -2.178732 3.650895 0
M  V30 35 C 2.734793 -2.874040 4.676146 0
M  V30 36 S 4.398017 -2.266564 4.483185 0
M  V30 37 C 4.930109 -2.654221 2.823167 0
M  V30 38 O 4.431538 -0.773716 4.625412 0
M  V30 39 O 5.299725 -2.862152 5.502659 0
M  V30 40 C -0.754252 -2.927853 1.816423 0 CFG=1
M  V30 41 C -0.612327 -4.318692 2.389127 0
M  V30 42 C -2.170219 -2.622658 1.400864 0
M  V30 43 N 0.224753 2.623019 -0.946383 0
M  V30 44 C 1.738922 1.444432 -2.896179 0
M  V30 45 H -2.094535 -1.975154 -4.654788 0
M  V30 46 H -1.306230 -0.870247 -5.908090 0
M  V30 47 H -1.496999 -2.694945 -6.152374 0
M  V30 48 H 0.678743 -2.631258 -5.550973 0
M  V30 49 H -0.229006 -4.223394 -4.219201 0
M  V30 50 H 0.554849 -3.199268 -2.926566 0
M  V30 51 H -1.216348 -3.015209 -3.244716 0
M  V30 52 H 0.047034 -0.638999 -3.508363 0
M  V30 53 H 4.197913 0.734319 -5.075855 0
M  V30 54 H 5.122768 2.726938 -4.037974 0
M  V30 55 H 2.590847 4.819901 -0.668688 0
M  V30 56 H 1.134706 5.716866 1.016227 0
M  V30 57 H -1.053867 4.757915 2.757877 0
M  V30 58 H -2.165388 5.127533 1.439605 0
M  V30 59 H -1.510330 0.906860 -1.245611 0
M  V30 60 H -4.355178 1.593985 -1.928182 0
M  V30 61 H -6.458207 -1.735682 -0.513365 0
M  V30 62 H -4.582858 -2.417011 0.987666 0
M  V30 63 H -1.263601 -0.811073 0.764027 0
M  V30 64 H -3.278917 -0.878183 3.033777 0
M  V30 65 H -2.365832 0.584017 2.635087 0
M  V30 66 H -0.675425 -0.218186 3.934834 0
M  V30 67 H -0.979879 -2.390796 5.040324 0
M  V30 68 H -2.199759 -1.245128 5.306504 0
M  V30 69 H 0.551837 -1.233015 2.223286 0
M  V30 70 H 1.863827 -1.070519 3.832820 0
M  V30 71 H 2.260562 -2.348151 2.625293 0
M  V30 72 H 2.669280 -3.954112 4.507041 0
M  V30 73 H 2.341255 -2.634802 5.680797 0
M  V30 74 H 5.959370 -2.292101 2.649418 0
M  V30 75 H 4.791855 -3.741000 2.616659 0
M  V30 76 H 4.281744 -2.096297 2.123776 0
M  V30 77 H -0.148213 -2.901341 0.878762 0
M  V30 78 H -0.942690 -5.042506 1.604894 0
M  V30 79 H -1.125244 -4.454139 3.348344 0
M  V30 80 H 0.493407 -4.505762 2.478680 0
M  V30 81 H -2.458011 -3.125682 0.468576 0
M  V30 82 H -2.832871 -2.863188 2.257392 0
M  V30 83 H 0.789548 1.025335 -2.625182 0
M  V30 END ATOM
M  V30 BEGIN BOND
M  V30 1 1 1 2
M  V30 2 1 2 3
M  V30 3 1 2 4
M  V30 4 1 4 5
M  V30 5 2 5 6
M  V30 6 1 5 7
M  V30 7 2 7 8
M  V30 8 1 8 9
M  V30 9 2 9 10
M  V30 10 1 10 11
M  V30 11 1 10 12
M  V30 12 1 12 13
M  V30 13 2 13 14
M  V30 14 1 14 15
M  V30 15 2 15 16
M  V30 16 1 16 17
M  V30 17 1 16 18
M  V30 18 1 18 19
M  V30 19 2 19 20
M  V30 20 1 19 21
M  V30 21 1 21 22
M  V30 22 2 22 23
M  V30 23 1 23 24
M  V30 24 2 24 25
M  V30 25 1 25 26
M  V30 26 2 26 27
M  V30 27 1 27 28
M  V30 28 1 28 29
M  V30 29 1 29 30
M  V30 30 1 30 31
M  V30 31 1 30 32
M  V30 32 1 32 33
M  V30 33 1 33 34
M  V30 34 1 34 35
M  V30 35 1 35 36
M  V30 36 1 36 37
M  V30 37 2 36 38
M  V30 38 2 36 39
M  V30 39 1 32 40
M  V30 40 1 40 41
M  V30 41 1 40 42
M  V30 42 2 18 43
M  V30 43 2 12 44
M  V30 44 1 44 7
M  V30 45 1 43 13
M  V30 46 1 27 22
M  V30 47 1 42 28
M  V30 48 1 1 45
M  V30 49 1 1 46
M  V30 50 1 1 47
M  V30 51 1 2 48
M  V30 52 1 3 49
M  V30 53 1 3 50
M  V30 54 1 3 51
M  V30 55 1 4 52
M  V30 56 1 8 53
M  V30 57 1 9 54
M  V30 58 1 14 55
M  V30 59 1 15 56
M  V30 60 1 17 57
M  V30 61 1 17 58
M  V30 62 1 21 59
M  V30 63 1 23 60
M  V30 64 1 25 61
M  V30 65 1 26 62
M  V30 66 1 28 63 CFG=3
M  V30 67 1 29 64
M  V30 68 1 29 65
M  V30 69 1 30 66 CFG=1
M  V30 70 1 31 67
M  V30 71 1 31 68
M  V30 72 1 32 69 CFG=3
M  V30 73 1 34 70
M  V30 74 1 34 71
M  V30 75 1 35 72
M  V30 76 1 35 73
M  V30 77 1 37 74
M  V30 78 1 37 75
M  V30 79 1 37 76
M  V30 80 1 40 77 CFG=3
M  V30 81 1 41 78
M  V30 82 1 41 79
M  V30 83 1 41 80
M  V30 84 1 42 81
M  V30 85 1 42 82
M  V30 86 1 44 83
M  V30 END BOND
M  V30 END CTAB
M  END
>  <Dataset>  (149) 
ChEMBL_Kinases

>  <Ligand_Instance>  (149) 
nan

>  <PDB_ID>  (149) 
nan

>  <Standardized_SMILES>  (149) 
CC(C)NC(=O)c1ccc(F)c(-c2ccc(N)c(C(=O)Nc3cnccc3[C@H]3C[C@@H](N)[C@@H](OCCS(C)(=O)=O)[C@@H](C)C3)n2)c1

>  <Name>  (149) 
nan

>  <Pocket>  (149) 
nan

>  <ATP_Site>  (149) 
nan

>  <Peripheral>  (149) 
nan

>  <Num_H_Atoms_ProtBoundConf>  (149) 
nan

>  <Num_Resolved_Atoms>  (149) 
nan

>  <Num_Not_Resolved_Atoms>  (149) 
nan

$$$$
CHEMBL3702075
     RDKit          3D

  0  0  0  0  0  0  0  0  0  0999 V3000
M  V30 BEGIN CTAB
M  V30 COUNTS 54 59 0 0 0
M  V30 BEGIN ATOM
M  V30 1 C -2.101906 -2.008041 -1.213409 0
M  V30 2 C -1.844952 -0.912673 -0.412546 0
M  V30 3 C -2.127683 -0.896048 0.935964 0
M  V30 4 N -1.833908 0.251623 1.725799 0
M  V30 5 C -1.177612 1.343523 1.065406 0
M  V30 6 N -1.645060 2.195103 0.140948 0
M  V30 7 C -0.864999 3.171227 -0.354753 0
M  V30 8 C 0.400490 3.199069 0.164507 0
M  V30 9 C 1.480955 4.129285 -0.159560 0
M  V30 10 S 2.041445 5.481707 -1.063469 0
M  V30 11 N 3.775473 5.565342 -0.385085 0
M  V30 12 C 3.651436 4.471676 0.488529 0
M  V30 13 C 2.554955 3.693388 0.674381 0
M  V30 14 N 2.223371 2.647947 1.420001 0
M  V30 15 C 3.013696 1.933708 2.398895 0
M  V30 16 C 2.515005 2.195822 3.805094 0
M  V30 17 C 2.950621 0.994494 4.592610 0
M  V30 18 C 3.390675 -0.048873 3.620729 0
M  V30 19 C 2.997407 0.449251 2.261257 0
M  V30 20 C 0.935021 2.372799 1.096127 0
M  V30 21 N 0.077167 1.440595 1.520879 0
M  V30 22 N -2.684859 -1.998229 1.523338 0
M  V30 23 C -2.950595 -3.089382 0.771695 0
M  V30 24 C -2.672027 -3.121713 -0.587499 0
M  V30 25 N -2.994606 -4.306354 -1.318786 0
M  V30 26 C -3.270743 -5.644378 -0.763314 0
M  V30 27 C -2.339654 -6.628663 -1.442683 0
M  V30 28 N -1.357068 -5.935783 -2.258890 0
M  V30 29 C -1.922656 -5.129867 -3.291759 0
M  V30 30 C -3.111629 -4.359889 -2.763596 0
M  V30 31 H -1.884011 -2.036690 -2.271404 0
M  V30 32 H -1.404042 -0.070858 -0.931813 0
M  V30 33 H -2.084239 0.291087 2.734748 0
M  V30 34 H -1.191488 3.877186 -1.095936 0
M  V30 35 H 4.633716 4.438841 0.943451 0
M  V30 36 H 4.082979 2.250382 2.323060 0
M  V30 37 H 1.427750 2.408032 3.851514 0
M  V30 38 H 3.071505 3.088146 4.193836 0
M  V30 39 H 3.741603 1.227696 5.352954 0
M  V30 40 H 2.053450 0.586738 5.125680 0
M  V30 41 H 2.884749 -1.036796 3.795244 0
M  V30 42 H 4.484925 -0.238025 3.643893 0
M  V30 43 H 1.988594 0.091899 1.960629 0
M  V30 44 H 3.698518 0.091247 1.472018 0
M  V30 45 H -3.387469 -3.905676 1.326419 0
M  V30 46 H -3.134396 -5.683021 0.329680 0
M  V30 47 H -4.305733 -5.929821 -1.014539 0
M  V30 48 H -2.913244 -7.351570 -2.051985 0
M  V30 49 H -1.803005 -7.181597 -0.647017 0
M  V30 50 H -0.601455 -5.496387 -1.706137 0
M  V30 51 H -1.166438 -4.382862 -3.640048 0
M  V30 52 H -2.245790 -5.793773 -4.153433 0
M  V30 53 H -3.117641 -3.328853 -3.224187 0
M  V30 54 H -4.045637 -4.895447 -3.098739 0
M  V30 END ATOM
M  V30 BEGIN BOND
M  V30 1 2 1 2
M  V30 2 1 2 3
M  V30 3 1 3 4
M  V30 4 1 4 5
M  V30 5 2 5 6
M  V30 6 1 6 7
M  V30 7 2 7 8
M  V30 8 1 8 9
M  V30 9 1 9 10
M  V30 10 1 10 11
M  V30 11 2 11 12
M  V30 12 1 12 13
M  V30 13 1 13 14
M  V30 14 1 14 15
M  V30 15 1 15 16
M  V30 16 1 16 17
M  V30 17 1 17 18
M  V30 18 1 18 19
M  V30 19 1 14 20
M  V30 20 2 20 21
M  V30 21 2 3 22
M  V30 22 1 22 23
M  V30 23 2 23 24
M  V30 24 1 24 25
M  V30 25 1 25 26
M  V30 26 1 26 27
M  V30 27 1 27 28
M  V30 28 1 28 29
M  V30 29 1 29 30
M  V30 30 1 24 1
M  V30 31 1 30 25
M  V30 32 1 21 5
M  V30 33 1 20 8
M  V30 34 2 13 9
M  V30 35 1 19 15
M  V30 36 1 1 31
M  V30 37 1 2 32
M  V30 38 1 4 33
M  V30 39 1 7 34
M  V30 40 1 12 35
M  V30 41 1 15 36
M  V30 42 1 16 37
M  V30 43 1 16 38
M  V30 44 1 17 39
M  V30 45 1 17 40
M  V30 46 1 18 41
M  V30 47 1 18 42
M  V30 48 1 19 43
M  V30 49 1 19 44
M  V30 50 1 23 45
M  V30 51 1 26 46
M  V30 52 1 26 47
M  V30 53 1 27 48
M  V30 54 1 27 49
M  V30 55 1 28 50
M  V30 56 1 29 51
M  V30 57 1 29 52
M  V30 58 1 30 53
M  V30 59 1 30 54
M  V30 END BOND
M  V30 END CTAB
M  END
>  <Dataset>  (150) 
ChEMBL_Kinases

>  <Ligand_Instance>  (150) 
nan

>  <PDB_ID>  (150) 
nan

>  <Standardized_SMILES>  (150) 
c1cc(Nc2ncc3c4sncc4n(C4CCCC4)c3n2)ncc1N1CCNCC1

>  <Name>  (150) 
nan

>  <Pocket>  (150) 
nan

>  <ATP_Site>  (150) 
nan

>  <Peripheral>  (150) 
nan

>  <Num_H_Atoms_ProtBoundConf>  (150) 
nan

>  <Num_Resolved_Atoms>  (150) 
nan

>  <Num_Not_Resolved_Atoms>  (150) 
nan

$$$$
CHEMBL217804
     RDKit          3D

  0  0  0  0  0  0  0  0  0  0999 V3000
M  V30 BEGIN CTAB
M  V30 COUNTS 74 77 0 0 0
M  V30 BEGIN ATOM
M  V30 1 C 2.366642 -3.242547 2.487842 0
M  V30 2 C 1.092581 -3.606832 1.719194 0
M  V30 3 C 1.327968 -4.656802 0.710061 0
M  V30 4 N 2.355754 -4.283697 -0.315976 0
M  V30 5 C 2.407667 -5.565140 -1.050295 0
M  V30 6 C 3.491545 -5.570304 -2.046994 0
M  V30 7 O 3.485551 -6.851712 -2.700210 0
M  V30 8 C 1.758943 -3.224058 -1.073701 0
M  V30 9 C 2.623974 -2.322967 -1.852341 0
M  V30 10 C 3.621679 -1.571637 -0.990924 0
M  V30 11 O 3.131415 -0.780812 -0.011455 0
M  V30 12 C 2.334181 0.312873 0.063400 0
M  V30 13 C 1.712776 1.078778 -0.896416 0
M  V30 14 C 0.925427 2.163467 -0.585535 0
M  V30 15 N 0.364180 2.835237 -1.613093 0
M  V30 16 C -0.433125 3.915157 -1.378638 0
M  V30 17 N -0.625875 4.267467 -0.084971 0
M  V30 18 C -0.088465 3.629523 0.954215 0
M  V30 19 N -0.325315 3.899036 2.365819 0
M  V30 20 C -1.771717 4.039909 2.347625 0
M  V30 21 C -2.467978 2.823774 2.334434 0
M  V30 22 C -3.851880 3.035239 2.279298 0
M  V30 23 C -4.925016 1.971609 2.207620 0
M  V30 24 C -4.609937 1.070349 1.051104 0
M  V30 25 O -3.639916 0.398475 1.507333 0
M  V30 26 N -5.086867 0.847982 -0.238911 0
M  V30 27 C -4.601075 -0.084841 -1.157872 0
M  V30 28 C -3.661279 -1.071879 -1.006409 0
M  V30 29 C -3.225299 -1.930217 -1.994948 0
M  V30 30 C -3.784155 -1.776357 -3.232225 0
M  V30 31 C -4.741555 -0.802389 -3.474097 0
M  V30 32 F -5.222949 -0.724856 -4.721830 0
M  V30 33 C -5.124308 0.010692 -2.443854 0
M  V30 34 N -3.930191 4.380959 2.265797 0
M  V30 35 N -2.754301 4.954729 2.304112 0
M  V30 36 C 0.721245 2.538066 0.722128 0
M  V30 37 C 1.333671 1.790273 1.695189 0
M  V30 38 C 2.146640 0.673439 1.412600 0
M  V30 39 O 2.694237 0.039746 2.474783 0
M  V30 40 C 2.547774 0.380161 3.807417 0
M  V30 41 H 2.771798 -4.151421 2.965341 0
M  V30 42 H 3.095716 -2.738699 1.850632 0
M  V30 43 H 2.103261 -2.522435 3.288923 0
M  V30 44 H 0.494753 -2.739818 1.443789 0
M  V30 45 H 0.461735 -4.115609 2.527096 0
M  V30 46 H 0.391833 -4.891271 0.189509 0
M  V30 47 H 1.758653 -5.548818 1.202703 0
M  V30 48 H 1.401435 -5.795014 -1.468318 0
M  V30 49 H 2.591242 -6.397572 -0.327082 0
M  V30 50 H 3.447218 -4.862240 -2.867215 0
M  V30 51 H 4.462551 -5.504971 -1.487326 0
M  V30 52 H 2.533503 -7.071650 -2.743515 0
M  V30 53 H 0.988672 -3.698187 -1.770257 0
M  V30 54 H 1.148654 -2.604095 -0.395237 0
M  V30 55 H 1.928155 -1.531590 -2.293176 0
M  V30 56 H 3.167276 -2.686502 -2.719610 0
M  V30 57 H 4.215409 -2.401260 -0.483497 0
M  V30 58 H 4.364672 -1.086938 -1.682451 0
M  V30 59 H 1.886763 0.773974 -1.898290 0
M  V30 60 H -0.914073 4.494933 -2.131376 0
M  V30 61 H 0.366733 3.963132 3.125104 0
M  V30 62 H -2.079194 1.810119 2.362930 0
M  V30 63 H -5.102823 1.466529 3.148223 0
M  V30 64 H -5.870137 2.503729 1.899216 0
M  V30 65 H -5.865341 1.500978 -0.404465 0
M  V30 66 H -3.226658 -1.191099 -0.029839 0
M  V30 67 H -2.482562 -2.674609 -1.773973 0
M  V30 68 H -3.456038 -2.437706 -4.020388 0
M  V30 69 H -5.874257 0.745104 -2.717433 0
M  V30 70 H -4.827757 4.898290 2.231854 0
M  V30 71 H 1.147683 2.122384 2.723967 0
M  V30 72 H 1.524375 0.397964 4.197379 0
M  V30 73 H 3.168298 -0.277392 4.488362 0
M  V30 74 H 2.942019 1.446659 3.920612 0
M  V30 END ATOM
M  V30 BEGIN BOND
M  V30 1 1 1 2
M  V30 2 1 2 3
M  V30 3 1 3 4
M  V30 4 1 4 5
M  V30 5 1 5 6
M  V30 6 1 6 7
M  V30 7 1 4 8
M  V30 8 1 8 9
M  V30 9 1 9 10
M  V30 10 1 10 11
M  V30 11 1 11 12
M  V30 12 2 12 13
M  V30 13 1 13 14
M  V30 14 2 14 15
M  V30 15 1 15 16
M  V30 16 2 16 17
M  V30 17 1 17 18
M  V30 18 1 18 19
M  V30 19 1 19 20
M  V30 20 1 20 21
M  V30 21 2 21 22
M  V30 22 1 22 23
M  V30 23 1 23 24
M  V30 24 2 24 25
M  V30 25 1 24 26
M  V30 26 1 26 27
M  V30 27 2 27 28
M  V30 28 1 28 29
M  V30 29 2 29 30
M  V30 30 1 30 31
M  V30 31 1 31 32
M  V30 32 2 31 33
M  V30 33 1 22 34
M  V30 34 1 34 35
M  V30 35 2 18 36
M  V30 36 1 36 37
M  V30 37 2 37 38
M  V30 38 1 38 39
M  V30 39 1 39 40
M  V30 40 1 38 12
M  V30 41 1 36 14
M  V30 42 2 35 20
M  V30 43 1 33 27
M  V30 44 1 1 41
M  V30 45 1 1 42
M  V30 46 1 1 43
M  V30 47 1 2 44
M  V30 48 1 2 45
M  V30 49 1 3 46
M  V30 50 1 3 47
M  V30 51 1 5 48
M  V30 52 1 5 49
M  V30 53 1 6 50
M  V30 54 1 6 51
M  V30 55 1 7 52
M  V30 56 1 8 53
M  V30 57 1 8 54
M  V30 58 1 9 55
M  V30 59 1 9 56
M  V30 60 1 10 57
M  V30 61 1 10 58
M  V30 62 1 13 59
M  V30 63 1 16 60
M  V30 64 1 19 61
M  V30 65 1 21 62
M  V30 66 1 23 63
M  V30 67 1 23 64
M  V30 68 1 26 65
M  V30 69 1 28 66
M  V30 70 1 29 67
M  V30 71 1 30 68
M  V30 72 1 33 69
M  V30 73 1 34 70
M  V30 74 1 37 71
M  V30 75 1 40 72
M  V30 76 1 40 73
M  V30 77 1 40 74
M  V30 END BOND
M  V30 END CTAB
M  END
>  <Dataset>  (151) 
ChEMBL_Kinases

>  <Ligand_Instance>  (151) 
nan

>  <PDB_ID>  (151) 
nan

>  <Standardized_SMILES>  (151) 
CCCN(CCO)CCCOc1cc2ncnc(Nc3cc(CC(=O)Nc4cccc(F)c4)[nH]n3)c2cc1OC

>  <Name>  (151) 
nan

>  <Pocket>  (151) 
nan

>  <ATP_Site>  (151) 
nan

>  <Peripheral>  (151) 
nan

>  <Num_H_Atoms_ProtBoundConf>  (151) 
nan

>  <Num_Resolved_Atoms>  (151) 
nan

>  <Num_Not_Resolved_Atoms>  (151) 
nan

$$$$
CHEMBL3687536
     RDKit          3D

  0  0  0  0  0  0  0  0  0  0999 V3000
M  V30 BEGIN CTAB
M  V30 COUNTS 73 77 0 0 0
M  V30 BEGIN ATOM
M  V30 1 C 1.954185 -5.338679 -4.280380 0
M  V30 2 O 1.744110 -4.111382 -4.862852 0
M  V30 3 C 1.968856 -3.053513 -4.019787 0 CFG=1
M  V30 4 C 3.016818 -2.146914 -4.655002 0 CFG=2
M  V30 5 N 4.152075 -2.922199 -5.065419 0
M  V30 6 C 3.384470 -1.061836 -3.662024 0
M  V30 7 C 2.108658 -0.268180 -3.370078 0 CFG=2
M  V30 8 C 2.414384 0.989826 -2.705934 0
M  V30 9 C 2.729591 2.085839 -3.486192 0
M  V30 10 C 3.086972 3.335935 -3.058262 0
M  V30 11 N 3.148795 3.557541 -1.707179 0
M  V30 12 C 2.841461 2.495190 -0.895137 0
M  V30 13 C 2.482846 1.243875 -1.364648 0
M  V30 14 N 2.205610 0.279007 -0.397688 0
M  V30 15 C 2.852074 -0.804382 0.297791 0
M  V30 16 O 4.029260 -1.131361 0.079999 0
M  V30 17 C 1.955587 -1.457478 1.276644 0
M  V30 18 C 2.515245 -2.589685 1.879659 0
M  V30 19 C 1.680729 -3.196249 2.801898 0
M  V30 20 C 0.408415 -2.747824 3.119564 0
M  V30 21 F -0.280140 -3.458466 4.048694 0
M  V30 22 C -0.074521 -1.607608 2.471951 0
M  V30 23 C -1.379429 -1.160354 2.899294 0
M  V30 24 C -2.667271 -1.365455 2.477430 0
M  V30 25 F -2.735821 -2.157292 1.414860 0
M  V30 26 C -3.709137 -0.774378 3.146782 0
M  V30 27 C -3.574109 0.037444 4.246225 0
M  V30 28 C -4.613634 0.716832 5.041925 0
M  V30 29 F -4.580387 0.062959 6.289567 0
M  V30 30 C -5.995266 0.506230 4.502345 0
M  V30 31 C -7.009726 1.452680 5.082087 0
M  V30 32 O -6.486583 2.195150 6.141907 0
M  V30 33 C -5.505058 3.016733 5.556014 0
M  V30 34 C -4.301495 2.166124 5.322082 0
M  V30 35 C -2.259348 0.260884 4.695176 0
M  V30 36 C -1.170189 -0.334044 4.026498 0
M  V30 37 F 0.046633 -0.010818 4.594666 0
M  V30 38 N 0.757728 -1.066654 1.600431 0
M  V30 39 C 1.067994 -1.149076 -2.791881 0
M  V30 40 C 0.713489 -2.182282 -3.885363 0 CFG=2
M  V30 41 C -0.414851 -3.015544 -3.287967 0
M  V30 42 H 2.970171 -5.508282 -3.911078 0
M  V30 43 H 1.764193 -6.113921 -5.076480 0
M  V30 44 H 1.258299 -5.522376 -3.412281 0
M  V30 45 H 2.274901 -3.369365 -3.002942 0
M  V30 46 H 2.512724 -1.719198 -5.554328 0
M  V30 47 H 4.876246 -2.333858 -5.556578 0
M  V30 48 H 4.610653 -3.420729 -4.274283 0
M  V30 49 H 3.774112 -1.541565 -2.749096 0
M  V30 50 H 4.111911 -0.381235 -4.121179 0
M  V30 51 H 1.736513 -0.012341 -4.411442 0
M  V30 52 H 2.704368 1.993394 -4.575409 0
M  V30 53 H 3.320758 4.148937 -3.719800 0
M  V30 54 H 2.904731 2.709914 0.162493 0
M  V30 55 H 1.199501 0.536024 -0.226436 0
M  V30 56 H 3.500496 -2.939600 1.637300 0
M  V30 57 H 2.068605 -4.081473 3.297124 0
M  V30 58 H -4.705745 -0.944948 2.806248 0
M  V30 59 H -6.363538 -0.521666 4.688779 0
M  V30 60 H -5.978630 0.660429 3.404634 0
M  V30 61 H -7.369049 2.181786 4.327385 0
M  V30 62 H -7.906193 0.925951 5.465800 0
M  V30 63 H -5.864251 3.393262 4.558141 0
M  V30 64 H -5.221201 3.874890 6.193783 0
M  V30 65 H -3.614135 2.307108 6.195925 0
M  V30 66 H -3.741314 2.646708 4.465140 0
M  V30 67 H -2.083290 0.903669 5.573632 0
M  V30 68 H 1.371413 -1.790701 -1.945039 0
M  V30 69 H 0.107282 -0.607784 -2.637816 0
M  V30 70 H 0.467535 -1.722140 -4.837566 0
M  V30 71 H -0.042620 -3.306057 -2.269427 0
M  V30 72 H -1.260720 -2.349769 -3.123048 0
M  V30 73 H -0.652011 -3.891284 -3.926726 0
M  V30 END ATOM
M  V30 BEGIN BOND
M  V30 1 1 1 2
M  V30 2 1 2 3
M  V30 3 1 3 4
M  V30 4 1 4 5
M  V30 5 1 4 6
M  V30 6 1 6 7
M  V30 7 1 7 8
M  V30 8 2 8 9
M  V30 9 1 9 10
M  V30 10 2 10 11
M  V30 11 1 11 12
M  V30 12 2 12 13
M  V30 13 1 13 14
M  V30 14 1 14 15
M  V30 15 2 15 16
M  V30 16 1 15 17
M  V30 17 2 17 18
M  V30 18 1 18 19
M  V30 19 2 19 20
M  V30 20 1 20 21
M  V30 21 1 20 22
M  V30 22 1 22 23
M  V30 23 2 23 24
M  V30 24 1 24 25
M  V30 25 1 24 26
M  V30 26 2 26 27
M  V30 27 1 27 28
M  V30 28 1 28 29
M  V30 29 1 28 30
M  V30 30 1 30 31
M  V30 31 1 31 32
M  V30 32 1 32 33
M  V30 33 1 33 34
M  V30 34 1 27 35
M  V30 35 2 35 36
M  V30 36 1 36 37
M  V30 37 2 22 38
M  V30 38 1 7 39
M  V30 39 1 39 40
M  V30 40 1 40 41
M  V30 41 1 40 3
M  V30 42 1 13 8
M  V30 43 1 38 17
M  V30 44 1 36 23
M  V30 45 1 34 28
M  V30 46 1 1 42
M  V30 47 1 1 43
M  V30 48 1 1 44
M  V30 49 1 3 45 CFG=1
M  V30 50 1 4 46 CFG=3
M  V30 51 1 5 47
M  V30 52 1 5 48
M  V30 53 1 6 49
M  V30 54 1 6 50
M  V30 55 1 7 51 CFG=3
M  V30 56 1 9 52
M  V30 57 1 10 53
M  V30 58 1 12 54
M  V30 59 1 14 55
M  V30 60 1 18 56
M  V30 61 1 19 57
M  V30 62 1 26 58
M  V30 63 1 30 59
M  V30 64 1 30 60
M  V30 65 1 31 61
M  V30 66 1 31 62
M  V30 67 1 33 63
M  V30 68 1 33 64
M  V30 69 1 34 65
M  V30 70 1 34 66
M  V30 71 1 35 67
M  V30 72 1 39 68
M  V30 73 1 39 69
M  V30 74 1 40 70 CFG=3
M  V30 75 1 41 71
M  V30 76 1 41 72
M  V30 77 1 41 73
M  V30 END BOND
M  V30 END CTAB
M  END
>  <Dataset>  (152) 
ChEMBL_Kinases

>  <Ligand_Instance>  (152) 
nan

>  <PDB_ID>  (152) 
nan

>  <Standardized_SMILES>  (152) 
CO[C@H]1[C@H](N)C[C@H](c2ccncc2NC(=O)c2ccc(F)c(-c3c(F)cc(C4(F)CCOCC4)cc3F)n2)C[C@@H]1C

>  <Name>  (152) 
nan

>  <Pocket>  (152) 
nan

>  <ATP_Site>  (152) 
nan

>  <Peripheral>  (152) 
nan

>  <Num_H_Atoms_ProtBoundConf>  (152) 
nan

>  <Num_Resolved_Atoms>  (152) 
nan

>  <Num_Not_Resolved_Atoms>  (152) 
nan

$$$$
CHEMBL4576003
     RDKit          3D

  0  0  0  0  0  0  0  0  0  0999 V3000
M  V30 BEGIN CTAB
M  V30 COUNTS 39 42 0 0 0
M  V30 BEGIN ATOM
M  V30 1 C -3.418522 -3.882648 3.763773 0
M  V30 2 C -2.325016 -2.911354 3.407054 0
M  V30 3 N -0.994652 -3.020321 3.665879 0
M  V30 4 C -0.361180 -1.932796 3.177533 0
M  V30 5 C 1.034409 -1.701333 3.263341 0
M  V30 6 C 2.095874 -2.552227 2.677764 0
M  V30 7 C 3.380641 -2.129218 2.889768 0
M  V30 8 C 3.574715 -0.941018 3.634330 0
M  V30 9 S 1.850622 -0.401188 4.051709 0
M  V30 10 C -1.327269 -1.108116 2.589394 0
M  V30 11 C -0.996274 0.165352 1.955838 0
M  V30 12 C -1.461463 1.420071 2.339748 0
M  V30 13 C -1.042098 2.534091 1.620427 0
M  V30 14 N -0.205214 2.433578 0.571220 0
M  V30 15 C 0.258146 1.227483 0.181555 0
M  V30 16 N 1.140649 1.203393 -0.938288 0
M  V30 17 C 0.834249 1.075706 -2.321839 0
M  V30 18 O -0.380094 0.962570 -2.686497 0
M  V30 19 C 1.893108 1.071968 -3.337671 0
M  V30 20 C 1.662565 0.147145 -4.520216 0
M  V30 21 C 1.660121 1.653092 -4.683006 0
M  V30 22 C -0.137539 0.108874 0.871483 0
M  V30 23 N -2.504838 -1.747962 2.755521 0
M  V30 24 H -3.100310 -4.570110 4.554485 0
M  V30 25 H -3.651107 -4.432462 2.808290 0
M  V30 26 H -4.329960 -3.293740 3.992416 0
M  V30 27 H 1.775888 -3.427954 2.136724 0
M  V30 28 H 4.192177 -2.711556 2.485290 0
M  V30 29 H 4.599325 -0.563672 3.828772 0
M  V30 30 H -2.127309 1.430369 3.186068 0
M  V30 31 H -1.430611 3.495783 1.955370 0
M  V30 32 H 2.118147 1.299234 -0.582412 0
M  V30 33 H 2.940543 1.175657 -2.941987 0
M  V30 34 H 0.682839 -0.391192 -4.557613 0
M  V30 35 H 2.545955 -0.406830 -4.924715 0
M  V30 36 H 0.722853 2.203079 -4.825392 0
M  V30 37 H 2.550845 2.066569 -5.232869 0
M  V30 38 H 0.259933 -0.828621 0.521117 0
M  V30 39 H -3.393185 -1.360498 2.413748 0
M  V30 END ATOM
M  V30 BEGIN BOND
M  V30 1 1 1 2
M  V30 2 2 2 3
M  V30 3 1 3 4
M  V30 4 1 4 5
M  V30 5 2 5 6
M  V30 6 1 6 7
M  V30 7 2 7 8
M  V30 8 1 8 9
M  V30 9 2 4 10
M  V30 10 1 10 11
M  V30 11 2 11 12
M  V30 12 1 12 13
M  V30 13 2 13 14
M  V30 14 1 14 15
M  V30 15 1 15 16
M  V30 16 1 16 17
M  V30 17 2 17 18
M  V30 18 1 17 19
M  V30 19 1 19 20
M  V30 20 1 20 21
M  V30 21 2 15 22
M  V30 22 1 10 23
M  V30 23 1 23 2
M  V30 24 1 9 5
M  V30 25 1 22 11
M  V30 26 1 21 19
M  V30 27 1 1 24
M  V30 28 1 1 25
M  V30 29 1 1 26
M  V30 30 1 6 27
M  V30 31 1 7 28
M  V30 32 1 8 29
M  V30 33 1 12 30
M  V30 34 1 13 31
M  V30 35 1 16 32
M  V30 36 1 19 33
M  V30 37 1 20 34
M  V30 38 1 20 35
M  V30 39 1 21 36
M  V30 40 1 21 37
M  V30 41 1 22 38
M  V30 42 1 23 39
M  V30 END BOND
M  V30 END CTAB
M  END
>  <Dataset>  (153) 
ChEMBL_Kinases

>  <Ligand_Instance>  (153) 
nan

>  <PDB_ID>  (153) 
nan

>  <Standardized_SMILES>  (153) 
Cc1nc(-c2cccs2)c(-c2ccnc(NC(=O)C3CC3)c2)[nH]1

>  <Name>  (153) 
nan

>  <Pocket>  (153) 
nan

>  <ATP_Site>  (153) 
nan

>  <Peripheral>  (153) 
nan

>  <Num_H_Atoms_ProtBoundConf>  (153) 
nan

>  <Num_Resolved_Atoms>  (153) 
nan

>  <Num_Not_Resolved_Atoms>  (153) 
nan

$$$$
CHEMBL3687535
     RDKit          3D

  0  0  0  0  0  0  0  0  0  0999 V3000
M  V30 BEGIN CTAB
M  V30 COUNTS 74 77 0 0 0
M  V30 BEGIN ATOM
M  V30 1 C 2.471496 -0.860435 5.298795 0
M  V30 2 O 3.068895 0.279298 4.799107 0
M  V30 3 C 2.506514 0.757223 3.631639 0 CFG=1
M  V30 4 C 1.931310 2.129870 3.765024 0 CFG=2
M  V30 5 N 0.855665 2.101116 4.734370 0
M  V30 6 C 1.385154 2.555232 2.418318 0
M  V30 7 C 2.587080 2.600119 1.477718 0 CFG=2
M  V30 8 C 2.421591 3.471463 0.331934 0
M  V30 9 C 2.789370 4.820433 0.424723 0
M  V30 10 C 2.682542 5.764336 -0.573335 0
M  V30 11 N 2.175621 5.352058 -1.753448 0
M  V30 12 C 1.788818 4.070861 -1.951812 0
M  V30 13 C 1.922399 3.175653 -0.911264 0
M  V30 14 N 1.484435 1.865003 -1.219359 0
M  V30 15 C 2.058517 0.676101 -1.798443 0
M  V30 16 O 3.253424 0.620733 -2.183427 0
M  V30 17 C 1.185695 -0.482187 -1.924230 0
M  V30 18 N -0.099137 -0.468107 -1.533465 0
M  V30 19 C -0.916387 -1.549226 -1.655242 0
M  V30 20 C -2.307905 -1.503988 -1.222388 0
M  V30 21 C -3.139456 -2.583884 -1.357906 0
M  V30 22 C -4.445449 -2.476919 -0.928092 0
M  V30 23 C -5.426010 -3.553851 -1.021660 0
M  V30 24 O -6.618449 -3.468734 -0.630873 0
M  V30 25 N -5.090549 -4.813332 -1.578952 0
M  V30 26 C -5.997774 -5.958732 -1.721080 0
M  V30 27 C -6.101222 -6.249228 -3.203455 0
M  V30 28 C -5.471304 -7.168830 -1.019788 0
M  V30 29 C -4.911083 -1.298262 -0.368174 0
M  V30 30 C -4.076709 -0.204555 -0.228579 0
M  V30 31 C -2.774676 -0.330103 -0.663946 0
M  V30 32 F -1.999516 0.790204 -0.498183 0
M  V30 33 C -0.321335 -2.650613 -2.207900 0
M  V30 34 C 0.980964 -2.725296 -2.624450 0
M  V30 35 C 1.787876 -1.589302 -2.480882 0
M  V30 36 N 3.146051 -1.647344 -2.907301 0
M  V30 37 C 2.974226 1.185277 1.220981 0
M  V30 38 C 3.553785 0.658229 2.543830 0 CFG=2
M  V30 39 C 3.863863 -0.807515 2.332092 0
M  V30 40 H 2.519855 -1.696996 4.584031 0
M  V30 41 H 3.093139 -1.153470 6.195330 0
M  V30 42 H 1.452230 -0.657944 5.635152 0
M  V30 43 H 1.667903 0.085134 3.352243 0
M  V30 44 H 2.697802 2.893575 4.022677 0
M  V30 45 H 1.300453 2.294269 5.662118 0
M  V30 46 H 0.307894 1.237714 4.710491 0
M  V30 47 H 0.872023 3.535180 2.458672 0
M  V30 48 H 0.679489 1.758059 2.080993 0
M  V30 49 H 3.406434 3.052044 2.117718 0
M  V30 50 H 3.205956 5.179697 1.379492 0
M  V30 51 H 2.998165 6.781930 -0.391656 0
M  V30 52 H 1.390784 3.801690 -2.919349 0
M  V30 53 H 0.480148 1.897258 -0.898916 0
M  V30 54 H -2.822072 -3.501775 -1.780521 0
M  V30 55 H -4.148426 -5.032433 -1.942217 0
M  V30 56 H -6.988915 -5.657891 -1.322803 0
M  V30 57 H -7.138570 -6.121784 -3.575293 0
M  V30 58 H -5.479711 -5.537145 -3.821978 0
M  V30 59 H -5.680894 -7.247804 -3.452661 0
M  V30 60 H -6.250182 -7.532393 -0.315035 0
M  V30 61 H -5.272836 -7.965366 -1.754659 0
M  V30 62 H -4.531114 -6.949522 -0.469877 0
M  V30 63 H -5.940423 -1.199548 -0.023705 0
M  V30 64 H -4.484814 0.693540 0.214125 0
M  V30 65 H -0.872401 -3.545923 -2.346770 0
M  V30 66 H 1.422870 -3.609235 -3.057347 0
M  V30 67 H 3.793572 -2.138703 -2.246468 0
M  V30 68 H 3.227706 -1.167652 -3.833921 0
M  V30 69 H 2.074258 0.542373 1.048889 0
M  V30 70 H 3.768374 1.039329 0.485853 0
M  V30 71 H 4.488114 1.184910 2.798883 0
M  V30 72 H 2.938786 -1.405900 2.214108 0
M  V30 73 H 4.463382 -0.913791 1.380812 0
M  V30 74 H 4.418905 -1.239401 3.192156 0
M  V30 END ATOM
M  V30 BEGIN BOND
M  V30 1 1 1 2
M  V30 2 1 2 3
M  V30 3 1 3 4
M  V30 4 1 4 5
M  V30 5 1 4 6
M  V30 6 1 6 7
M  V30 7 1 7 8
M  V30 8 2 8 9
M  V30 9 1 9 10
M  V30 10 2 10 11
M  V30 11 1 11 12
M  V30 12 2 12 13
M  V30 13 1 13 14
M  V30 14 1 14 15
M  V30 15 2 15 16
M  V30 16 1 15 17
M  V30 17 2 17 18
M  V30 18 1 18 19
M  V30 19 1 19 20
M  V30 20 2 20 21
M  V30 21 1 21 22
M  V30 22 1 22 23
M  V30 23 2 23 24
M  V30 24 1 23 25
M  V30 25 1 25 26
M  V30 26 1 26 27
M  V30 27 1 26 28
M  V30 28 2 22 29
M  V30 29 1 29 30
M  V30 30 2 30 31
M  V30 31 1 31 32
M  V30 32 2 19 33
M  V30 33 1 33 34
M  V30 34 2 34 35
M  V30 35 1 35 36
M  V30 36 1 7 37
M  V30 37 1 37 38
M  V30 38 1 38 39
M  V30 39 1 38 3
M  V30 40 1 13 8
M  V30 41 1 35 17
M  V30 42 1 31 20
M  V30 43 1 1 40
M  V30 44 1 1 41
M  V30 45 1 1 42
M  V30 46 1 3 43 CFG=3
M  V30 47 1 4 44 CFG=1
M  V30 48 1 5 45
M  V30 49 1 5 46
M  V30 50 1 6 47
M  V30 51 1 6 48
M  V30 52 1 7 49 CFG=1
M  V30 53 1 9 50
M  V30 54 1 10 51
M  V30 55 1 12 52
M  V30 56 1 14 53
M  V30 57 1 21 54
M  V30 58 1 25 55
M  V30 59 1 26 56
M  V30 60 1 27 57
M  V30 61 1 27 58
M  V30 62 1 27 59
M  V30 63 1 28 60
M  V30 64 1 28 61
M  V30 65 1 28 62
M  V30 66 1 29 63
M  V30 67 1 30 64
M  V30 68 1 33 65
M  V30 69 1 34 66
M  V30 70 1 36 67
M  V30 71 1 36 68
M  V30 72 1 37 69
M  V30 73 1 37 70
M  V30 74 1 38 71 CFG=1
M  V30 75 1 39 72
M  V30 76 1 39 73
M  V30 77 1 39 74
M  V30 END BOND
M  V30 END CTAB
M  END
>  <Dataset>  (154) 
ChEMBL_Kinases

>  <Ligand_Instance>  (154) 
nan

>  <PDB_ID>  (154) 
nan

>  <Standardized_SMILES>  (154) 
CO[C@H]1[C@H](N)C[C@H](c2ccncc2NC(=O)c2nc(-c3cc(C(=O)NC(C)C)ccc3F)ccc2N)C[C@@H]1C

>  <Name>  (154) 
nan

>  <Pocket>  (154) 
nan

>  <ATP_Site>  (154) 
nan

>  <Peripheral>  (154) 
nan

>  <Num_H_Atoms_ProtBoundConf>  (154) 
nan

>  <Num_Resolved_Atoms>  (154) 
nan

>  <Num_Not_Resolved_Atoms>  (154) 
nan

$$$$
CHEMBL3687534
     RDKit          3D

  0  0  0  0  0  0  0  0  0  0999 V3000
M  V30 BEGIN CTAB
M  V30 COUNTS 78 81 0 0 0
M  V30 BEGIN ATOM
M  V30 1 C 0.984900 -3.593020 5.483914 0
M  V30 2 C 1.320599 -2.138449 5.791829 0
M  V30 3 O 1.311158 -1.342782 4.651376 0
M  V30 4 C 1.635100 -0.036713 5.047822 0
M  V30 5 C 1.643767 0.838854 3.849675 0
M  V30 6 C 0.532603 1.514412 3.415220 0
M  V30 7 C 0.543189 2.323755 2.306703 0
M  V30 8 F -0.478525 3.034272 1.784363 0
M  V30 9 C 1.692001 2.483942 1.584955 0
M  V30 10 C 2.029081 3.252093 0.387121 0
M  V30 11 N 1.892398 2.692718 -0.807973 0
M  V30 12 C 2.180105 3.262231 -1.989973 0
M  V30 13 C 1.958995 2.484848 -3.195532 0
M  V30 14 O 2.310899 3.033891 -4.270535 0
M  V30 15 N 1.394258 1.197280 -3.240317 0
M  V30 16 C 1.141005 0.335642 -4.334415 0
M  V30 17 C 1.561471 0.611866 -5.615979 0
M  V30 18 N 1.349703 -0.159407 -6.716589 0
M  V30 19 C 0.657584 -1.310106 -6.531268 0
M  V30 20 C 0.216847 -1.616361 -5.238736 0
M  V30 21 C 0.432173 -0.829449 -4.112673 0
M  V30 22 C -0.113160 -1.275285 -2.826636 0 CFG=1
M  V30 23 C -1.504224 -0.713961 -2.592090 0
M  V30 24 C -2.381518 -1.654903 -1.850533 0 CFG=1
M  V30 25 N -3.214043 -2.503209 -2.679199 0
M  V30 26 C -1.614264 -2.443754 -0.807799 0 CFG=1
M  V30 27 O -2.509787 -3.115886 0.017179 0
M  V30 28 C -2.435097 -2.517524 1.292927 0
M  V30 29 C -3.350819 -3.141178 2.291332 0
M  V30 30 S -3.156565 -2.263782 3.826096 0
M  V30 31 C -3.574382 -0.544338 3.629343 0
M  V30 32 O -4.038264 -2.857269 4.876995 0
M  V30 33 O -1.703514 -2.314562 4.201106 0
M  V30 34 C -0.613302 -3.316988 -1.468414 0 CFG=1
M  V30 35 C -1.118561 -4.744087 -1.655269 0
M  V30 36 C -0.250612 -2.783896 -2.842985 0
M  V30 37 C 2.665353 4.545622 -2.022097 0
M  V30 38 C 2.827956 5.176375 -0.820412 0
M  V30 39 C 2.521557 4.558180 0.372629 0
M  V30 40 F 2.672444 5.161792 1.591019 0
M  V30 41 C 2.846261 1.812478 1.994321 0
M  V30 42 F 4.082646 1.832096 1.427321 0
M  V30 43 C 2.814930 0.991421 3.127721 0
M  V30 44 H 1.697701 -4.303025 5.904872 0
M  V30 45 H -0.016492 -3.781532 5.963885 0
M  V30 46 H 0.872244 -3.660461 4.379556 0
M  V30 47 H 0.720366 -1.729389 6.622779 0
M  V30 48 H 2.381745 -2.172169 6.179322 0
M  V30 49 H 2.682414 -0.021803 5.461455 0
M  V30 50 H 0.956709 0.374055 5.812229 0
M  V30 51 H -0.408302 1.436591 3.932410 0
M  V30 52 H 1.147855 0.906302 -2.269989 0
M  V30 53 H 2.120823 1.495902 -5.881465 0
M  V30 54 H 0.485532 -1.931173 -7.407579 0
M  V30 55 H -0.312135 -2.558581 -5.272850 0
M  V30 56 H 0.580985 -0.947284 -2.022897 0
M  V30 57 H -1.967732 -0.562762 -3.606529 0
M  V30 58 H -1.359626 0.255985 -2.049972 0
M  V30 59 H -3.121478 -1.031133 -1.260120 0
M  V30 60 H -3.314620 -2.147588 -3.655637 0
M  V30 61 H -4.108733 -2.763162 -2.254121 0
M  V30 62 H -1.084123 -1.670777 -0.204427 0
M  V30 63 H -2.703125 -1.436769 1.113210 0
M  V30 64 H -1.407403 -2.528453 1.704067 0
M  V30 65 H -4.384544 -3.216577 1.961770 0
M  V30 66 H -3.000456 -4.177592 2.484004 0
M  V30 67 H -2.775931 0.130277 4.031802 0
M  V30 68 H -3.737706 -0.257253 2.585712 0
M  V30 69 H -4.502895 -0.284722 4.177774 0
M  V30 70 H 0.275773 -3.386578 -0.809169 0
M  V30 71 H -2.009024 -4.955907 -1.044197 0
M  V30 72 H -1.330764 -4.943852 -2.739076 0
M  V30 73 H -0.355315 -5.493875 -1.367449 0
M  V30 74 H -1.087421 -3.029979 -3.526176 0
M  V30 75 H 0.642529 -3.315171 -3.180321 0
M  V30 76 H 2.895448 4.997897 -2.973067 0
M  V30 77 H 3.210348 6.196289 -0.799749 0
M  V30 78 H 3.689859 0.436941 3.500313 0
M  V30 END ATOM
M  V30 BEGIN BOND
M  V30 1 1 1 2
M  V30 2 1 2 3
M  V30 3 1 3 4
M  V30 4 1 4 5
M  V30 5 2 5 6
M  V30 6 1 6 7
M  V30 7 1 7 8
M  V30 8 2 7 9
M  V30 9 1 9 10
M  V30 10 2 10 11
M  V30 11 1 11 12
M  V30 12 1 12 13
M  V30 13 2 13 14
M  V30 14 1 13 15
M  V30 15 1 15 16
M  V30 16 2 16 17
M  V30 17 1 17 18
M  V30 18 2 18 19
M  V30 19 1 19 20
M  V30 20 2 20 21
M  V30 21 1 21 22
M  V30 22 1 22 23
M  V30 23 1 23 24
M  V30 24 1 24 25
M  V30 25 1 24 26
M  V30 26 1 26 27
M  V30 27 1 27 28
M  V30 28 1 28 29
M  V30 29 1 29 30
M  V30 30 1 30 31
M  V30 31 2 30 32
M  V30 32 2 30 33
M  V30 33 1 26 34
M  V30 34 1 34 35
M  V30 35 1 34 36
M  V30 36 2 12 37
M  V30 37 1 37 38
M  V30 38 2 38 39
M  V30 39 1 39 40
M  V30 40 1 9 41
M  V30 41 1 41 42
M  V30 42 2 41 43
M  V30 43 1 43 5
M  V30 44 1 39 10
M  V30 45 1 21 16
M  V30 46 1 36 22
M  V30 47 1 1 44
M  V30 48 1 1 45
M  V30 49 1 1 46
M  V30 50 1 2 47
M  V30 51 1 2 48
M  V30 52 1 4 49
M  V30 53 1 4 50
M  V30 54 1 6 51
M  V30 55 1 15 52
M  V30 56 1 17 53
M  V30 57 1 19 54
M  V30 58 1 20 55
M  V30 59 1 22 56 CFG=1
M  V30 60 1 23 57
M  V30 61 1 23 58
M  V30 62 1 24 59 CFG=1
M  V30 63 1 25 60
M  V30 64 1 25 61
M  V30 65 1 26 62 CFG=1
M  V30 66 1 28 63
M  V30 67 1 28 64
M  V30 68 1 29 65
M  V30 69 1 29 66
M  V30 70 1 31 67
M  V30 71 1 31 68
M  V30 72 1 31 69
M  V30 73 1 34 70 CFG=1
M  V30 74 1 35 71
M  V30 75 1 35 72
M  V30 76 1 35 73
M  V30 77 1 36 74
M  V30 78 1 36 75
M  V30 79 1 37 76
M  V30 80 1 38 77
M  V30 81 1 43 78
M  V30 END BOND
M  V30 END CTAB
M  END
>  <Dataset>  (155) 
ChEMBL_Kinases

>  <Ligand_Instance>  (155) 
nan

>  <PDB_ID>  (155) 
nan

>  <Standardized_SMILES>  (155) 
CCOCc1cc(F)c(-c2nc(C(=O)Nc3cnccc3[C@H]3C[C@@H](N)[C@@H](OCCS(C)(=O)=O)[C@@H](C)C3)ccc2F)c(F)c1

>  <Name>  (155) 
nan

>  <Pocket>  (155) 
nan

>  <ATP_Site>  (155) 
nan

>  <Peripheral>  (155) 
nan

>  <Num_H_Atoms_ProtBoundConf>  (155) 
nan

>  <Num_Resolved_Atoms>  (155) 
nan

>  <Num_Not_Resolved_Atoms>  (155) 
nan

$$$$
CHEMBL3727728
     RDKit          3D

  0  0  0  0  0  0  0  0  0  0999 V3000
M  V30 BEGIN CTAB
M  V30 COUNTS 44 46 0 0 0
M  V30 BEGIN ATOM
M  V30 1 O -0.807687 -2.113974 0.640689 0
M  V30 2 C 0.231673 -2.716654 1.035302 0
M  V30 3 C 1.702602 -2.599273 1.207796 0
M  V30 4 N 2.222969 -1.325928 0.780382 0
M  V30 5 C 1.796328 -0.126216 1.403702 0
M  V30 6 C 0.891423 -0.064609 2.435371 0
M  V30 7 C 0.517751 1.124894 2.993172 0
M  V30 8 C 1.075861 2.311523 2.495703 0
M  V30 9 C 2.007848 2.313400 1.440755 0
M  V30 10 O 2.350478 3.575136 1.195817 0
M  V30 11 C 3.173027 4.224225 0.340877 0
M  V30 12 C 3.034633 5.592734 0.644665 0
M  V30 13 C 3.755486 6.568706 -0.060503 0
M  V30 14 C 4.611738 6.174778 -1.066218 0
M  V30 15 C 4.775842 4.848272 -1.394383 0
M  V30 16 C 4.049193 3.929214 -0.676517 0
M  V30 17 C 2.309774 1.065106 0.957423 0
M  V30 18 N -0.212389 -4.014285 1.485289 0
M  V30 19 N -1.586320 -4.362490 1.419168 0
M  V30 20 C -2.174774 -4.685745 0.319812 0
M  V30 21 C -3.596559 -5.042314 0.274351 0
M  V30 22 C -4.292553 -5.019804 1.465409 0
M  V30 23 C -5.625715 -5.361872 1.374085 0
M  V30 24 N -6.197249 -5.691325 0.208756 0
M  V30 25 C -5.489010 -5.706323 -0.954457 0
M  V30 26 C -4.140246 -5.373890 -0.946215 0
M  V30 27 H 2.192777 -3.433984 0.695439 0
M  V30 28 H 1.964839 -2.673328 2.304151 0
M  V30 29 H 2.915271 -1.314265 0.007181 0
M  V30 30 H 0.492292 -1.003179 2.783658 0
M  V30 31 H -0.199660 1.053738 3.797319 0
M  V30 32 H 0.662606 3.161576 3.059855 0
M  V30 33 H 2.424405 6.115682 1.387594 0
M  V30 34 H 3.732571 7.637869 0.081010 0
M  V30 35 H 5.199643 6.866630 -1.652633 0
M  V30 36 H 5.406939 4.418908 -2.150652 0
M  V30 37 H 4.099250 2.884901 -0.845710 0
M  V30 38 H 3.022792 1.096396 0.153583 0
M  V30 39 H 0.278631 -4.843085 1.887961 0
M  V30 40 H -1.547850 -4.675440 -0.564118 0
M  V30 41 H -3.822183 -4.751835 2.404859 0
M  V30 42 H -6.260377 -5.373131 2.264144 0
M  V30 43 H -5.989009 -5.980962 -1.890516 0
M  V30 44 H -3.559177 -5.380593 -1.865770 0
M  V30 END ATOM
M  V30 BEGIN BOND
M  V30 1 2 1 2
M  V30 2 1 2 3
M  V30 3 1 3 4
M  V30 4 1 4 5
M  V30 5 2 5 6
M  V30 6 1 6 7
M  V30 7 2 7 8
M  V30 8 1 8 9
M  V30 9 1 9 10
M  V30 10 1 10 11
M  V30 11 2 11 12
M  V30 12 1 12 13
M  V30 13 2 13 14
M  V30 14 1 14 15
M  V30 15 2 15 16
M  V30 16 2 9 17
M  V30 17 1 2 18
M  V30 18 1 18 19
M  V30 19 2 19 20
M  V30 20 1 20 21
M  V30 21 2 21 22
M  V30 22 1 22 23
M  V30 23 2 23 24
M  V30 24 1 24 25
M  V30 25 2 25 26
M  V30 26 1 17 5
M  V30 27 1 26 21
M  V30 28 1 16 11
M  V30 29 1 3 27
M  V30 30 1 3 28
M  V30 31 1 4 29
M  V30 32 1 6 30
M  V30 33 1 7 31
M  V30 34 1 8 32
M  V30 35 1 12 33
M  V30 36 1 13 34
M  V30 37 1 14 35
M  V30 38 1 15 36
M  V30 39 1 16 37
M  V30 40 1 17 38
M  V30 41 1 18 39
M  V30 42 1 20 40
M  V30 43 1 22 41
M  V30 44 1 23 42
M  V30 45 1 25 43
M  V30 46 1 26 44
M  V30 END BOND
M  V30 END CTAB
M  END
>  <Dataset>  (156) 
ChEMBL_Kinases

>  <Ligand_Instance>  (156) 
nan

>  <PDB_ID>  (156) 
nan

>  <Standardized_SMILES>  (156) 
O=C(CNc1cccc(Oc2ccccc2)c1)N/N=C/c1ccncc1

>  <Name>  (156) 
nan

>  <Pocket>  (156) 
nan

>  <ATP_Site>  (156) 
nan

>  <Peripheral>  (156) 
nan

>  <Num_H_Atoms_ProtBoundConf>  (156) 
nan

>  <Num_Resolved_Atoms>  (156) 
nan

>  <Num_Not_Resolved_Atoms>  (156) 
nan

$$$$
CHEMBL4440876
     RDKit          3D

  0  0  0  0  0  0  0  0  0  0999 V3000
M  V30 BEGIN CTAB
M  V30 COUNTS 51 54 0 0 0
M  V30 BEGIN ATOM
M  V30 1 N 4.960765 0.501574 7.778231 0
M  V30 2 C 4.779675 -0.302322 6.606616 0
M  V30 3 C 5.159443 -1.628245 6.670765 0
M  V30 4 C 5.007864 -2.434692 5.583891 0
M  V30 5 C 4.470388 -1.928537 4.404243 0
M  V30 6 C 4.090628 -0.602115 4.340516 0
M  V30 7 C 3.533822 -0.129274 3.077461 0
M  V30 8 O 3.432310 -0.943276 2.131760 0
M  V30 9 N 3.098263 1.194189 2.847303 0
M  V30 10 C 2.605671 1.328681 1.504358 0
M  V30 11 C 3.557670 1.688624 0.599823 0
M  V30 12 C 3.240400 1.861229 -0.750728 0
M  V30 13 C 1.915114 1.639030 -1.066271 0
M  V30 14 C 0.948516 1.273055 -0.144978 0
M  V30 15 N -0.362328 1.081658 -0.617660 0
M  V30 16 C -1.551382 1.835010 -0.819312 0
M  V30 17 O -1.759054 3.046895 -0.589873 0
M  V30 18 C -2.732292 1.135878 -1.374151 0
M  V30 19 O -2.538032 -0.217101 -1.642487 0
M  V30 20 C -3.605852 -0.945487 -2.167772 0
M  V30 21 C -4.875302 -0.489026 -2.468355 0
M  V30 22 C -5.796430 -1.377823 -2.985271 0
M  V30 23 C -5.497124 -2.698661 -3.211546 0
M  V30 24 C -6.463635 -3.561237 -3.736778 0
M  V30 25 O -7.576098 -3.060678 -3.975562 0
M  V30 26 C -6.040976 -4.857598 -3.916983 0
M  V30 27 C -4.774506 -5.282439 -3.609625 0
M  V30 28 O -3.886067 -4.445667 -3.116072 0
M  V30 29 C -4.223099 -3.180872 -2.915782 0
M  V30 30 C -3.292673 -2.290174 -2.395382 0
M  V30 31 C 1.285217 1.112441 1.160889 0
M  V30 32 C 4.243420 0.213032 5.437873 0
M  V30 33 H 4.280096 0.708781 8.563731 0
M  V30 34 H 5.815876 1.025034 8.051066 0
M  V30 35 H 5.575434 -2.020113 7.583695 0
M  V30 36 H 5.317557 -3.460593 5.680189 0
M  V30 37 H 4.383314 -2.643000 3.580276 0
M  V30 38 H 3.171055 1.894189 3.617894 0
M  V30 39 H 4.606061 1.864800 0.847166 0
M  V30 40 H 3.991339 2.145095 -1.463903 0
M  V30 41 H 1.657347 1.771523 -2.119834 0
M  V30 42 H -0.336279 0.065440 -0.858179 0
M  V30 43 H -3.597498 1.207749 -0.652648 0
M  V30 44 H -3.050323 1.661359 -2.285489 0
M  V30 45 H -5.034757 0.557996 -2.263715 0
M  V30 46 H -6.765771 -0.956567 -3.196978 0
M  V30 47 H -6.797156 -5.530258 -4.327370 0
M  V30 48 H -4.555738 -6.317357 -3.792034 0
M  V30 49 H -2.303000 -2.717304 -2.178498 0
M  V30 50 H 0.585929 0.833932 1.904959 0
M  V30 51 H 3.949899 1.246518 5.395188 0
M  V30 END ATOM
M  V30 BEGIN BOND
M  V30 1 1 1 2
M  V30 2 2 2 3
M  V30 3 1 3 4
M  V30 4 2 4 5
M  V30 5 1 5 6
M  V30 6 1 6 7
M  V30 7 2 7 8
M  V30 8 1 7 9
M  V30 9 1 9 10
M  V30 10 2 10 11
M  V30 11 1 11 12
M  V30 12 2 12 13
M  V30 13 1 13 14
M  V30 14 1 14 15
M  V30 15 1 15 16
M  V30 16 2 16 17
M  V30 17 1 16 18
M  V30 18 1 18 19
M  V30 19 1 19 20
M  V30 20 2 20 21
M  V30 21 1 21 22
M  V30 22 2 22 23
M  V30 23 1 23 24
M  V30 24 2 24 25
M  V30 25 1 24 26
M  V30 26 2 26 27
M  V30 27 1 27 28
M  V30 28 1 28 29
M  V30 29 2 29 30
M  V30 30 2 14 31
M  V30 31 2 6 32
M  V30 32 1 32 2
M  V30 33 1 31 10
M  V30 34 1 30 20
M  V30 35 1 29 23
M  V30 36 1 1 33
M  V30 37 1 1 34
M  V30 38 1 3 35
M  V30 39 1 4 36
M  V30 40 1 5 37
M  V30 41 1 9 38
M  V30 42 1 11 39
M  V30 43 1 12 40
M  V30 44 1 13 41
M  V30 45 1 15 42
M  V30 46 1 18 43
M  V30 47 1 18 44
M  V30 48 1 21 45
M  V30 49 1 22 46
M  V30 50 1 26 47
M  V30 51 1 27 48
M  V30 52 1 30 49
M  V30 53 1 31 50
M  V30 54 1 32 51
M  V30 END BOND
M  V30 END CTAB
M  END
>  <Dataset>  (157) 
ChEMBL_Kinases

>  <Ligand_Instance>  (157) 
nan

>  <PDB_ID>  (157) 
nan

>  <Standardized_SMILES>  (157) 
Nc1cccc(C(=O)Nc2cccc(NC(=O)COc3ccc4c(=O)ccoc4c3)c2)c1

>  <Name>  (157) 
nan

>  <Pocket>  (157) 
nan

>  <ATP_Site>  (157) 
nan

>  <Peripheral>  (157) 
nan

>  <Num_H_Atoms_ProtBoundConf>  (157) 
nan

>  <Num_Resolved_Atoms>  (157) 
nan

>  <Num_Not_Resolved_Atoms>  (157) 
nan

$$$$
CHEMBL4440812
     RDKit          3D

  0  0  0  0  0  0  0  0  0  0999 V3000
M  V30 BEGIN CTAB
M  V30 COUNTS 68 74 0 0 0
M  V30 BEGIN ATOM
M  V30 1 C 4.892192 -2.451242 5.428713 0
M  V30 2 C 6.288671 -2.192106 4.912503 0
M  V30 3 N 6.260564 -1.413906 3.715977 0
M  V30 4 C 5.827743 -0.066535 3.846521 0
M  V30 5 C 5.524640 0.464504 2.460874 0
M  V30 6 N 4.347328 -0.274941 2.037158 0
M  V30 7 C 3.023563 0.198383 1.816036 0
M  V30 8 C 2.021020 -0.654143 1.398270 0
M  V30 9 C 0.760322 -0.128880 1.207303 0
M  V30 10 C 0.407671 1.191923 1.399285 0
M  V30 11 C -0.936457 1.708885 1.183600 0
M  V30 12 N -1.551612 2.531202 2.058348 0
M  V30 13 N -2.772187 2.849201 1.611851 0
M  V30 14 C -2.939829 2.221656 0.434914 0
M  V30 15 C -3.970270 2.165021 -0.483710 0
M  V30 16 C -3.899028 1.431292 -1.647941 0
M  V30 17 C -4.923140 1.320238 -2.689715 0 CFG=2
M  V30 18 C -6.259591 0.672054 -2.416865 0
M  V30 19 C -5.289874 0.051403 -3.303435 0 CFG=1
M  V30 20 C -5.360509 0.007766 -4.772139 0
M  V30 21 O -5.842180 0.831981 -5.598228 0
M  V30 22 N -4.755929 -1.210456 -5.247359 0
M  V30 23 C -4.331983 -1.966797 -4.120805 0
M  V30 24 C -3.716740 -3.210370 -3.948992 0
M  V30 25 C -3.431543 -3.728975 -2.693101 0
M  V30 26 C -3.757623 -3.009440 -1.543927 0
M  V30 27 O -3.514637 -3.442242 -0.249314 0
M  V30 28 C -2.900710 -4.680762 -0.032608 0
M  V30 29 C -4.366178 -1.779035 -1.723436 0
M  V30 30 C -4.656091 -1.250099 -2.988289 0
M  V30 31 C -2.738589 0.701989 -1.934403 0
M  V30 32 C -1.673325 0.735718 -1.025208 0
M  V30 33 C -1.803690 1.489477 0.125931 0
M  V30 34 C 1.429703 2.051679 1.823210 0
M  V30 35 C 2.698905 1.527206 2.016681 0
M  V30 36 C 4.654522 -1.672786 1.839081 0
M  V30 37 C 5.926701 -2.092502 2.521617 0
M  V30 38 H 4.189284 -2.349568 4.588959 0
M  V30 39 H 4.801884 -3.499224 5.802097 0
M  V30 40 H 4.641355 -1.821976 6.310030 0
M  V30 41 H 6.696244 -3.201503 4.616607 0
M  V30 42 H 6.949430 -1.800940 5.690764 0
M  V30 43 H 6.601389 0.531312 4.361670 0
M  V30 44 H 4.948472 -0.052949 4.517822 0
M  V30 45 H 5.338339 1.559344 2.473370 0
M  V30 46 H 6.362977 0.187438 1.799293 0
M  V30 47 H 2.187130 -1.688441 1.220399 0
M  V30 48 H -0.016121 -0.815042 0.881694 0
M  V30 49 H -3.527256 3.449230 2.006711 0
M  V30 50 H -4.892562 2.705615 -0.321529 0
M  V30 51 H -5.077244 2.302480 -3.232267 0
M  V30 52 H -7.186232 1.078700 -2.824912 0
M  V30 53 H -6.385459 0.204743 -1.403557 0
M  V30 54 H -4.615292 -1.550406 -6.218274 0
M  V30 55 H -3.461619 -3.773024 -4.843408 0
M  V30 56 H -2.961145 -4.679396 -2.547845 0
M  V30 57 H -2.058813 -4.877267 -0.719749 0
M  V30 58 H -3.610705 -5.533144 -0.054005 0
M  V30 59 H -2.450478 -4.631416 0.988518 0
M  V30 60 H -4.627723 -1.201661 -0.823400 0
M  V30 61 H -2.478473 0.078409 -2.782141 0
M  V30 62 H -0.734033 0.209633 -1.151854 0
M  V30 63 H 1.206118 3.096395 1.989044 0
M  V30 64 H 3.428311 2.257672 2.342593 0
M  V30 65 H 3.839798 -2.310341 2.226374 0
M  V30 66 H 4.724109 -1.824531 0.729009 0
M  V30 67 H 6.754868 -1.949237 1.792431 0
M  V30 68 H 5.924391 -3.208126 2.701927 0
M  V30 END ATOM
M  V30 BEGIN BOND
M  V30 1 1 1 2
M  V30 2 1 2 3
M  V30 3 1 3 4
M  V30 4 1 4 5
M  V30 5 1 5 6
M  V30 6 1 6 7
M  V30 7 2 7 8
M  V30 8 1 8 9
M  V30 9 2 9 10
M  V30 10 1 10 11
M  V30 11 2 11 12
M  V30 12 1 12 13
M  V30 13 1 13 14
M  V30 14 2 14 15
M  V30 15 1 15 16
M  V30 16 1 16 17
M  V30 17 1 17 18
M  V30 18 1 19 18 CFG=1
M  V30 19 1 19 20
M  V30 20 2 20 21
M  V30 21 1 20 22
M  V30 22 1 22 23
M  V30 23 2 23 24
M  V30 24 1 24 25
M  V30 25 2 25 26
M  V30 26 1 26 27
M  V30 27 1 27 28
M  V30 28 1 26 29
M  V30 29 2 29 30
M  V30 30 2 16 31
M  V30 31 1 31 32
M  V30 32 2 32 33
M  V30 33 1 10 34
M  V30 34 2 34 35
M  V30 35 1 6 36
M  V30 36 1 36 37
M  V30 37 1 37 3
M  V30 38 1 35 7
M  V30 39 1 33 11
M  V30 40 1 33 14
M  V30 41 1 19 17
M  V30 42 1 30 23
M  V30 43 1 30 19
M  V30 44 1 1 38
M  V30 45 1 1 39
M  V30 46 1 1 40
M  V30 47 1 2 41
M  V30 48 1 2 42
M  V30 49 1 4 43
M  V30 50 1 4 44
M  V30 51 1 5 45
M  V30 52 1 5 46
M  V30 53 1 8 47
M  V30 54 1 9 48
M  V30 55 1 13 49
M  V30 56 1 15 50
M  V30 57 1 17 51 CFG=3
M  V30 58 1 18 52
M  V30 59 1 18 53
M  V30 60 1 22 54
M  V30 61 1 24 55
M  V30 62 1 25 56
M  V30 63 1 28 57
M  V30 64 1 28 58
M  V30 65 1 28 59
M  V30 66 1 29 60
M  V30 67 1 31 61
M  V30 68 1 32 62
M  V30 69 1 34 63
M  V30 70 1 35 64
M  V30 71 1 36 65
M  V30 72 1 36 66
M  V30 73 1 37 67
M  V30 74 1 37 68
M  V30 END BOND
M  V30 END CTAB
M  END
>  <Dataset>  (158) 
ChEMBL_Kinases

>  <Ligand_Instance>  (158) 
nan

>  <PDB_ID>  (158) 
nan

>  <Standardized_SMILES>  (158) 
CCN1CCN(c2ccc(-c3n[nH]c4cc([C@@H]5C[C@@]56C(=O)Nc5ccc(OC)cc56)ccc34)cc2)CC1

>  <Name>  (158) 
nan

>  <Pocket>  (158) 
nan

>  <ATP_Site>  (158) 
nan

>  <Peripheral>  (158) 
nan

>  <Num_H_Atoms_ProtBoundConf>  (158) 
nan

>  <Num_Resolved_Atoms>  (158) 
nan

>  <Num_Not_Resolved_Atoms>  (158) 
nan

$$$$
CHEMBL4440617
     RDKit          3D

  0  0  0  0  0  0  0  0  0  0999 V3000
M  V30 BEGIN CTAB
M  V30 COUNTS 68 71 0 0 0
M  V30 BEGIN ATOM
M  V30 1 C 5.727970 -2.133744 4.450422 0
M  V30 2 C 4.990879 -0.921058 3.878961 0
M  V30 3 C 6.010402 0.193176 3.757977 0
M  V30 4 C 4.510490 -1.248120 2.511253 0
M  V30 5 C 3.208285 -1.982931 2.451222 0
M  V30 6 N 2.380615 -1.533151 1.347311 0
M  V30 7 C 2.047579 -2.323570 0.216597 0
M  V30 8 O 2.544584 -3.494750 0.233412 0
M  V30 9 C 1.211295 -1.861923 -0.885167 0
M  V30 10 C 0.595523 -0.611684 -0.871888 0
M  V30 11 C -0.162646 -0.316343 -1.993661 0
M  V30 12 C -0.337789 -1.148765 -3.077246 0
M  V30 13 N -1.149380 -0.736953 -4.170719 0
M  V30 14 C -1.829782 0.523913 -4.007276 0
M  V30 15 N -1.451886 1.778613 -4.283359 0
M  V30 16 C -2.315981 2.783648 -4.023466 0
M  V30 17 C -3.541398 2.468098 -3.487825 0
M  V30 18 N -4.346934 3.622093 -3.266698 0 CHG=1 VAL=4
M  V30 19 O -3.913865 4.767593 -3.042736 0
M  V30 20 O -5.657287 4.014485 -3.192847 0 CHG=-1 VAL=1
M  V30 21 C -3.968075 1.199842 -3.190343 0
M  V30 22 N -5.244561 0.967533 -2.645989 0
M  V30 23 C -5.806199 -0.273944 -2.286410 0
M  V30 24 C -5.186601 -1.500181 -2.307125 0
M  V30 25 C -5.677177 -2.729383 -1.979994 0
M  V30 26 C -7.007657 -2.743283 -1.562273 0
M  V30 27 C -7.721154 -1.551081 -1.507717 0
M  V30 28 O -9.058363 -1.571922 -1.086459 0
M  V30 29 C -7.113729 -0.372258 -1.863653 0
M  V30 30 N -3.026812 0.309971 -3.493023 0
M  V30 31 C 0.284530 -2.386384 -3.067310 0
M  V30 32 C 1.045469 -2.706078 -1.962308 0
M  V30 33 C 2.407414 -1.920184 3.701142 0
M  V30 34 C 2.647618 -0.650213 4.441116 0
M  V30 35 C 1.840428 -0.729274 5.746383 0
M  V30 36 C 2.187047 0.595886 3.752551 0
M  V30 37 N 4.021294 -0.552134 4.832544 0
M  V30 38 O 4.249017 -1.028651 6.074903 0 RAD=2 VAL=1
M  V30 39 H 5.060977 -2.716153 5.125263 0
M  V30 40 H 6.552941 -1.748092 5.086344 0
M  V30 41 H 6.186410 -2.762102 3.668689 0
M  V30 42 H 5.554737 1.199215 3.664858 0
M  V30 43 H 6.701036 0.260844 4.617436 0
M  V30 44 H 6.647510 0.068705 2.853453 0
M  V30 45 H 4.445871 -0.350683 1.863043 0
M  V30 46 H 5.293791 -1.876653 2.038373 0
M  V30 47 H 3.401561 -3.072566 2.225282 0
M  V30 48 H 2.016391 -0.565144 1.402194 0
M  V30 49 H 0.717738 0.053495 -0.039201 0
M  V30 50 H -0.633800 0.664529 -1.959853 0
M  V30 51 H -1.217747 -1.344338 -5.020113 0
M  V30 52 H -1.969233 3.777066 -4.260185 0
M  V30 53 H -5.852686 1.808033 -2.485983 0
M  V30 54 H -4.134372 -1.537261 -2.628971 0
M  V30 55 H -5.103701 -3.633171 -2.031926 0
M  V30 56 H -7.461538 -3.681169 -1.287806 0
M  V30 57 H -9.465507 -2.438132 -0.760334 0
M  V30 58 H -7.745340 0.521440 -1.793154 0
M  V30 59 H 0.188037 -3.080433 -3.882151 0
M  V30 60 H 1.522651 -3.683299 -1.979040 0
M  V30 61 H 2.579066 -2.760131 4.403866 0
M  V30 62 H 1.312731 -1.975914 3.457330 0
M  V30 63 H 0.754517 -0.620718 5.552402 0
M  V30 64 H 2.272051 0.014041 6.421906 0
M  V30 65 H 2.033573 -1.748454 6.150681 0
M  V30 66 H 2.102214 1.373066 4.567932 0
M  V30 67 H 2.874229 1.028723 3.026159 0
M  V30 68 H 1.155507 0.447502 3.397973 0
M  V30 END ATOM
M  V30 BEGIN BOND
M  V30 1 1 1 2
M  V30 2 1 2 3
M  V30 3 1 2 4
M  V30 4 1 4 5
M  V30 5 1 5 6
M  V30 6 1 6 7
M  V30 7 2 7 8
M  V30 8 1 7 9
M  V30 9 2 9 10
M  V30 10 1 10 11
M  V30 11 2 11 12
M  V30 12 1 12 13
M  V30 13 1 13 14
M  V30 14 2 14 15
M  V30 15 1 15 16
M  V30 16 2 16 17
M  V30 17 1 17 18
M  V30 18 2 18 19
M  V30 19 1 18 20
M  V30 20 1 17 21
M  V30 21 1 21 22
M  V30 22 1 22 23
M  V30 23 2 23 24
M  V30 24 1 24 25
M  V30 25 2 25 26
M  V30 26 1 26 27
M  V30 27 1 27 28
M  V30 28 2 27 29
M  V30 29 2 21 30
M  V30 30 1 12 31
M  V30 31 2 31 32
M  V30 32 1 5 33
M  V30 33 1 33 34
M  V30 34 1 34 35
M  V30 35 1 34 36
M  V30 36 1 34 37
M  V30 37 1 37 38
M  V30 38 1 37 2
M  V30 39 1 32 9
M  V30 40 1 30 14
M  V30 41 1 29 23
M  V30 42 1 1 39
M  V30 43 1 1 40
M  V30 44 1 1 41
M  V30 45 1 3 42
M  V30 46 1 3 43
M  V30 47 1 3 44
M  V30 48 1 4 45
M  V30 49 1 4 46
M  V30 50 1 5 47
M  V30 51 1 6 48
M  V30 52 1 10 49
M  V30 53 1 11 50
M  V30 54 1 13 51
M  V30 55 1 16 52
M  V30 56 1 22 53
M  V30 57 1 24 54
M  V30 58 1 25 55
M  V30 59 1 26 56
M  V30 60 1 28 57
M  V30 61 1 29 58
M  V30 62 1 31 59
M  V30 63 1 32 60
M  V30 64 1 33 61
M  V30 65 1 33 62
M  V30 66 1 35 63
M  V30 67 1 35 64
M  V30 68 1 35 65
M  V30 69 1 36 66
M  V30 70 1 36 67
M  V30 71 1 36 68
M  V30 END BOND
M  V30 END CTAB
M  END
>  <Dataset>  (159) 
ChEMBL_Kinases

>  <Ligand_Instance>  (159) 
nan

>  <PDB_ID>  (159) 
nan

>  <Standardized_SMILES>  (159) 
CC1(C)CC(NC(=O)c2ccc(Nc3ncc([N+](=O)[O-])c(Nc4cccc(O)c4)n3)cc2)CC(C)(C)N1[O]

>  <Name>  (159) 
nan

>  <Pocket>  (159) 
nan

>  <ATP_Site>  (159) 
nan

>  <Peripheral>  (159) 
nan

>  <Num_H_Atoms_ProtBoundConf>  (159) 
nan

>  <Num_Resolved_Atoms>  (159) 
nan

>  <Num_Not_Resolved_Atoms>  (159) 
nan

$$$$
CHEMBL4440440
     RDKit          3D

  0  0  0  0  0  0  0  0  0  0999 V3000
M  V30 BEGIN CTAB
M  V30 COUNTS 69 72 0 0 0
M  V30 BEGIN ATOM
M  V30 1 C 5.510590 1.983583 4.199897 0
M  V30 2 C 6.274214 1.061048 3.340579 0
M  V30 3 C 7.297712 0.283747 3.858267 0
M  V30 4 C 8.060425 -0.608230 3.104242 0
M  V30 5 C 7.786810 -0.736648 1.740510 0
M  V30 6 C 6.754837 0.051637 1.235297 0
M  V30 7 C 6.004491 0.931519 1.985869 0
M  V30 8 N 4.958909 1.703112 1.377076 0
M  V30 9 C 3.673299 1.681342 1.834364 0
M  V30 10 C 2.947602 2.532172 1.019908 0
M  V30 11 C 1.522081 2.777901 1.193814 0
M  V30 12 O 0.931263 2.188247 2.132151 0
M  V30 13 N 0.804832 3.650404 0.343395 0
M  V30 14 C -0.601936 3.999796 0.381397 0
M  V30 15 C -1.398818 2.885074 -0.177218 0
M  V30 16 C -1.908159 1.863621 0.595730 0
M  V30 17 C -2.640806 0.857858 0.002276 0
M  V30 18 C -2.911515 0.793558 -1.347212 0
M  V30 19 C -3.683826 -0.257378 -1.997329 0
M  V30 20 O -3.903756 -0.273632 -3.235531 0
M  V30 21 N -4.239252 -1.345835 -1.226614 0
M  V30 22 C -5.010254 -2.431701 -1.735383 0 CFG=1
M  V30 23 C -4.680536 -3.793926 -1.271782 0
M  V30 24 C -3.319564 -4.321433 -1.535202 0
M  V30 25 C -3.286126 -5.739233 -0.955296 0
M  V30 26 C -1.946691 -6.093304 -0.375269 0
M  V30 27 C -1.523687 -5.198427 0.766269 0
M  V30 28 C -2.084438 -3.803963 0.579449 0
M  V30 29 C -2.188046 -3.563097 -0.925417 0
M  V30 30 C -6.442713 -2.179420 -1.315906 0
M  V30 31 N -6.794299 -1.029793 -0.564749 0
M  V30 32 O -7.642945 -2.558134 -1.316203 0
M  V30 33 C -2.414015 1.801623 -2.140405 0
M  V30 34 C -1.668498 2.828101 -1.547618 0
M  V30 35 C 3.818476 3.050531 0.084258 0
M  V30 36 N 5.037194 2.516758 0.339829 0
M  V30 37 H 4.701876 1.446239 4.732545 0
M  V30 38 H 5.080843 2.840130 3.661977 0
M  V30 39 H 6.212271 2.311805 5.016537 0
M  V30 40 H 7.555953 0.340438 4.908695 0
M  V30 41 H 8.844534 -1.183402 3.574379 0
M  V30 42 H 8.355255 -1.412389 1.138791 0
M  V30 43 H 6.574126 -0.073294 0.187756 0
M  V30 44 H 3.330495 1.087778 2.686986 0
M  V30 45 H 1.380316 4.095510 -0.409200 0
M  V30 46 H -0.901161 4.065220 1.458931 0
M  V30 47 H -0.793171 4.952576 -0.122772 0
M  V30 48 H -1.741499 1.843084 1.662700 0
M  V30 49 H -3.021926 0.077770 0.639291 0
M  V30 50 H -4.110608 -1.418623 -0.193798 0
M  V30 51 H -5.032026 -2.331002 -2.852819 0
M  V30 52 H -4.890736 -3.937939 -0.169738 0
M  V30 53 H -5.437537 -4.486576 -1.749131 0
M  V30 54 H -3.106933 -4.467531 -2.621342 0
M  V30 55 H -4.032806 -5.831786 -0.122422 0
M  V30 56 H -3.525150 -6.500297 -1.712494 0
M  V30 57 H -1.173140 -6.182802 -1.174689 0
M  V30 58 H -2.056740 -7.108729 0.054925 0
M  V30 59 H -0.400531 -5.137967 0.734691 0
M  V30 60 H -1.817847 -5.569397 1.755444 0
M  V30 61 H -3.039621 -3.632772 1.088830 0
M  V30 62 H -1.334892 -3.095230 0.967287 0
M  V30 63 H -2.162194 -2.492908 -1.085976 0
M  V30 64 H -1.239102 -3.984187 -1.360533 0
M  V30 65 H -7.119677 -0.180645 -0.061742 0
M  V30 66 H -6.264456 -0.599718 0.239709 0
M  V30 67 H -2.556984 1.864619 -3.210523 0
M  V30 68 H -1.256452 3.644386 -2.135754 0
M  V30 69 H 3.495507 3.744383 -0.669657 0
M  V30 END ATOM
M  V30 BEGIN BOND
M  V30 1 1 1 2
M  V30 2 2 2 3
M  V30 3 1 3 4
M  V30 4 2 4 5
M  V30 5 1 5 6
M  V30 6 2 6 7
M  V30 7 1 7 8
M  V30 8 1 8 9
M  V30 9 2 9 10
M  V30 10 1 10 11
M  V30 11 2 11 12
M  V30 12 1 11 13
M  V30 13 1 13 14
M  V30 14 1 14 15
M  V30 15 2 15 16
M  V30 16 1 16 17
M  V30 17 2 17 18
M  V30 18 1 18 19
M  V30 19 2 19 20
M  V30 20 1 19 21
M  V30 21 1 21 22
M  V30 22 1 22 23
M  V30 23 1 23 24
M  V30 24 1 24 25
M  V30 25 1 25 26
M  V30 26 1 26 27
M  V30 27 1 27 28
M  V30 28 1 28 29
M  V30 29 1 22 30
M  V30 30 1 30 31
M  V30 31 2 30 32
M  V30 32 1 18 33
M  V30 33 2 33 34
M  V30 34 1 10 35
M  V30 35 2 35 36
M  V30 36 1 7 2
M  V30 37 1 36 8
M  V30 38 1 34 15
M  V30 39 1 29 24
M  V30 40 1 1 37
M  V30 41 1 1 38
M  V30 42 1 1 39
M  V30 43 1 3 40
M  V30 44 1 4 41
M  V30 45 1 5 42
M  V30 46 1 6 43
M  V30 47 1 9 44
M  V30 48 1 13 45
M  V30 49 1 14 46
M  V30 50 1 14 47
M  V30 51 1 16 48
M  V30 52 1 17 49
M  V30 53 1 21 50
M  V30 54 1 22 51 CFG=3
M  V30 55 1 23 52
M  V30 56 1 23 53
M  V30 57 1 24 54
M  V30 58 1 25 55
M  V30 59 1 25 56
M  V30 60 1 26 57
M  V30 61 1 26 58
M  V30 62 1 27 59
M  V30 63 1 27 60
M  V30 64 1 28 61
M  V30 65 1 28 62
M  V30 66 1 29 63
M  V30 67 1 29 64
M  V30 68 1 31 65
M  V30 69 1 31 66
M  V30 70 1 33 67
M  V30 71 1 34 68
M  V30 72 1 35 69
M  V30 END BOND
M  V30 END CTAB
M  END
>  <Dataset>  (160) 
ChEMBL_Kinases

>  <Ligand_Instance>  (160) 
nan

>  <PDB_ID>  (160) 
nan

>  <Standardized_SMILES>  (160) 
Cc1ccccc1-n1cc(C(=O)NCc2ccc(C(=O)N[C@@H](CC3CCCCC3)C(N)=O)cc2)cn1

>  <Name>  (160) 
nan

>  <Pocket>  (160) 
nan

>  <ATP_Site>  (160) 
nan

>  <Peripheral>  (160) 
nan

>  <Num_H_Atoms_ProtBoundConf>  (160) 
nan

>  <Num_Resolved_Atoms>  (160) 
nan

>  <Num_Not_Resolved_Atoms>  (160) 
nan

$$$$
CHEMBL3687518
     RDKit          3D

  0  0  0  0  0  0  0  0  0  0999 V3000
M  V30 BEGIN CTAB
M  V30 COUNTS 72 76 0 0 0
M  V30 BEGIN ATOM
M  V30 1 C 1.711144 -2.032196 2.878274 0
M  V30 2 C 2.612312 -0.990227 2.256263 0 CFG=1
M  V30 3 C 2.226444 -0.866622 0.792715 0
M  V30 4 C 3.349539 -0.096278 0.154773 0 CFG=1
M  V30 5 C 3.520026 -0.227923 -1.273264 0
M  V30 6 C 4.611046 -0.877312 -1.879526 0
M  V30 7 C 4.815916 -1.018820 -3.226037 0
M  V30 8 N 3.926098 -0.510628 -4.087515 0
M  V30 9 C 2.846314 0.130581 -3.559457 0
M  V30 10 C 2.659607 0.261806 -2.183955 0
M  V30 11 N 1.451382 0.938936 -1.919812 0
M  V30 12 C 0.830377 2.210818 -1.775614 0
M  V30 13 O 1.549615 3.252875 -1.923547 0
M  V30 14 C -0.588903 2.236294 -1.467744 0
M  V30 15 C -1.131607 3.494394 -1.336903 0
M  V30 16 C -2.482027 3.573338 -1.040821 0
M  V30 17 C -3.233785 2.428124 -0.887542 0
M  V30 18 F -4.555907 2.366259 -0.598997 0
M  V30 19 C -2.658315 1.184410 -1.025402 0
M  V30 20 C -3.228027 -0.141321 -0.914385 0
M  V30 21 C -3.227651 -0.783360 0.306133 0
M  V30 22 F -2.704792 -0.205772 1.431906 0
M  V30 23 C -3.752553 -2.047330 0.477122 0
M  V30 24 C -4.301473 -2.705883 -0.603453 0
M  V30 25 C -4.923033 -4.048471 -0.711153 0
M  V30 26 O -6.033881 -4.095908 -1.547384 0
M  V30 27 C -3.898876 -5.129108 -1.081121 0
M  V30 28 C -4.705044 -6.054966 -0.169183 0
M  V30 29 C -5.099475 -4.790403 0.592790 0
M  V30 30 C -4.302160 -2.054353 -1.843019 0
M  V30 31 C -3.776379 -0.789937 -2.009885 0
M  V30 32 F -3.754006 -0.119915 -3.186041 0
M  V30 33 N -1.333493 1.116129 -1.315731 0
M  V30 34 C 3.440410 1.284459 0.702397 0
M  V30 35 C 2.654686 1.482359 1.967070 0 CFG=1
M  V30 36 N 1.345573 2.031263 1.645190 0
M  V30 37 C 2.625699 0.327597 2.907292 0 CFG=1
M  V30 38 S 1.295960 0.613238 4.056433 0
M  V30 39 C 1.236739 -0.567957 5.360538 0
M  V30 40 O 1.530706 1.967272 4.661221 0
M  V30 41 O -0.043862 0.656605 3.380721 0
M  V30 42 H 1.742228 -2.899264 2.150945 0
M  V30 43 H 0.672886 -1.698264 2.861700 0
M  V30 44 H 2.098575 -2.436297 3.809739 0
M  V30 45 H 3.644997 -1.418127 2.243619 0
M  V30 46 H 1.251457 -0.370716 0.778358 0
M  V30 47 H 2.221855 -1.914348 0.412451 0
M  V30 48 H 4.281952 -0.616537 0.593993 0
M  V30 49 H 5.383568 -1.320226 -1.231776 0
M  V30 50 H 5.686587 -1.535164 -3.600019 0
M  V30 51 H 2.184947 0.505068 -4.355640 0
M  V30 52 H 0.824698 0.083064 -1.795198 0
M  V30 53 H -0.530123 4.382446 -1.459997 0
M  V30 54 H -2.991326 4.509343 -0.920265 0
M  V30 55 H -3.798503 -2.618962 1.369437 0
M  V30 56 H -6.048318 -4.988099 -1.998768 0
M  V30 57 H -3.886009 -5.422211 -2.134985 0
M  V30 58 H -2.910547 -4.832689 -0.672150 0
M  V30 59 H -4.082741 -6.741168 0.430284 0
M  V30 60 H -5.507974 -6.546161 -0.729269 0
M  V30 61 H -4.328520 -4.572976 1.341763 0
M  V30 62 H -6.127366 -4.762832 0.974340 0
M  V30 63 H -4.698735 -2.448372 -2.777579 0
M  V30 64 H 3.082823 2.023342 -0.033858 0
M  V30 65 H 4.501293 1.595915 0.909343 0
M  V30 66 H 3.168252 2.321880 2.531219 0
M  V30 67 H 1.465271 2.819250 0.949586 0
M  V30 68 H 0.940189 2.544329 2.489434 0
M  V30 69 H 3.557278 0.366071 3.567485 0
M  V30 70 H 0.857124 -0.026794 6.279702 0
M  V30 71 H 2.238157 -0.929156 5.663904 0
M  V30 72 H 0.483948 -1.372543 5.219490 0
M  V30 END ATOM
M  V30 BEGIN BOND
M  V30 1 1 1 2
M  V30 2 1 2 3
M  V30 3 1 3 4
M  V30 4 1 4 5
M  V30 5 2 5 6
M  V30 6 1 6 7
M  V30 7 2 7 8
M  V30 8 1 8 9
M  V30 9 2 9 10
M  V30 10 1 10 11
M  V30 11 1 11 12
M  V30 12 2 12 13
M  V30 13 1 12 14
M  V30 14 2 14 15
M  V30 15 1 15 16
M  V30 16 2 16 17
M  V30 17 1 17 18
M  V30 18 1 17 19
M  V30 19 1 19 20
M  V30 20 2 20 21
M  V30 21 1 21 22
M  V30 22 1 21 23
M  V30 23 2 23 24
M  V30 24 1 24 25
M  V30 25 1 25 26
M  V30 26 1 25 27
M  V30 27 1 27 28
M  V30 28 1 28 29
M  V30 29 1 24 30
M  V30 30 2 30 31
M  V30 31 1 31 32
M  V30 32 2 19 33
M  V30 33 1 4 34
M  V30 34 1 34 35
M  V30 35 1 35 36
M  V30 36 1 35 37
M  V30 37 1 37 38
M  V30 38 1 38 39
M  V30 39 2 38 40
M  V30 40 2 38 41
M  V30 41 1 37 2
M  V30 42 1 10 5
M  V30 43 1 33 14
M  V30 44 1 31 20
M  V30 45 1 29 25
M  V30 46 1 1 42
M  V30 47 1 1 43
M  V30 48 1 1 44
M  V30 49 1 2 45 CFG=3
M  V30 50 1 3 46
M  V30 51 1 3 47
M  V30 52 1 4 48 CFG=1
M  V30 53 1 6 49
M  V30 54 1 7 50
M  V30 55 1 9 51
M  V30 56 1 11 52
M  V30 57 1 15 53
M  V30 58 1 16 54
M  V30 59 1 23 55
M  V30 60 1 26 56
M  V30 61 1 27 57
M  V30 62 1 27 58
M  V30 63 1 28 59
M  V30 64 1 28 60
M  V30 65 1 29 61
M  V30 66 1 29 62
M  V30 67 1 30 63
M  V30 68 1 34 64
M  V30 69 1 34 65
M  V30 70 1 35 66 CFG=1
M  V30 71 1 36 67
M  V30 72 1 36 68
M  V30 73 1 37 69 CFG=1
M  V30 74 1 39 70
M  V30 75 1 39 71
M  V30 76 1 39 72
M  V30 END BOND
M  V30 END CTAB
M  END
>  <Dataset>  (161) 
ChEMBL_Kinases

>  <Ligand_Instance>  (161) 
nan

>  <PDB_ID>  (161) 
nan

>  <Standardized_SMILES>  (161) 
C[C@H]1C[C@@H](c2ccncc2NC(=O)c2ccc(F)c(-c3c(F)cc(C4(O)CCC4)cc3F)n2)C[C@@H](N)[C@H]1S(C)(=O)=O

>  <Name>  (161) 
nan

>  <Pocket>  (161) 
nan

>  <ATP_Site>  (161) 
nan

>  <Peripheral>  (161) 
nan

>  <Num_H_Atoms_ProtBoundConf>  (161) 
nan

>  <Num_Resolved_Atoms>  (161) 
nan

>  <Num_Not_Resolved_Atoms>  (161) 
nan

$$$$
CHEMBL4440391
     RDKit          3D

  0  0  0  0  0  0  0  0  0  0999 V3000
M  V30 BEGIN CTAB
M  V30 COUNTS 75 78 0 0 0
M  V30 BEGIN ATOM
M  V30 1 C 5.608862 -0.796366 3.942047 0
M  V30 2 C 4.689089 -0.297817 4.990967 0
M  V30 3 C 4.314815 -1.026279 6.110102 0
M  V30 4 C 3.469041 -0.581438 7.086018 0
M  V30 5 C 2.946416 0.702261 6.937876 0
M  V30 6 C 3.295146 1.467084 5.830698 0
M  V30 7 C 4.157059 0.982038 4.860741 0
M  V30 8 N 4.466553 1.844154 3.742437 0
M  V30 9 C 3.459502 2.085335 2.886123 0
M  V30 10 C 4.004684 2.916416 1.929295 0
M  V30 11 C 3.411032 3.526632 0.736921 0
M  V30 12 O 3.864916 4.284220 -0.152450 0
M  V30 13 N 2.059900 3.221772 0.515680 0
M  V30 14 C 1.005243 3.508387 -0.425453 0
M  V30 15 C -0.185523 4.182242 0.158379 0
M  V30 16 C 0.587211 2.294925 -1.154522 0
M  V30 17 C -0.726346 1.955070 -1.294924 0
M  V30 18 C -1.076449 0.820494 -1.984452 0
M  V30 19 C -0.172878 -0.035088 -2.568236 0
M  V30 20 C -0.557402 -1.257050 -3.299768 0
M  V30 21 O 0.417081 -1.878315 -3.844716 0
M  V30 22 N -1.895455 -1.771608 -3.432510 0
M  V30 23 C -2.117722 -2.985421 -4.184207 0 CFG=1
M  V30 24 C -2.399346 -4.176543 -3.357919 0
M  V30 25 C -3.546049 -4.256872 -2.474444 0
M  V30 26 C -3.772896 -3.328521 -1.365772 0
M  V30 27 C -5.057009 -3.743165 -0.643714 0
M  V30 28 C -5.049275 -3.312237 0.804571 0
M  V30 29 C -3.917877 -3.860296 1.607057 0
M  V30 30 C -2.653373 -3.998206 0.793131 0
M  V30 31 C -2.688484 -3.077145 -0.400011 0
M  V30 32 C -3.113241 -2.742731 -5.267295 0
M  V30 33 N -3.505905 -3.784901 -6.154302 0
M  V30 34 O -3.394497 -1.506625 -5.102102 0
M  V30 35 C 1.145815 0.323383 -2.416279 0
M  V30 36 C 1.509663 1.451094 -1.731695 0
M  V30 37 C 5.326776 3.154712 2.233455 0
M  V30 38 N 5.572317 2.470144 3.366744 0
M  V30 39 H 6.652098 -0.580863 4.293788 0
M  V30 40 H 5.373129 -0.263424 2.996769 0
M  V30 41 H 5.544436 -1.900596 3.815714 0
M  V30 42 H 4.719039 -2.020490 6.224590 0
M  V30 43 H 3.204125 -1.193543 7.949334 0
M  V30 44 H 2.264054 1.107787 7.690064 0
M  V30 45 H 2.877502 2.476330 5.725053 0
M  V30 46 H 2.431220 1.770298 2.841019 0
M  V30 47 H 1.508339 2.600343 1.155885 0
M  V30 48 H 1.424260 4.209417 -1.198287 0
M  V30 49 H -0.831029 4.545941 -0.662315 0
M  V30 50 H 0.159208 5.121247 0.675551 0
M  V30 51 H -0.796503 3.559111 0.835395 0
M  V30 52 H -1.447656 2.618920 -0.841744 0
M  V30 53 H -2.133614 0.631951 -2.046122 0
M  V30 54 H -2.503586 -1.120433 -2.935171 0
M  V30 55 H -1.125595 -3.134187 -4.732627 0
M  V30 56 H -1.410301 -4.443098 -2.862952 0
M  V30 57 H -2.486824 -5.045240 -4.097079 0
M  V30 58 H -4.481722 -4.253794 -3.124433 0
M  V30 59 H -3.597310 -5.307634 -2.034713 0
M  V30 60 H -4.068591 -2.328209 -1.812550 0
M  V30 61 H -5.964839 -3.299996 -1.103363 0
M  V30 62 H -5.193714 -4.849557 -0.703730 0
M  V30 63 H -5.102996 -2.211346 0.875917 0
M  V30 64 H -5.985980 -3.728601 1.243607 0
M  V30 65 H -4.187631 -4.804182 2.141684 0
M  V30 66 H -3.697056 -3.117992 2.428540 0
M  V30 67 H -2.500200 -5.052478 0.573716 0
M  V30 68 H -1.761892 -3.655220 1.392587 0
M  V30 69 H -2.821616 -2.057694 0.028936 0
M  V30 70 H -1.685323 -3.047501 -0.864494 0
M  V30 71 H -4.452243 -4.155392 -5.906906 0
M  V30 72 H -2.811533 -4.038475 -6.919764 0
M  V30 73 H 1.925499 -0.311138 -2.855122 0
M  V30 74 H 2.584768 1.660278 -1.657773 0
M  V30 75 H 6.054795 3.764604 1.694378 0
M  V30 END ATOM
M  V30 BEGIN BOND
M  V30 1 1 1 2
M  V30 2 2 2 3
M  V30 3 1 3 4
M  V30 4 2 4 5
M  V30 5 1 5 6
M  V30 6 2 6 7
M  V30 7 1 7 8
M  V30 8 1 8 9
M  V30 9 2 9 10
M  V30 10 1 10 11
M  V30 11 2 11 12
M  V30 12 1 11 13
M  V30 13 1 13 14
M  V30 14 1 14 15
M  V30 15 1 14 16
M  V30 16 2 16 17
M  V30 17 1 17 18
M  V30 18 2 18 19
M  V30 19 1 19 20
M  V30 20 2 20 21
M  V30 21 1 20 22
M  V30 22 1 22 23
M  V30 23 1 23 24
M  V30 24 1 24 25
M  V30 25 1 25 26
M  V30 26 1 26 27
M  V30 27 1 27 28
M  V30 28 1 28 29
M  V30 29 1 29 30
M  V30 30 1 30 31
M  V30 31 1 23 32
M  V30 32 1 32 33
M  V30 33 2 32 34
M  V30 34 1 19 35
M  V30 35 2 35 36
M  V30 36 1 10 37
M  V30 37 2 37 38
M  V30 38 1 7 2
M  V30 39 1 38 8
M  V30 40 1 36 16
M  V30 41 1 31 26
M  V30 42 1 1 39
M  V30 43 1 1 40
M  V30 44 1 1 41
M  V30 45 1 3 42
M  V30 46 1 4 43
M  V30 47 1 5 44
M  V30 48 1 6 45
M  V30 49 1 9 46
M  V30 50 1 13 47
M  V30 51 1 14 48
M  V30 52 1 15 49
M  V30 53 1 15 50
M  V30 54 1 15 51
M  V30 55 1 17 52
M  V30 56 1 18 53
M  V30 57 1 22 54
M  V30 58 1 23 55 CFG=3
M  V30 59 1 24 56
M  V30 60 1 24 57
M  V30 61 1 25 58
M  V30 62 1 25 59
M  V30 63 1 26 60
M  V30 64 1 27 61
M  V30 65 1 27 62
M  V30 66 1 28 63
M  V30 67 1 28 64
M  V30 68 1 29 65
M  V30 69 1 29 66
M  V30 70 1 30 67
M  V30 71 1 30 68
M  V30 72 1 31 69
M  V30 73 1 31 70
M  V30 74 1 33 71
M  V30 75 1 33 72
M  V30 76 1 35 73
M  V30 77 1 36 74
M  V30 78 1 37 75
M  V30 END BOND
M  V30 END CTAB
M  END
>  <Dataset>  (162) 
ChEMBL_Kinases

>  <Ligand_Instance>  (162) 
nan

>  <PDB_ID>  (162) 
nan

>  <Standardized_SMILES>  (162) 
Cc1ccccc1-n1cc(C(=O)NC(C)c2ccc(C(=O)N[C@@H](CCC3CCCCC3)C(N)=O)cc2)cn1

>  <Name>  (162) 
nan

>  <Pocket>  (162) 
nan

>  <ATP_Site>  (162) 
nan

>  <Peripheral>  (162) 
nan

>  <Num_H_Atoms_ProtBoundConf>  (162) 
nan

>  <Num_Resolved_Atoms>  (162) 
nan

>  <Num_Not_Resolved_Atoms>  (162) 
nan

$$$$
CHEMBL4440223
     RDKit          3D

  0  0  0  0  0  0  0  0  0  0999 V3000
M  V30 BEGIN CTAB
M  V30 COUNTS 48 50 0 0 0
M  V30 BEGIN ATOM
M  V30 1 C -0.854699 -5.627952 -0.004553 0
M  V30 2 C -1.780378 -4.754529 0.743942 0
M  V30 3 C -1.865045 -3.419547 0.404572 0
M  V30 4 C -1.266513 -2.528087 -0.550318 0
M  V30 5 C -1.101550 -2.887845 -1.892296 0
M  V30 6 N -0.543856 -2.081019 -2.837130 0
M  V30 7 C -0.107687 -0.835618 -2.485614 0
M  V30 8 C -0.255728 -0.449534 -1.169272 0
M  V30 9 C 0.236609 0.896885 -0.899760 0
M  V30 10 C 0.173878 1.878320 -1.865519 0
M  V30 11 C 0.662521 3.133159 -1.528628 0
M  V30 12 C 1.198072 3.398974 -0.264118 0
M  V30 13 C 1.666171 4.767874 -0.073796 0
M  V30 14 N 2.246187 5.251031 1.130630 0
M  V30 15 O 1.565480 5.592913 -1.008477 0
M  V30 16 C 1.255413 2.389727 0.708154 0
M  V30 17 O 1.815641 2.877134 1.855316 0
M  V30 18 C 2.037128 2.083151 2.982862 0
M  V30 19 C 0.813347 1.729902 3.764991 0
M  V30 20 C 2.777716 0.776372 2.660938 0
M  V30 21 C 0.767521 1.183980 0.335152 0
M  V30 22 C -0.818369 -1.254944 -0.199990 0
M  V30 23 C -2.813349 -2.882264 1.286202 0
M  V30 24 N -3.239722 -3.883972 2.086405 0
M  V30 25 N -2.624903 -4.996034 1.762890 0
M  V30 26 C -2.785551 -6.309004 2.367576 0
M  V30 27 H -1.165016 -5.878087 -1.020613 0
M  V30 28 H -0.837985 -6.621123 0.535945 0
M  V30 29 H 0.210181 -5.275597 0.082185 0
M  V30 30 H -1.411773 -3.836789 -2.254603 0
M  V30 31 H 0.326052 -0.241032 -3.276315 0
M  V30 32 H -0.238911 1.666293 -2.833862 0
M  V30 33 H 0.587723 3.860602 -2.322326 0
M  V30 34 H 1.574007 5.737866 1.754986 0
M  V30 35 H 3.272863 5.004368 1.136038 0
M  V30 36 H 2.742301 2.618896 3.707085 0
M  V30 37 H 1.005946 0.776453 4.303534 0
M  V30 38 H -0.086388 1.581148 3.129655 0
M  V30 39 H 0.608877 2.477827 4.578147 0
M  V30 40 H 2.163145 -0.085863 2.922468 0
M  V30 41 H 3.081283 0.725508 1.610936 0
M  V30 42 H 3.690492 0.704605 3.327770 0
M  V30 43 H 0.803659 0.430424 1.074407 0
M  V30 44 H -0.907333 -0.901062 0.807921 0
M  V30 45 H -3.261193 -1.922116 1.473355 0
M  V30 46 H -2.482588 -7.102803 1.643132 0
M  V30 47 H -2.200681 -6.441483 3.290439 0
M  V30 48 H -3.888971 -6.494321 2.514283 0
M  V30 END ATOM
M  V30 BEGIN BOND
M  V30 1 1 1 2
M  V30 2 2 2 3
M  V30 3 1 3 4
M  V30 4 2 4 5
M  V30 5 1 5 6
M  V30 6 2 6 7
M  V30 7 1 7 8
M  V30 8 1 8 9
M  V30 9 2 9 10
M  V30 10 1 10 11
M  V30 11 2 11 12
M  V30 12 1 12 13
M  V30 13 1 13 14
M  V30 14 2 13 15
M  V30 15 1 12 16
M  V30 16 1 16 17
M  V30 17 1 17 18
M  V30 18 1 18 19
M  V30 19 1 18 20
M  V30 20 2 16 21
M  V30 21 2 8 22
M  V30 22 1 3 23
M  V30 23 2 23 24
M  V30 24 1 24 25
M  V30 25 1 25 26
M  V30 26 1 25 2
M  V30 27 1 22 4
M  V30 28 1 21 9
M  V30 29 1 1 27
M  V30 30 1 1 28
M  V30 31 1 1 29
M  V30 32 1 5 30
M  V30 33 1 7 31
M  V30 34 1 10 32
M  V30 35 1 11 33
M  V30 36 1 14 34
M  V30 37 1 14 35
M  V30 38 1 18 36
M  V30 39 1 19 37
M  V30 40 1 19 38
M  V30 41 1 19 39
M  V30 42 1 20 40
M  V30 43 1 20 41
M  V30 44 1 20 42
M  V30 45 1 21 43
M  V30 46 1 22 44
M  V30 47 1 23 45
M  V30 48 1 26 46
M  V30 49 1 26 47
M  V30 50 1 26 48
M  V30 END BOND
M  V30 END CTAB
M  END
>  <Dataset>  (163) 
ChEMBL_Kinases

>  <Ligand_Instance>  (163) 
nan

>  <PDB_ID>  (163) 
nan

>  <Standardized_SMILES>  (163) 
Cc1c(-c2cncc(-c3ccc(C(N)=O)c(OC(C)C)c3)c2)cnn1C

>  <Name>  (163) 
nan

>  <Pocket>  (163) 
nan

>  <ATP_Site>  (163) 
nan

>  <Peripheral>  (163) 
nan

>  <Num_H_Atoms_ProtBoundConf>  (163) 
nan

>  <Num_Resolved_Atoms>  (163) 
nan

>  <Num_Not_Resolved_Atoms>  (163) 
nan

$$$$
CHEMBL4440113
     RDKit          3D

  0  0  0  0  0  0  0  0  0  0999 V3000
M  V30 BEGIN CTAB
M  V30 COUNTS 55 57 0 0 0
M  V30 BEGIN ATOM
M  V30 1 C 2.463628 -3.533312 0.494047 0
M  V30 2 C 2.424394 -2.094963 0.811348 0
M  V30 3 C 3.529889 -1.329291 0.468435 0
M  V30 4 C 3.505853 0.015967 0.759436 0
M  V30 5 C 2.463639 0.662973 1.367712 0
M  V30 6 C 2.443580 2.088622 1.673597 0
M  V30 7 O 1.440621 2.636006 2.243270 0
M  V30 8 N 3.494454 2.994553 1.384674 0
M  V30 9 C 3.394071 4.400452 1.722757 0
M  V30 10 C 4.704647 5.054771 1.264857 0
M  V30 11 C 3.259633 4.667428 3.188256 0
M  V30 12 C 2.239797 5.061954 1.016392 0
M  V30 13 N 1.416628 4.298829 0.145994 0
M  V30 14 O 1.956862 6.296170 1.161542 0
M  V30 15 C 1.381458 -0.087976 1.703103 0
M  V30 16 C 1.358765 -1.440634 1.431788 0
M  V30 17 N 0.260208 -2.300746 1.751832 0
M  V30 18 C -0.659173 -2.354820 0.682826 0
M  V30 19 O -0.428402 -1.688663 -0.359212 0
M  V30 20 C -1.884358 -3.151712 0.713680 0
M  V30 21 C -2.369463 -3.962399 1.719973 0
M  V30 22 N -3.531117 -4.477236 1.265925 0
M  V30 23 N -3.791469 -4.028381 0.031399 0
M  V30 24 C -4.930415 -4.355673 -0.770068 0
M  V30 25 C -5.935610 -3.475320 -1.116063 0
M  V30 26 C -7.001336 -3.896890 -1.901687 0
M  V30 27 C -6.974686 -5.219295 -2.294036 0
M  V30 28 C -6.005962 -6.152293 -1.986737 0
M  V30 29 C -4.966638 -5.683090 -1.202626 0
M  V30 30 C -2.775490 -3.195482 -0.339638 0
M  V30 31 N -2.744201 -2.546825 -1.601757 0
M  V30 32 H 3.116958 -4.083723 1.228575 0
M  V30 33 H 1.475017 -4.023789 0.587885 0
M  V30 34 H 2.908696 -3.656015 -0.512463 0
M  V30 35 H 4.391161 -1.779455 -0.016643 0
M  V30 36 H 4.381456 0.582217 0.479455 0
M  V30 37 H 4.343001 2.574776 0.911850 0
M  V30 38 H 5.000896 5.866186 1.978570 0
M  V30 39 H 5.517694 4.298350 1.263528 0
M  V30 40 H 4.632499 5.447050 0.232347 0
M  V30 41 H 2.222635 4.641781 3.569098 0
M  V30 42 H 3.965703 4.048672 3.777886 0
M  V30 43 H 3.622392 5.723607 3.356705 0
M  V30 44 H 0.796085 3.748419 -0.479419 0
M  V30 45 H 0.378065 4.380848 0.339095 0
M  V30 46 H 0.524632 0.347451 2.183087 0
M  V30 47 H 0.057057 -2.859182 2.612991 0
M  V30 48 H -1.896047 -4.136882 2.676532 0
M  V30 49 H -5.853441 -2.460073 -0.751737 0
M  V30 50 H -7.785065 -3.227861 -2.176818 0
M  V30 51 H -7.807321 -5.579568 -2.917396 0
M  V30 52 H -6.091105 -7.166991 -2.352734 0
M  V30 53 H -4.175296 -6.399857 -0.937557 0
M  V30 54 H -2.151124 -2.671802 -2.472098 0
M  V30 55 H -3.369269 -1.757818 -1.904512 0
M  V30 END ATOM
M  V30 BEGIN BOND
M  V30 1 1 1 2
M  V30 2 2 2 3
M  V30 3 1 3 4
M  V30 4 2 4 5
M  V30 5 1 5 6
M  V30 6 2 6 7
M  V30 7 1 6 8
M  V30 8 1 8 9
M  V30 9 1 9 10
M  V30 10 1 9 11
M  V30 11 1 9 12
M  V30 12 1 12 13
M  V30 13 2 12 14
M  V30 14 1 5 15
M  V30 15 2 15 16
M  V30 16 1 16 17
M  V30 17 1 17 18
M  V30 18 2 18 19
M  V30 19 1 18 20
M  V30 20 1 20 21
M  V30 21 2 21 22
M  V30 22 1 22 23
M  V30 23 1 23 24
M  V30 24 2 24 25
M  V30 25 1 25 26
M  V30 26 2 26 27
M  V30 27 1 27 28
M  V30 28 2 28 29
M  V30 29 1 23 30
M  V30 30 1 30 31
M  V30 31 1 16 2
M  V30 32 2 30 20
M  V30 33 1 29 24
M  V30 34 1 1 32
M  V30 35 1 1 33
M  V30 36 1 1 34
M  V30 37 1 3 35
M  V30 38 1 4 36
M  V30 39 1 8 37
M  V30 40 1 10 38
M  V30 41 1 10 39
M  V30 42 1 10 40
M  V30 43 1 11 41
M  V30 44 1 11 42
M  V30 45 1 11 43
M  V30 46 1 13 44
M  V30 47 1 13 45
M  V30 48 1 15 46
M  V30 49 1 17 47
M  V30 50 1 21 48
M  V30 51 1 25 49
M  V30 52 1 26 50
M  V30 53 1 27 51
M  V30 54 1 28 52
M  V30 55 1 29 53
M  V30 56 1 31 54
M  V30 57 1 31 55
M  V30 END BOND
M  V30 END CTAB
M  END
>  <Dataset>  (164) 
ChEMBL_Kinases

>  <Ligand_Instance>  (164) 
nan

>  <PDB_ID>  (164) 
nan

>  <Standardized_SMILES>  (164) 
Cc1ccc(C(=O)NC(C)(C)C(N)=O)cc1NC(=O)c1cnn(-c2ccccc2)c1N

>  <Name>  (164) 
nan

>  <Pocket>  (164) 
nan

>  <ATP_Site>  (164) 
nan

>  <Peripheral>  (164) 
nan

>  <Num_H_Atoms_ProtBoundConf>  (164) 
nan

>  <Num_Resolved_Atoms>  (164) 
nan

>  <Num_Not_Resolved_Atoms>  (164) 
nan

$$$$
CHEMBL3702071
     RDKit          3D

  0  0  0  0  0  0  0  0  0  0999 V3000
M  V30 BEGIN CTAB
M  V30 COUNTS 57 62 0 0 0
M  V30 BEGIN ATOM
M  V30 1 C -0.348659 -4.961291 4.655533 0
M  V30 2 C 0.462907 -3.887426 4.279215 0
M  V30 3 C 0.673794 -3.574109 2.929956 0
M  V30 4 C 1.414135 -2.586030 2.307501 0
M  V30 5 C 2.190421 -1.580508 2.844638 0
M  V30 6 N 2.819128 -0.731398 2.011763 0
M  V30 7 C 2.667495 -0.893131 0.660054 0
M  V30 8 N 3.201704 -0.124667 -0.402228 0
M  V30 9 C 2.061246 0.730948 -0.937781 0
M  V30 10 N 0.668819 0.720898 -0.447827 0
M  V30 11 C 0.014788 1.606940 -1.200591 0
M  V30 12 C -1.431007 1.687247 -0.833871 0
M  V30 13 N -1.745107 2.607838 0.189185 0
M  V30 14 C -1.151341 2.445337 1.458836 0
M  V30 15 C -0.788691 3.761082 2.129282 0
M  V30 16 N -0.438462 4.777102 1.188009 0
M  V30 17 C -1.431168 5.041139 0.188941 0
M  V30 18 C -2.280672 3.864031 -0.162061 0
M  V30 19 C 0.520840 2.485052 -2.340471 0
M  V30 20 S 2.239799 1.967973 -2.360601 0
M  V30 21 N 1.898111 -1.892854 0.193522 0
M  V30 22 C 1.237268 -2.781775 0.953550 0
M  V30 23 N 0.428100 -3.836872 0.745606 0
M  V30 24 C 0.005899 -4.351579 -0.512052 0
M  V30 25 C -1.401490 -3.959786 -0.906957 0
M  V30 26 C -1.456219 -4.072624 -2.427259 0
M  V30 27 C -0.029481 -4.211952 -2.904337 0
M  V30 28 C 0.793775 -3.798279 -1.679161 0
M  V30 29 C 0.065768 -4.344109 1.936478 0
M  V30 30 C -0.730475 -5.399187 2.353580 0
M  V30 31 N -0.909372 -5.668877 3.653749 0
M  V30 32 H -0.496128 -5.181431 5.685039 0
M  V30 33 H 0.932374 -3.293347 5.042712 0
M  V30 34 H 2.333010 -1.422469 3.904071 0
M  V30 35 H 4.032207 0.086430 -0.952886 0
M  V30 36 H -1.882714 0.701227 -0.590036 0
M  V30 37 H -2.023403 2.010633 -1.745229 0
M  V30 38 H -1.937038 1.988266 2.132338 0
M  V30 39 H -0.309449 1.738306 1.498358 0
M  V30 40 H 0.107001 3.564858 2.769710 0
M  V30 41 H -1.571687 4.097544 2.829711 0
M  V30 42 H 0.530537 4.699777 0.854306 0
M  V30 43 H -0.959573 5.458672 -0.748203 0
M  V30 44 H -2.107971 5.873326 0.518855 0
M  V30 45 H -3.295498 3.994012 0.305209 0
M  V30 46 H -2.472192 3.863999 -1.259267 0
M  V30 47 H -0.081010 3.114647 -2.826461 0
M  V30 48 H 0.126414 -5.437210 -0.536452 0
M  V30 49 H -1.629387 -2.918255 -0.635851 0
M  V30 50 H -2.174085 -4.644402 -0.519993 0
M  V30 51 H -1.985398 -4.987468 -2.754284 0
M  V30 52 H -1.970468 -3.217298 -2.896083 0
M  V30 53 H 0.238437 -5.214651 -3.248820 0
M  V30 54 H 0.102866 -3.507132 -3.751787 0
M  V30 55 H 0.763338 -2.675777 -1.732749 0
M  V30 56 H 1.788429 -4.229200 -1.801670 0
M  V30 57 H -1.218452 -6.015945 1.586351 0
M  V30 END ATOM
M  V30 BEGIN BOND
M  V30 1 2 1 2
M  V30 2 1 2 3
M  V30 3 1 3 4
M  V30 4 2 4 5
M  V30 5 1 5 6
M  V30 6 2 6 7
M  V30 7 1 7 8
M  V30 8 1 8 9
M  V30 9 2 9 10
M  V30 10 1 10 11
M  V30 11 1 11 12
M  V30 12 1 12 13
M  V30 13 1 13 14
M  V30 14 1 14 15
M  V30 15 1 15 16
M  V30 16 1 16 17
M  V30 17 1 17 18
M  V30 18 2 11 19
M  V30 19 1 19 20
M  V30 20 1 7 21
M  V30 21 2 21 22
M  V30 22 1 22 23
M  V30 23 1 23 24
M  V30 24 1 24 25
M  V30 25 1 25 26
M  V30 26 1 26 27
M  V30 27 1 27 28
M  V30 28 1 23 29
M  V30 29 1 29 30
M  V30 30 2 30 31
M  V30 31 1 31 1
M  V30 32 2 29 3
M  V30 33 1 22 4
M  V30 34 1 28 24
M  V30 35 1 20 9
M  V30 36 1 18 13
M  V30 37 1 1 32
M  V30 38 1 2 33
M  V30 39 1 5 34
M  V30 40 1 8 35
M  V30 41 1 12 36
M  V30 42 1 12 37
M  V30 43 1 14 38
M  V30 44 1 14 39
M  V30 45 1 15 40
M  V30 46 1 15 41
M  V30 47 1 16 42
M  V30 48 1 17 43
M  V30 49 1 17 44
M  V30 50 1 18 45
M  V30 51 1 18 46
M  V30 52 1 19 47
M  V30 53 1 24 48
M  V30 54 1 25 49
M  V30 55 1 25 50
M  V30 56 1 26 51
M  V30 57 1 26 52
M  V30 58 1 27 53
M  V30 59 1 27 54
M  V30 60 1 28 55
M  V30 61 1 28 56
M  V30 62 1 30 57
M  V30 END BOND
M  V30 END CTAB
M  END
>  <Dataset>  (165) 
ChEMBL_Kinases

>  <Ligand_Instance>  (165) 
nan

>  <PDB_ID>  (165) 
nan

>  <Standardized_SMILES>  (165) 
c1cc2c3cnc(Nc4nc(CN5CCNCC5)cs4)nc3n(C3CCCC3)c2cn1

>  <Name>  (165) 
nan

>  <Pocket>  (165) 
nan

>  <ATP_Site>  (165) 
nan

>  <Peripheral>  (165) 
nan

>  <Num_H_Atoms_ProtBoundConf>  (165) 
nan

>  <Num_Resolved_Atoms>  (165) 
nan

>  <Num_Not_Resolved_Atoms>  (165) 
nan

$$$$
CHEMBL4439959
     RDKit          3D

  0  0  0  0  0  0  0  0  0  0999 V3000
M  V30 BEGIN CTAB
M  V30 COUNTS 64 67 0 0 0
M  V30 BEGIN ATOM
M  V30 1 N 4.291213 2.790699 3.854283 0
M  V30 2 C 3.374674 2.626531 2.801064 0
M  V30 3 O 3.253118 3.866463 2.676232 0
M  V30 4 C 3.272579 1.130730 2.665728 0 CFG=2
M  V30 5 C 4.690060 0.656732 2.379887 0
M  V30 6 C 4.995526 -0.780422 2.366009 0
M  V30 7 C 4.271222 -1.662636 1.407466 0
M  V30 8 C 4.694886 -1.394438 -0.000902 0
M  V30 9 C 6.042374 -2.116427 -0.208022 0
M  V30 10 C 6.772718 -2.058316 1.089730 0
M  V30 11 C 6.484221 -0.857730 1.918596 0
M  V30 12 N 2.340048 0.869366 1.584912 0
M  V30 13 C 1.431093 0.609607 0.529417 0
M  V30 14 O 1.561849 -0.534003 0.157158 0
M  V30 15 C 0.421734 1.529485 -0.106614 0
M  V30 16 C -0.166618 2.710154 -0.162806 0
M  V30 17 N -1.093828 2.803719 -1.078173 0
M  V30 18 C -1.519355 2.113047 -1.841604 0
M  V30 19 C -2.600399 2.366406 -2.851334 0
M  V30 20 N -3.853669 1.961776 -2.253074 0
M  V30 21 C -3.939004 0.589393 -1.977888 0
M  V30 22 O -2.992767 -0.175223 -2.240775 0
M  V30 23 C -5.090747 -0.059626 -1.381770 0
M  V30 24 C -6.309227 0.457298 -0.971902 0
M  V30 25 N -7.065250 -0.541078 -0.483243 0
M  V30 26 N -6.437192 -1.687897 -0.539070 0
M  V30 27 C -6.840707 -3.014182 -0.135549 0
M  V30 28 C -6.588049 -4.088685 -0.961487 0
M  V30 29 C -6.918543 -5.384210 -0.675528 0
M  V30 30 C -7.557161 -5.648264 0.535335 0
M  V30 31 C -7.816681 -4.583680 1.371363 0
M  V30 32 C -7.465115 -3.266839 1.049663 0
M  V30 33 C -5.232691 -1.406014 -1.085152 0
M  V30 34 N -4.244884 -2.391116 -1.326394 0
M  V30 35 S -0.438911 0.613411 -1.425764 0
M  V30 36 H 4.955895 2.459184 4.593567 0
M  V30 37 H 4.940199 2.403412 4.570822 0
M  V30 38 H 2.974900 0.647641 3.565073 0
M  V30 39 H 5.398563 1.160139 3.068043 0
M  V30 40 H 5.013731 1.052787 1.360469 0
M  V30 41 H 4.970595 -1.230189 3.412786 0
M  V30 42 H 3.205038 -1.607788 1.616956 0
M  V30 43 H 4.557543 -2.756608 1.613430 0
M  V30 44 H 4.915174 -0.317474 -0.219869 0
M  V30 45 H 3.974524 -1.744754 -0.754855 0
M  V30 46 H 5.798046 -3.166245 -0.514162 0
M  V30 47 H 6.568829 -1.648453 -1.058929 0
M  V30 48 H 6.539231 -2.977305 1.675469 0
M  V30 49 H 7.875326 -2.012383 0.856099 0
M  V30 50 H 7.088591 -0.792847 2.819459 0
M  V30 51 H 6.723601 0.046209 1.285274 0
M  V30 52 H 1.908812 1.857947 1.687774 0
M  V30 53 H 0.298436 3.340722 0.615360 0
M  V30 54 H -2.419345 1.755950 -3.771592 0
M  V30 55 H -2.612450 3.419727 -3.142954 0
M  V30 56 H -4.638630 2.581804 -2.032619 0
M  V30 57 H -6.578046 1.505241 -1.050080 0
M  V30 58 H -6.096660 -3.989305 -1.921730 0
M  V30 59 H -6.738351 -6.246171 -1.292234 0
M  V30 60 H -7.891129 -6.618642 0.928833 0
M  V30 61 H -8.297900 -4.680995 2.321213 0
M  V30 62 H -7.684194 -2.447869 1.729027 0
M  V30 63 H -3.835136 -3.170383 -1.854983 0
M  V30 64 H -3.431246 -2.452762 -0.651729 0
M  V30 END ATOM
M  V30 BEGIN BOND
M  V30 1 1 1 2
M  V30 2 2 2 3
M  V30 3 1 2 4
M  V30 4 1 4 5
M  V30 5 1 5 6
M  V30 6 1 6 7
M  V30 7 1 7 8
M  V30 8 1 8 9
M  V30 9 1 9 10
M  V30 10 1 10 11
M  V30 11 1 4 12
M  V30 12 1 12 13
M  V30 13 2 13 14
M  V30 14 1 13 15
M  V30 15 2 15 16
M  V30 16 1 16 17
M  V30 17 2 17 18
M  V30 18 1 18 19
M  V30 19 1 19 20
M  V30 20 1 20 21
M  V30 21 2 21 22
M  V30 22 1 21 23
M  V30 23 1 23 24
M  V30 24 2 24 25
M  V30 25 1 25 26
M  V30 26 1 26 27
M  V30 27 2 27 28
M  V30 28 1 28 29
M  V30 29 2 29 30
M  V30 30 1 30 31
M  V30 31 2 31 32
M  V30 32 1 26 33
M  V30 33 1 33 34
M  V30 34 1 18 35
M  V30 35 1 11 6
M  V30 36 1 35 15
M  V30 37 2 33 23
M  V30 38 1 32 27
M  V30 39 1 1 36
M  V30 40 1 1 37
M  V30 41 1 4 38 CFG=1
M  V30 42 1 5 39
M  V30 43 1 5 40
M  V30 44 1 6 41
M  V30 45 1 7 42
M  V30 46 1 7 43
M  V30 47 1 8 44
M  V30 48 1 8 45
M  V30 49 1 9 46
M  V30 50 1 9 47
M  V30 51 1 10 48
M  V30 52 1 10 49
M  V30 53 1 11 50
M  V30 54 1 11 51
M  V30 55 1 12 52
M  V30 56 1 16 53
M  V30 57 1 19 54
M  V30 58 1 19 55
M  V30 59 1 20 56
M  V30 60 1 24 57
M  V30 61 1 28 58
M  V30 62 1 29 59
M  V30 63 1 30 60
M  V30 64 1 31 61
M  V30 65 1 32 62
M  V30 66 1 34 63
M  V30 67 1 34 64
M  V30 END BOND
M  V30 END CTAB
M  END
>  <Dataset>  (166) 
ChEMBL_Kinases

>  <Ligand_Instance>  (166) 
nan

>  <PDB_ID>  (166) 
nan

>  <Standardized_SMILES>  (166) 
NC(=O)[C@H](CC1CCCCC1)NC(=O)c1cnc(CNC(=O)c2cnn(-c3ccccc3)c2N)s1

>  <Name>  (166) 
nan

>  <Pocket>  (166) 
nan

>  <ATP_Site>  (166) 
nan

>  <Peripheral>  (166) 
nan

>  <Num_H_Atoms_ProtBoundConf>  (166) 
nan

>  <Num_Resolved_Atoms>  (166) 
nan

>  <Num_Not_Resolved_Atoms>  (166) 
nan

$$$$
CHEMBL3687517
     RDKit          3D

  0  0  0  0  0  0  0  0  0  0999 V3000
M  V30 BEGIN CTAB
M  V30 COUNTS 76 80 0 0 0
M  V30 BEGIN ATOM
M  V30 1 C 2.365603 -1.971428 0.776557 0
M  V30 2 C 3.554849 -2.421305 -0.031697 0 CFG=1
M  V30 3 C 3.105739 -2.700633 -1.458313 0
M  V30 4 C 3.496394 -1.498979 -2.342494 0 CFG=1
M  V30 5 C 2.896321 -1.591083 -3.646144 0
M  V30 6 C 3.559553 -2.292214 -4.663895 0
M  V30 7 C 3.121182 -2.485783 -5.954309 0
M  V30 8 N 1.932219 -1.955117 -6.299701 0
M  V30 9 C 1.219035 -1.263822 -5.393526 0
M  V30 10 C 1.700404 -1.096271 -4.112009 0
M  V30 11 N 0.855539 -0.353102 -3.247438 0
M  V30 12 C 0.845306 1.077079 -3.126956 0
M  V30 13 O 1.618235 1.807722 -3.806272 0
M  V30 14 C -0.071328 1.733053 -2.203676 0
M  V30 15 C -0.101362 3.097147 -2.063277 0
M  V30 16 C -0.958252 3.752927 -1.196777 0
M  V30 17 C -1.819035 2.970966 -0.444557 0
M  V30 18 F -2.653062 3.650485 0.401670 0
M  V30 19 C -1.788799 1.581211 -0.587298 0
M  V30 20 C -2.752889 0.909054 0.270539 0
M  V30 21 C -2.341045 0.533730 1.532059 0
M  V30 22 F -1.097221 0.738247 2.038724 0
M  V30 23 C -3.179774 -0.102517 2.420556 0
M  V30 24 C -4.480770 -0.388047 2.067337 0
M  V30 25 O -5.541146 -0.996509 2.707935 0
M  V30 26 C -5.410416 -1.484917 4.022274 0
M  V30 27 C -5.814213 -2.949014 4.053762 0
M  V30 28 C -7.106928 -3.109329 4.819205 0
M  V30 29 O -8.087695 -2.276109 4.308153 0
M  V30 30 C -7.797615 -0.967451 4.594521 0
M  V30 31 C -6.365101 -0.754135 4.964894 0
M  V30 32 C -4.907971 -0.010315 0.786840 0
M  V30 33 C -4.042550 0.635531 -0.103632 0
M  V30 34 F -4.375904 1.029648 -1.347340 0
M  V30 35 N -0.935621 1.038560 -1.440910 0
M  V30 36 C 3.318632 -0.221358 -1.577668 0
M  V30 37 C 4.326475 -0.125189 -0.430168 0 CFG=1
M  V30 38 N 3.882797 0.799416 0.586922 0
M  V30 39 C 4.698948 -1.475165 0.043751 0 CFG=1
M  V30 40 S 5.366993 -1.482692 1.690277 0
M  V30 41 C 6.821489 -0.482258 1.808105 0
M  V30 42 O 5.751720 -2.895103 2.025960 0
M  V30 43 O 4.369569 -0.982270 2.663695 0
M  V30 44 H 2.435629 -0.963284 1.190401 0
M  V30 45 H 2.177888 -2.643256 1.665530 0
M  V30 46 H 1.429393 -2.035620 0.184377 0
M  V30 47 H 3.917945 -3.379025 0.452404 0
M  V30 48 H 3.717886 -3.552669 -1.811794 0
M  V30 49 H 2.047132 -2.952500 -1.532895 0
M  V30 50 H 4.614426 -1.624804 -2.483294 0
M  V30 51 H 4.537030 -2.743767 -4.425390 0
M  V30 52 H 3.718788 -3.046213 -6.656337 0
M  V30 53 H 0.270851 -0.855130 -5.711581 0
M  V30 54 H 0.203270 -0.946369 -2.669233 0
M  V30 55 H 0.569428 3.744945 -2.645936 0
M  V30 56 H -0.960413 4.832930 -1.105481 0
M  V30 57 H -2.976530 -0.440775 3.423074 0
M  V30 58 H -4.419251 -1.379482 4.467922 0
M  V30 59 H -5.019927 -3.547956 4.525436 0
M  V30 60 H -6.002551 -3.318925 3.008780 0
M  V30 61 H -6.925870 -2.973828 5.890369 0
M  V30 62 H -7.492251 -4.151300 4.663146 0
M  V30 63 H -8.097084 -0.353774 3.712671 0
M  V30 64 H -8.446960 -0.644699 5.427098 0
M  V30 65 H -6.157547 -1.086264 5.980063 0
M  V30 66 H -6.178150 0.346174 4.914741 0
M  V30 67 H -5.896352 -0.146765 0.321684 0
M  V30 68 H 2.333762 -0.216863 -1.085411 0
M  V30 69 H 3.540810 0.623978 -2.237977 0
M  V30 70 H 5.274718 0.339632 -0.841178 0
M  V30 71 H 4.673822 1.396808 0.970242 0
M  V30 72 H 3.253156 1.485858 0.105929 0
M  V30 73 H 5.484804 -1.882927 -0.663251 0
M  V30 74 H 6.826505 0.344892 1.069898 0
M  V30 75 H 7.705555 -1.118799 1.628039 0
M  V30 76 H 6.894386 -0.112717 2.849728 0
M  V30 END ATOM
M  V30 BEGIN BOND
M  V30 1 1 1 2
M  V30 2 1 2 3
M  V30 3 1 3 4
M  V30 4 1 4 5
M  V30 5 2 5 6
M  V30 6 1 6 7
M  V30 7 2 7 8
M  V30 8 1 8 9
M  V30 9 2 9 10
M  V30 10 1 10 11
M  V30 11 1 11 12
M  V30 12 2 12 13
M  V30 13 1 12 14
M  V30 14 2 14 15
M  V30 15 1 15 16
M  V30 16 2 16 17
M  V30 17 1 17 18
M  V30 18 1 17 19
M  V30 19 1 19 20
M  V30 20 2 20 21
M  V30 21 1 21 22
M  V30 22 1 21 23
M  V30 23 2 23 24
M  V30 24 1 24 25
M  V30 25 1 25 26
M  V30 26 1 26 27
M  V30 27 1 27 28
M  V30 28 1 28 29
M  V30 29 1 29 30
M  V30 30 1 30 31
M  V30 31 1 24 32
M  V30 32 2 32 33
M  V30 33 1 33 34
M  V30 34 2 19 35
M  V30 35 1 4 36
M  V30 36 1 36 37
M  V30 37 1 37 38
M  V30 38 1 37 39
M  V30 39 1 39 40
M  V30 40 1 40 41
M  V30 41 2 40 42
M  V30 42 2 40 43
M  V30 43 1 39 2
M  V30 44 1 10 5
M  V30 45 1 35 14
M  V30 46 1 33 20
M  V30 47 1 31 26
M  V30 48 1 1 44
M  V30 49 1 1 45
M  V30 50 1 1 46
M  V30 51 1 2 47 CFG=1
M  V30 52 1 3 48
M  V30 53 1 3 49
M  V30 54 1 4 50 CFG=3
M  V30 55 1 6 51
M  V30 56 1 7 52
M  V30 57 1 9 53
M  V30 58 1 11 54
M  V30 59 1 15 55
M  V30 60 1 16 56
M  V30 61 1 23 57
M  V30 62 1 26 58
M  V30 63 1 27 59
M  V30 64 1 27 60
M  V30 65 1 28 61
M  V30 66 1 28 62
M  V30 67 1 30 63
M  V30 68 1 30 64
M  V30 69 1 31 65
M  V30 70 1 31 66
M  V30 71 1 32 67
M  V30 72 1 36 68
M  V30 73 1 36 69
M  V30 74 1 37 70 CFG=3
M  V30 75 1 38 71
M  V30 76 1 38 72
M  V30 77 1 39 73 CFG=3
M  V30 78 1 41 74
M  V30 79 1 41 75
M  V30 80 1 41 76
M  V30 END BOND
M  V30 END CTAB
M  END
>  <Dataset>  (167) 
ChEMBL_Kinases

>  <Ligand_Instance>  (167) 
nan

>  <PDB_ID>  (167) 
nan

>  <Standardized_SMILES>  (167) 
C[C@H]1C[C@@H](c2ccncc2NC(=O)c2ccc(F)c(-c3c(F)cc(OC4CCOCC4)cc3F)n2)C[C@@H](N)[C@H]1S(C)(=O)=O

>  <Name>  (167) 
nan

>  <Pocket>  (167) 
nan

>  <ATP_Site>  (167) 
nan

>  <Peripheral>  (167) 
nan

>  <Num_H_Atoms_ProtBoundConf>  (167) 
nan

>  <Num_Resolved_Atoms>  (167) 
nan

>  <Num_Not_Resolved_Atoms>  (167) 
nan

$$$$
CHEMBL3687516
     RDKit          3D

  0  0  0  0  0  0  0  0  0  0999 V3000
M  V30 BEGIN CTAB
M  V30 COUNTS 74 77 0 0 0
M  V30 BEGIN ATOM
M  V30 1 C 1.003698 -6.360080 5.345428 0
M  V30 2 O 2.118771 -6.177991 4.518491 0
M  V30 3 C 2.221628 -7.152951 3.554795 0
M  V30 4 C 3.394237 -7.032203 2.621831 0
M  V30 5 O 3.502221 -5.913083 1.861312 0
M  V30 6 C 3.657736 -4.589524 2.053038 0
M  V30 7 C 3.669816 -4.014399 0.768340 0
M  V30 8 C 3.817466 -2.630664 0.579915 0
M  V30 9 F 3.843890 -1.966275 -0.598225 0
M  V30 10 C 3.952972 -1.829597 1.694291 0
M  V30 11 C 4.111146 -0.377922 1.598210 0
M  V30 12 N 2.909935 0.228923 1.618318 0
M  V30 13 C 2.773639 1.571872 1.542741 0
M  V30 14 C 1.505583 2.292981 1.558991 0
M  V30 15 O 1.389352 3.533193 1.488568 0
M  V30 16 N 0.353782 1.463181 1.664676 0
M  V30 17 C -1.050025 1.686334 1.717829 0
M  V30 18 C -1.552859 1.852402 2.980473 0
M  V30 19 N -2.877077 2.069120 3.128947 0
M  V30 20 C -3.683266 2.118474 2.030021 0
M  V30 21 C -3.154763 1.948370 0.766759 0
M  V30 22 C -1.812519 1.723798 0.545704 0
M  V30 23 C -1.173705 1.532827 -0.774147 0 CFG=1
M  V30 24 C -1.136187 0.085712 -1.191716 0
M  V30 25 C -2.288689 -0.355083 -2.019283 0 CFG=1
M  V30 26 N -3.481271 -0.596637 -1.193518 0
M  V30 27 C -2.601015 0.537248 -3.180484 0 CFG=1
M  V30 28 N -4.008383 0.878457 -3.256331 0
M  V30 29 C -4.919983 0.628749 -4.331172 0
M  V30 30 O -4.501709 0.046854 -5.355574 0
M  V30 31 O -6.209288 1.090169 -4.076376 0
M  V30 32 C -7.219541 0.917285 -5.041330 0
M  V30 33 C -1.692482 1.738947 -3.176067 0 CFG=1
M  V30 34 C -2.103642 2.676471 -4.267677 0
M  V30 35 C -1.690227 2.439831 -1.846857 0
M  V30 36 C 3.903629 2.355919 1.441030 0
M  V30 37 C 5.147759 1.740789 1.419384 0
M  V30 38 C 5.272301 0.366083 1.497468 0
M  V30 39 F 6.388543 -0.367421 1.489163 0
M  V30 40 C 3.948092 -2.341214 2.972632 0
M  V30 41 F 4.071139 -1.669439 4.135323 0
M  V30 42 C 3.800006 -3.702093 3.080948 0
M  V30 43 H 1.116116 -7.348449 5.837849 0
M  V30 44 H 0.947632 -5.551831 6.086507 0
M  V30 45 H 0.053670 -6.317935 4.752795 0
M  V30 46 H 1.279262 -7.202599 2.938866 0
M  V30 47 H 2.327470 -8.123867 4.113785 0
M  V30 48 H 4.332727 -7.214266 3.213220 0
M  V30 49 H 3.319173 -7.915711 1.902930 0
M  V30 50 H 3.578034 -4.467034 -0.235551 0
M  V30 51 H 0.399536 0.424070 1.726230 0
M  V30 52 H -0.959089 1.821316 3.865654 0
M  V30 53 H -4.767633 2.290879 2.079354 0
M  V30 54 H -3.797211 1.988074 -0.102088 0
M  V30 55 H -0.085249 1.812070 -0.639569 0
M  V30 56 H -0.186117 -0.161585 -1.724712 0
M  V30 57 H -1.121576 -0.514035 -0.258434 0
M  V30 58 H -2.032065 -1.356468 -2.426877 0
M  V30 59 H -4.195492 -1.140293 -1.689291 0
M  V30 60 H -3.142720 -1.142036 -0.355819 0
M  V30 61 H -2.392666 0.028988 -4.168356 0
M  V30 62 H -4.270601 1.354949 -2.370574 0
M  V30 63 H -6.838245 0.737242 -6.052687 0
M  V30 64 H -7.829317 1.854293 -5.057296 0
M  V30 65 H -7.950982 0.124048 -4.735051 0
M  V30 66 H -0.662465 1.324858 -3.337127 0
M  V30 67 H -2.921710 2.246536 -4.879580 0
M  V30 68 H -1.244068 2.805883 -4.970089 0
M  V30 69 H -2.370112 3.673670 -3.876942 0
M  V30 70 H -2.668610 2.834998 -1.574729 0
M  V30 71 H -1.034357 3.348494 -1.988955 0
M  V30 72 H 3.865444 3.446923 1.376227 0
M  V30 73 H 6.089235 2.276585 1.341824 0
M  V30 74 H 3.797487 -4.200389 4.034083 0
M  V30 END ATOM
M  V30 BEGIN BOND
M  V30 1 1 1 2
M  V30 2 1 2 3
M  V30 3 1 3 4
M  V30 4 1 4 5
M  V30 5 1 5 6
M  V30 6 2 6 7
M  V30 7 1 7 8
M  V30 8 1 8 9
M  V30 9 2 8 10
M  V30 10 1 10 11
M  V30 11 2 11 12
M  V30 12 1 12 13
M  V30 13 1 13 14
M  V30 14 2 14 15
M  V30 15 1 14 16
M  V30 16 1 16 17
M  V30 17 2 17 18
M  V30 18 1 18 19
M  V30 19 2 19 20
M  V30 20 1 20 21
M  V30 21 2 21 22
M  V30 22 1 22 23
M  V30 23 1 23 24
M  V30 24 1 24 25
M  V30 25 1 25 26
M  V30 26 1 25 27
M  V30 27 1 27 28
M  V30 28 1 28 29
M  V30 29 2 29 30
M  V30 30 1 29 31
M  V30 31 1 31 32
M  V30 32 1 27 33
M  V30 33 1 33 34
M  V30 34 1 33 35
M  V30 35 2 13 36
M  V30 36 1 36 37
M  V30 37 2 37 38
M  V30 38 1 38 39
M  V30 39 1 10 40
M  V30 40 1 40 41
M  V30 41 2 40 42
M  V30 42 1 42 6
M  V30 43 1 38 11
M  V30 44 1 22 17
M  V30 45 1 35 23
M  V30 46 1 1 43
M  V30 47 1 1 44
M  V30 48 1 1 45
M  V30 49 1 3 46
M  V30 50 1 3 47
M  V30 51 1 4 48
M  V30 52 1 4 49
M  V30 53 1 7 50
M  V30 54 1 16 51
M  V30 55 1 18 52
M  V30 56 1 20 53
M  V30 57 1 21 54
M  V30 58 1 23 55 CFG=1
M  V30 59 1 24 56
M  V30 60 1 24 57
M  V30 61 1 25 58 CFG=3
M  V30 62 1 26 59
M  V30 63 1 26 60
M  V30 64 1 27 61 CFG=3
M  V30 65 1 28 62
M  V30 66 1 32 63
M  V30 67 1 32 64
M  V30 68 1 32 65
M  V30 69 1 33 66 CFG=3
M  V30 70 1 34 67
M  V30 71 1 34 68
M  V30 72 1 34 69
M  V30 73 1 35 70
M  V30 74 1 35 71
M  V30 75 1 36 72
M  V30 76 1 37 73
M  V30 77 1 42 74
M  V30 END BOND
M  V30 END CTAB
M  END
>  <Dataset>  (168) 
ChEMBL_Kinases

>  <Ligand_Instance>  (168) 
nan

>  <PDB_ID>  (168) 
nan

>  <Standardized_SMILES>  (168) 
COCCOc1cc(F)c(-c2nc(C(=O)Nc3cnccc3[C@H]3C[C@@H](N)[C@@H](NC(=O)OC)[C@@H](C)C3)ccc2F)c(F)c1

>  <Name>  (168) 
nan

>  <Pocket>  (168) 
nan

>  <ATP_Site>  (168) 
nan

>  <Peripheral>  (168) 
nan

>  <Num_H_Atoms_ProtBoundConf>  (168) 
nan

>  <Num_Resolved_Atoms>  (168) 
nan

>  <Num_Not_Resolved_Atoms>  (168) 
nan

$$$$
CHEMBL3687515
     RDKit          3D

  0  0  0  0  0  0  0  0  0  0999 V3000
M  V30 BEGIN CTAB
M  V30 COUNTS 73 76 0 0 0
M  V30 BEGIN ATOM
M  V30 1 C 2.609405 -4.309749 6.254520 0
M  V30 2 O 2.335578 -4.255170 4.879025 0
M  V30 3 C 3.009171 -5.188767 4.154231 0
M  V30 4 C 2.756220 -5.181344 2.669587 0
M  V30 5 O 3.072409 -4.029349 2.008737 0
M  V30 6 C 2.690836 -2.751123 2.007012 0
M  V30 7 C 1.804513 -1.929186 2.627999 0
M  V30 8 C 1.616134 -0.588098 2.425274 0
M  V30 9 F 0.667810 0.031080 3.165529 0
M  V30 10 C 2.429303 -0.014419 1.473203 0
M  V30 11 C 2.230628 1.422498 1.254044 0
M  V30 12 N 1.326586 1.826475 0.344229 0
M  V30 13 C 1.069123 3.119113 0.066377 0
M  V30 14 C 0.069120 3.466135 -0.934653 0
M  V30 15 O -0.083395 4.703008 -1.110220 0
M  V30 16 N -0.697605 2.536438 -1.678595 0
M  V30 17 C -1.674383 2.744188 -2.650675 0
M  V30 18 C -2.119996 3.990301 -3.025173 0
M  V30 19 N -3.058480 4.218074 -3.932665 0
M  V30 20 C -3.649758 3.196533 -4.561921 0
M  V30 21 C -3.214019 1.940982 -4.198550 0
M  V30 22 C -2.222722 1.651744 -3.243417 0
M  V30 23 N -1.920142 0.264811 -3.104044 0
M  V30 24 C -3.039962 -0.674379 -3.356861 0
M  V30 25 C -2.956762 -1.865497 -2.427814 0 CFG=1
M  V30 26 N -2.290486 -2.950689 -3.095315 0
M  V30 27 C -2.256362 -1.391448 -1.176681 0 CFG=1
M  V30 28 N -2.493670 -2.185157 -0.017606 0
M  V30 29 C -3.091295 -1.544501 1.097350 0
M  V30 30 O -3.419886 -0.330902 1.120380 0
M  V30 31 O -3.399001 -2.145456 2.309338 0
M  V30 32 C -4.005097 -1.378878 3.361539 0
M  V30 33 C -0.774229 -1.215110 -1.491994 0 CFG=1
M  V30 34 C -0.085552 -2.567066 -1.601861 0
M  V30 35 C -0.727354 -0.465713 -2.805192 0
M  V30 36 C 1.788574 4.053010 0.770257 0
M  V30 37 C 2.724599 3.687410 1.711469 0
M  V30 38 C 2.975530 2.352712 1.983637 0
M  V30 39 F 3.881861 1.926723 2.895577 0
M  V30 40 C 3.374550 -0.739955 0.766403 0
M  V30 41 F 4.082839 -0.015439 -0.128153 0
M  V30 42 C 3.494918 -2.111344 1.044308 0
M  V30 43 H 3.685314 -4.144178 6.432966 0
M  V30 44 H 2.235623 -5.254038 6.685374 0
M  V30 45 H 2.027682 -3.486638 6.727684 0
M  V30 46 H 2.762555 -6.204198 4.554267 0
M  V30 47 H 4.127837 -5.100226 4.260906 0
M  V30 48 H 3.319028 -6.069680 2.268076 0
M  V30 49 H 1.674003 -5.477153 2.518791 0
M  V30 50 H 1.199411 -2.449447 3.341559 0
M  V30 51 H -0.410226 1.592333 -1.357320 0
M  V30 52 H -1.738606 4.905969 -2.604716 0
M  V30 53 H -4.418706 3.343761 -5.306888 0
M  V30 54 H -3.722800 1.134554 -4.744386 0
M  V30 55 H -2.982115 -0.953811 -4.428185 0
M  V30 56 H -4.012848 -0.140489 -3.222168 0
M  V30 57 H -3.990772 -2.197592 -2.135673 0
M  V30 58 H -2.545502 -3.888869 -2.691658 0
M  V30 59 H -2.384832 -2.912203 -4.132294 0
M  V30 60 H -2.619285 -0.346322 -0.994329 0
M  V30 61 H -2.264726 -3.190504 0.074459 0
M  V30 62 H -3.424713 -0.410265 3.360061 0
M  V30 63 H -5.035893 -1.090479 3.132261 0
M  V30 64 H -3.833947 -1.841896 4.338584 0
M  V30 65 H -0.311936 -0.696294 -0.650710 0
M  V30 66 H -0.666554 -3.393179 -1.176719 0
M  V30 67 H 0.905890 -2.561985 -1.100659 0
M  V30 68 H 0.123543 -2.814860 -2.665039 0
M  V30 69 H -0.658562 -1.299456 -3.584618 0
M  V30 70 H 0.223015 0.081386 -2.978773 0
M  V30 71 H 1.587326 5.106852 0.552022 0
M  V30 72 H 3.277389 4.444638 2.251589 0
M  V30 73 H 4.284594 -2.493854 0.390027 0
M  V30 END ATOM
M  V30 BEGIN BOND
M  V30 1 1 1 2
M  V30 2 1 2 3
M  V30 3 1 3 4
M  V30 4 1 4 5
M  V30 5 1 5 6
M  V30 6 2 6 7
M  V30 7 1 7 8
M  V30 8 1 8 9
M  V30 9 2 8 10
M  V30 10 1 10 11
M  V30 11 2 11 12
M  V30 12 1 12 13
M  V30 13 1 13 14
M  V30 14 2 14 15
M  V30 15 1 14 16
M  V30 16 1 16 17
M  V30 17 2 17 18
M  V30 18 1 18 19
M  V30 19 2 19 20
M  V30 20 1 20 21
M  V30 21 2 21 22
M  V30 22 1 22 23
M  V30 23 1 23 24
M  V30 24 1 24 25
M  V30 25 1 25 26
M  V30 26 1 25 27
M  V30 27 1 27 28
M  V30 28 1 28 29
M  V30 29 2 29 30
M  V30 30 1 29 31
M  V30 31 1 31 32
M  V30 32 1 27 33
M  V30 33 1 33 34
M  V30 34 1 33 35
M  V30 35 2 13 36
M  V30 36 1 36 37
M  V30 37 2 37 38
M  V30 38 1 38 39
M  V30 39 1 10 40
M  V30 40 1 40 41
M  V30 41 2 40 42
M  V30 42 1 42 6
M  V30 43 1 38 11
M  V30 44 1 22 17
M  V30 45 1 35 23
M  V30 46 1 1 43
M  V30 47 1 1 44
M  V30 48 1 1 45
M  V30 49 1 3 46
M  V30 50 1 3 47
M  V30 51 1 4 48
M  V30 52 1 4 49
M  V30 53 1 7 50
M  V30 54 1 16 51
M  V30 55 1 18 52
M  V30 56 1 20 53
M  V30 57 1 21 54
M  V30 58 1 24 55
M  V30 59 1 24 56
M  V30 60 1 25 57 CFG=1
M  V30 61 1 26 58
M  V30 62 1 26 59
M  V30 63 1 27 60 CFG=1
M  V30 64 1 28 61
M  V30 65 1 32 62
M  V30 66 1 32 63
M  V30 67 1 32 64
M  V30 68 1 33 65 CFG=1
M  V30 69 1 34 66
M  V30 70 1 34 67
M  V30 71 1 34 68
M  V30 72 1 35 69
M  V30 73 1 35 70
M  V30 74 1 36 71
M  V30 75 1 37 72
M  V30 76 1 42 73
M  V30 END BOND
M  V30 END CTAB
M  END
>  <Dataset>  (169) 
ChEMBL_Kinases

>  <Ligand_Instance>  (169) 
nan

>  <PDB_ID>  (169) 
nan

>  <Standardized_SMILES>  (169) 
COCCOc1cc(F)c(-c2nc(C(=O)Nc3cnccc3N3C[C@@H](N)[C@@H](NC(=O)OC)[C@@H](C)C3)ccc2F)c(F)c1

>  <Name>  (169) 
nan

>  <Pocket>  (169) 
nan

>  <ATP_Site>  (169) 
nan

>  <Peripheral>  (169) 
nan

>  <Num_H_Atoms_ProtBoundConf>  (169) 
nan

>  <Num_Resolved_Atoms>  (169) 
nan

>  <Num_Not_Resolved_Atoms>  (169) 
nan

$$$$
CHEMBL4439529
     RDKit          3D

  0  0  0  0  0  0  0  0  0  0999 V3000
M  V30 BEGIN CTAB
M  V30 COUNTS 38 40 0 0 0
M  V30 BEGIN ATOM
M  V30 1 C -1.719567 -3.717255 0.391810 0
M  V30 2 C -0.854131 -3.192841 1.555843 0
M  V30 3 N -0.805508 -1.737645 1.487043 0
M  V30 4 C -2.227268 -1.367515 1.500109 0
M  V30 5 C 0.060286 -0.612132 1.435184 0
M  V30 6 N 0.003703 -0.049134 0.197681 0
M  V30 7 C 0.771636 1.041300 -0.094199 0
M  V30 8 C 0.759371 1.693104 -1.399693 0
M  V30 9 C -0.051823 1.213739 -2.407916 0
M  V30 10 C -0.009778 1.881517 -3.614332 0
M  V30 11 N 0.766959 2.965958 -3.873361 0
M  V30 12 C 1.552344 3.424771 -2.886844 0
M  V30 13 C 1.542798 2.794803 -1.676450 0
M  V30 14 N 1.574098 1.537325 0.860548 0
M  V30 15 C 1.646257 0.999372 2.088054 0
M  V30 16 C 2.446775 1.463228 3.125560 0
M  V30 17 N 2.447679 0.856967 4.337981 0
M  V30 18 C 1.667737 -0.232506 4.599718 0
M  V30 19 C 0.846724 -0.752721 3.623456 0
M  V30 20 C 0.884302 -0.101399 2.414634 0
M  V30 21 C 0.471744 -3.859854 1.410352 0
M  V30 22 F 1.410560 -3.556959 2.333745 0
M  V30 23 F 1.019513 -3.698262 0.151353 0
M  V30 24 F 0.232844 -5.237025 1.519898 0
M  V30 25 H -1.445076 -4.776422 0.208066 0
M  V30 26 H -2.794465 -3.731403 0.658102 0
M  V30 27 H -1.608101 -3.104312 -0.515676 0
M  V30 28 H -1.344297 -3.560212 2.475254 0
M  V30 29 H -2.393475 -0.278379 1.524718 0
M  V30 30 H -2.648575 -1.708181 0.532513 0
M  V30 31 H -2.754818 -1.766921 2.390889 0
M  V30 32 H -0.696769 0.355640 -2.275729 0
M  V30 33 H -0.622646 1.566645 -4.468636 0
M  V30 34 H 2.225685 4.281861 -2.948904 0
M  V30 35 H 2.158850 3.125404 -0.845275 0
M  V30 36 H 3.068460 2.331522 2.917123 0
M  V30 37 H 1.684633 -0.699847 5.574767 0
M  V30 38 H 0.208056 -1.613362 3.774794 0
M  V30 END ATOM
M  V30 BEGIN BOND
M  V30 1 1 1 2
M  V30 2 1 2 3
M  V30 3 1 3 4
M  V30 4 1 3 5
M  V30 5 2 5 6
M  V30 6 1 6 7
M  V30 7 1 7 8
M  V30 8 2 8 9
M  V30 9 1 9 10
M  V30 10 2 10 11
M  V30 11 1 11 12
M  V30 12 2 12 13
M  V30 13 2 7 14
M  V30 14 1 14 15
M  V30 15 2 15 16
M  V30 16 1 16 17
M  V30 17 2 17 18
M  V30 18 1 18 19
M  V30 19 2 19 20
M  V30 20 1 2 21
M  V30 21 1 21 22
M  V30 22 1 21 23
M  V30 23 1 21 24
M  V30 24 1 20 5
M  V30 25 1 13 8
M  V30 26 1 20 15
M  V30 27 1 1 25
M  V30 28 1 1 26
M  V30 29 1 1 27
M  V30 30 1 2 28
M  V30 31 1 4 29
M  V30 32 1 4 30
M  V30 33 1 4 31
M  V30 34 1 9 32
M  V30 35 1 10 33
M  V30 36 1 12 34
M  V30 37 1 13 35
M  V30 38 1 16 36
M  V30 39 1 18 37
M  V30 40 1 19 38
M  V30 END BOND
M  V30 END CTAB
M  END
>  <Dataset>  (170) 
ChEMBL_Kinases

>  <Ligand_Instance>  (170) 
nan

>  <PDB_ID>  (170) 
nan

>  <Standardized_SMILES>  (170) 
CC(N(C)c1nc(-c2ccncc2)nc2cnccc12)C(F)(F)F

>  <Name>  (170) 
nan

>  <Pocket>  (170) 
nan

>  <ATP_Site>  (170) 
nan

>  <Peripheral>  (170) 
nan

>  <Num_H_Atoms_ProtBoundConf>  (170) 
nan

>  <Num_Resolved_Atoms>  (170) 
nan

>  <Num_Not_Resolved_Atoms>  (170) 
nan

$$$$
CHEMBL3687514
     RDKit          3D

  0  0  0  0  0  0  0  0  0  0999 V3000
M  V30 BEGIN CTAB
M  V30 COUNTS 60 63 0 0 0
M  V30 BEGIN ATOM
M  V30 1 C 3.466764 -0.889251 3.421823 0
M  V30 2 C 2.095734 -0.467771 2.979820 0 CFG=1
M  V30 3 C 2.100872 0.057244 1.567510 0
M  V30 4 C 1.775979 -0.995594 0.554856 0 CFG=1
M  V30 5 C 2.429203 -0.833170 -0.739019 0
M  V30 6 C 3.646011 -1.350896 -1.093907 0
M  V30 7 C 4.193589 -1.150347 -2.339453 0
M  V30 8 N 3.584696 -0.435774 -3.302719 0
M  V30 9 C 2.385087 0.098190 -3.011825 0
M  V30 10 C 1.810173 -0.092281 -1.754442 0
M  V30 11 N 0.541120 0.524553 -1.576955 0
M  V30 12 C 0.038115 1.755229 -1.135709 0
M  V30 13 O 0.846640 2.628605 -0.772443 0
M  V30 14 C -1.418015 1.880669 -1.151204 0
M  V30 15 C -1.900181 3.094148 -0.716309 0
M  V30 16 C -3.285953 3.252089 -0.716909 0
M  V30 17 N -4.140058 2.296825 -1.112607 0
M  V30 18 C -3.606789 1.129365 -1.528021 0
M  V30 19 C -4.362890 -0.023137 -1.993526 0
M  V30 20 C -4.802912 -1.028087 -1.152192 0
M  V30 21 F -4.521435 -0.943722 0.168735 0
M  V30 22 C -5.507810 -2.062645 -1.719310 0
M  V30 23 C -5.787302 -2.133429 -3.073869 0
M  V30 24 C -5.342407 -1.128281 -3.888115 0
M  V30 25 C -4.628835 -0.069331 -3.352902 0
M  V30 26 F -4.215373 0.897612 -4.219247 0
M  V30 27 N -2.277206 0.922351 -1.548263 0
M  V30 28 C 2.119866 -2.355250 1.114740 0
M  V30 29 C 1.324771 -2.707174 2.326447 0 CFG=1
M  V30 30 N 2.016114 -3.678717 3.158783 0
M  V30 31 C 1.032361 -1.499719 3.147743 0 CFG=1
M  V30 32 S 0.749619 -1.905650 4.859152 0
M  V30 33 C -0.667864 -2.978741 4.898503 0
M  V30 34 O 1.908741 -2.656996 5.442331 0
M  V30 35 O 0.443704 -0.689467 5.644945 0
M  V30 36 H 3.560807 -1.954119 3.692393 0
M  V30 37 H 4.244147 -0.620915 2.646805 0
M  V30 38 H 3.792000 -0.328475 4.321517 0
M  V30 39 H 1.789600 0.393462 3.646206 0
M  V30 40 H 1.472894 0.952202 1.473348 0
M  V30 41 H 3.158231 0.412186 1.395076 0
M  V30 42 H 0.664681 -0.904215 0.372815 0
M  V30 43 H 4.187966 -1.931024 -0.376341 0
M  V30 44 H 5.158773 -1.570619 -2.596750 0
M  V30 45 H 1.898101 0.667045 -3.775548 0
M  V30 46 H -0.067947 -0.266254 -1.900517 0
M  V30 47 H -1.258997 3.904810 -0.384144 0
M  V30 48 H -3.747325 4.174462 -0.390391 0
M  V30 49 H -5.866662 -2.860180 -1.106992 0
M  V30 50 H -6.347896 -2.972349 -3.471083 0
M  V30 51 H -5.576271 -1.209029 -4.949818 0
M  V30 52 H 3.198428 -2.350415 1.354297 0
M  V30 53 H 1.967254 -3.143532 0.361602 0
M  V30 54 H 0.337646 -3.178191 2.060783 0
M  V30 55 H 2.896143 -4.018652 2.668310 0
M  V30 56 H 1.438707 -4.546645 3.333817 0
M  V30 57 H 0.069121 -0.994642 2.843434 0
M  V30 58 H -0.682443 -3.673991 4.036055 0
M  V30 59 H -0.807537 -3.474985 5.880637 0
M  V30 60 H -1.566873 -2.312353 4.742916 0
M  V30 END ATOM
M  V30 BEGIN BOND
M  V30 1 1 1 2
M  V30 2 1 2 3
M  V30 3 1 3 4
M  V30 4 1 4 5
M  V30 5 2 5 6
M  V30 6 1 6 7
M  V30 7 2 7 8
M  V30 8 1 8 9
M  V30 9 2 9 10
M  V30 10 1 10 11
M  V30 11 1 11 12
M  V30 12 2 12 13
M  V30 13 1 12 14
M  V30 14 2 14 15
M  V30 15 1 15 16
M  V30 16 2 16 17
M  V30 17 1 17 18
M  V30 18 1 18 19
M  V30 19 2 19 20
M  V30 20 1 20 21
M  V30 21 1 20 22
M  V30 22 2 22 23
M  V30 23 1 23 24
M  V30 24 2 24 25
M  V30 25 1 25 26
M  V30 26 2 18 27
M  V30 27 1 4 28
M  V30 28 1 28 29
M  V30 29 1 29 30
M  V30 30 1 29 31
M  V30 31 1 31 32
M  V30 32 1 32 33
M  V30 33 2 32 34
M  V30 34 2 32 35
M  V30 35 1 31 2
M  V30 36 1 10 5
M  V30 37 1 27 14
M  V30 38 1 25 19
M  V30 39 1 1 36
M  V30 40 1 1 37
M  V30 41 1 1 38
M  V30 42 1 2 39 CFG=1
M  V30 43 1 3 40
M  V30 44 1 3 41
M  V30 45 1 4 42 CFG=3
M  V30 46 1 6 43
M  V30 47 1 7 44
M  V30 48 1 9 45
M  V30 49 1 11 46
M  V30 50 1 15 47
M  V30 51 1 16 48
M  V30 52 1 22 49
M  V30 53 1 23 50
M  V30 54 1 24 51
M  V30 55 1 28 52
M  V30 56 1 28 53
M  V30 57 1 29 54 CFG=3
M  V30 58 1 30 55
M  V30 59 1 30 56
M  V30 60 1 31 57 CFG=3
M  V30 61 1 33 58
M  V30 62 1 33 59
M  V30 63 1 33 60
M  V30 END BOND
M  V30 END CTAB
M  END
>  <Dataset>  (171) 
ChEMBL_Kinases

>  <Ligand_Instance>  (171) 
nan

>  <PDB_ID>  (171) 
nan

>  <Standardized_SMILES>  (171) 
C[C@H]1C[C@@H](c2ccncc2NC(=O)c2ccnc(-c3c(F)cccc3F)n2)C[C@@H](N)[C@H]1S(C)(=O)=O

>  <Name>  (171) 
nan

>  <Pocket>  (171) 
nan

>  <ATP_Site>  (171) 
nan

>  <Peripheral>  (171) 
nan

>  <Num_H_Atoms_ProtBoundConf>  (171) 
nan

>  <Num_Resolved_Atoms>  (171) 
nan

>  <Num_Not_Resolved_Atoms>  (171) 
nan

$$$$
CHEMBL4439094
     RDKit          3D

  0  0  0  0  0  0  0  0  0  0999 V3000
M  V30 BEGIN CTAB
M  V30 COUNTS 40 43 0 0 0
M  V30 BEGIN ATOM
M  V30 1 O 3.168244 0.553508 -2.913674 0
M  V30 2 C 2.435983 0.053602 -2.028281 0
M  V30 3 N 1.584529 -1.080598 -2.128658 0
M  V30 4 C 0.834984 -1.349781 -0.882340 0
M  V30 5 C 1.127659 -2.707823 -0.382216 0
M  V30 6 C 0.015515 -3.525669 0.145433 0
M  V30 7 C -1.190984 -3.359024 -0.748390 0
M  V30 8 C -1.617766 -1.897320 -0.587299 0
M  V30 9 C -0.585347 -1.045234 -1.249258 0
M  V30 10 N 1.411875 -0.280552 -0.049054 0
M  V30 11 C 2.293233 0.542288 -0.655571 0
M  V30 12 C 2.846104 1.572058 0.076662 0
M  V30 13 Cl 3.978679 2.578562 -0.847509 0
M  V30 14 C 2.544459 1.809662 1.412069 0
M  V30 15 C 1.622942 0.922282 1.990474 0
M  V30 16 N 1.353818 1.243500 3.367715 0
M  V30 17 C -0.051770 1.469556 3.445658 0
M  V30 18 C -0.836056 0.492811 4.077228 0
M  V30 19 C -2.216736 0.653769 4.167528 0
M  V30 20 N -2.846258 1.745296 3.656008 0
M  V30 21 C -2.059836 2.680552 3.046652 0
M  V30 22 N -0.711277 2.535903 2.951491 0
M  V30 23 C 1.101756 -0.081263 1.227087 0
M  V30 24 O 0.305232 -0.762185 1.914559 0
M  V30 25 H 1.551535 -1.617751 -3.031057 0
M  V30 26 H 1.993183 -2.633506 0.323358 0
M  V30 27 H 1.555543 -3.288511 -1.249563 0
M  V30 28 H 0.365209 -4.583128 0.172221 0
M  V30 29 H -0.339568 -3.289601 1.166962 0
M  V30 30 H -0.870847 -3.538359 -1.775690 0
M  V30 31 H -2.023365 -4.040644 -0.479495 0
M  V30 32 H -2.563523 -1.799041 -1.187984 0
M  V30 33 H -1.836167 -1.665060 0.451675 0
M  V30 34 H -0.798736 0.031266 -1.091273 0
M  V30 35 H -0.738803 -1.189660 -2.360674 0
M  V30 36 H 3.056569 2.654225 1.864874 0
M  V30 37 H 2.073187 1.284039 4.113947 0
M  V30 38 H -0.442913 -0.413569 4.519264 0
M  V30 39 H -2.840553 -0.108430 4.662030 0
M  V30 40 H -2.446254 3.585388 2.600919 0
M  V30 END ATOM
M  V30 BEGIN BOND
M  V30 1 2 1 2
M  V30 2 1 2 3
M  V30 3 1 3 4
M  V30 4 1 4 5
M  V30 5 1 5 6
M  V30 6 1 6 7
M  V30 7 1 7 8
M  V30 8 1 8 9
M  V30 9 1 4 10
M  V30 10 1 10 11
M  V30 11 2 11 12
M  V30 12 1 12 13
M  V30 13 1 12 14
M  V30 14 2 14 15
M  V30 15 1 15 16
M  V30 16 1 16 17
M  V30 17 2 17 18
M  V30 18 1 18 19
M  V30 19 2 19 20
M  V30 20 1 20 21
M  V30 21 2 21 22
M  V30 22 1 15 23
M  V30 23 2 23 24
M  V30 24 1 11 2
M  V30 25 1 22 17
M  V30 26 1 9 4
M  V30 27 1 23 10
M  V30 28 1 3 25
M  V30 29 1 5 26
M  V30 30 1 5 27
M  V30 31 1 6 28
M  V30 32 1 6 29
M  V30 33 1 7 30
M  V30 34 1 7 31
M  V30 35 1 8 32
M  V30 36 1 8 33
M  V30 37 1 9 34
M  V30 38 1 9 35
M  V30 39 1 14 36
M  V30 40 1 16 37
M  V30 41 1 18 38
M  V30 42 1 19 39
M  V30 43 1 21 40
M  V30 END BOND
M  V30 END CTAB
M  END
>  <Dataset>  (172) 
ChEMBL_Kinases

>  <Ligand_Instance>  (172) 
nan

>  <PDB_ID>  (172) 
nan

>  <Standardized_SMILES>  (172) 
O=C1NC2(CCCCC2)n2c1c(Cl)cc(Nc1ccncn1)c2=O

>  <Name>  (172) 
nan

>  <Pocket>  (172) 
nan

>  <ATP_Site>  (172) 
nan

>  <Peripheral>  (172) 
nan

>  <Num_H_Atoms_ProtBoundConf>  (172) 
nan

>  <Num_Resolved_Atoms>  (172) 
nan

>  <Num_Not_Resolved_Atoms>  (172) 
nan

$$$$
CHEMBL3687513
     RDKit          3D

  0  0  0  0  0  0  0  0  0  0999 V3000
M  V30 BEGIN CTAB
M  V30 COUNTS 62 65 0 0 0
M  V30 BEGIN ATOM
M  V30 1 C 1.221692 -1.414507 4.080387 0
M  V30 2 O 2.249219 -0.614792 3.576939 0
M  V30 3 C 1.864516 0.007073 2.380935 0 CFG=2
M  V30 4 C 2.714032 -0.593512 1.281854 0 CFG=2
M  V30 5 C 4.190359 -0.568475 1.599050 0
M  V30 6 C 2.414466 0.039324 -0.060698 0
M  V30 7 C 1.541695 1.279291 0.142874 0 CFG=2
M  V30 8 C 1.346807 1.979668 -1.132733 0
M  V30 9 C 2.189882 2.986717 -1.610482 0
M  V30 10 C 1.888084 3.563784 -2.832045 0
M  V30 11 N 0.817971 3.204931 -3.591237 0
M  V30 12 C -0.023407 2.238034 -3.171076 0
M  V30 13 C 0.282023 1.665792 -1.952288 0
M  V30 14 N -0.606950 0.630327 -1.487816 0
M  V30 15 C -1.666920 1.200335 -0.703946 0
M  V30 16 O -1.666312 2.450207 -0.545036 0
M  V30 17 C -2.690705 0.324019 -0.128723 0
M  V30 18 C -3.692227 0.930473 0.620366 0
M  V30 19 C -4.633280 0.067208 1.141719 0
M  V30 20 C -4.620964 -1.295208 0.959952 0
M  V30 21 F -5.515589 -2.159424 1.450044 0
M  V30 22 C -3.600357 -1.833184 0.206781 0
M  V30 23 C -3.406142 -3.251960 -0.104208 0
M  V30 24 C -2.630349 -3.951941 0.811641 0
M  V30 25 F -2.088902 -3.375250 1.913586 0
M  V30 26 C -2.361444 -5.296562 0.650349 0
M  V30 27 C -2.899514 -5.927782 -0.469997 0
M  V30 28 C -2.599021 -7.389904 -0.632692 0
M  V30 29 C -3.674393 -5.258068 -1.397558 0
M  V30 30 C -3.926600 -3.907465 -1.207408 0
M  V30 31 F -4.674237 -3.169850 -2.062634 0
M  V30 32 N -2.659740 -1.000272 -0.318143 0
M  V30 33 C 2.271765 2.133623 1.158607 0
M  V30 34 C 2.013289 1.494125 2.507029 0 CFG=2
M  V30 35 N 3.074867 1.837830 3.437909 0
M  V30 36 H 0.946601 -2.219695 3.340581 0
M  V30 37 H 1.608338 -1.871996 5.011741 0
M  V30 38 H 0.293947 -0.826553 4.284058 0
M  V30 39 H 0.818442 -0.318999 2.159960 0
M  V30 40 H 2.414920 -1.658317 1.192814 0
M  V30 41 H 4.532010 -1.558411 1.961525 0
M  V30 42 H 4.741388 -0.361862 0.657157 0
M  V30 43 H 4.447606 0.220777 2.335671 0
M  V30 44 H 3.389790 0.411511 -0.468064 0
M  V30 45 H 1.990169 -0.660842 -0.784421 0
M  V30 46 H 0.537784 0.990176 0.510520 0
M  V30 47 H 3.026752 3.268364 -1.018277 0
M  V30 48 H 2.521144 4.348334 -3.232911 0
M  V30 49 H -0.890154 1.909895 -3.730303 0
M  V30 50 H -0.623133 -0.409283 -1.609488 0
M  V30 51 H -3.755446 2.006815 0.799851 0
M  V30 52 H -5.433993 0.492273 1.732999 0
M  V30 53 H -1.753749 -5.879583 1.352656 0
M  V30 54 H -1.577493 -7.480459 -1.105719 0
M  V30 55 H -2.518522 -7.825786 0.363804 0
M  V30 56 H -3.299113 -7.896550 -1.313709 0
M  V30 57 H -4.087240 -5.762183 -2.265757 0
M  V30 58 H 3.343157 2.177257 0.921096 0
M  V30 59 H 1.883840 3.161497 1.172837 0
M  V30 60 H 1.058776 1.912170 2.904235 0
M  V30 61 H 3.004254 2.816058 3.767934 0
M  V30 62 H 3.135131 1.168548 4.231619 0
M  V30 END ATOM
M  V30 BEGIN BOND
M  V30 1 1 1 2
M  V30 2 1 2 3
M  V30 3 1 3 4
M  V30 4 1 4 5
M  V30 5 1 4 6
M  V30 6 1 6 7
M  V30 7 1 7 8
M  V30 8 2 8 9
M  V30 9 1 9 10
M  V30 10 2 10 11
M  V30 11 1 11 12
M  V30 12 2 12 13
M  V30 13 1 13 14
M  V30 14 1 14 15
M  V30 15 2 15 16
M  V30 16 1 15 17
M  V30 17 2 17 18
M  V30 18 1 18 19
M  V30 19 2 19 20
M  V30 20 1 20 21
M  V30 21 1 20 22
M  V30 22 1 22 23
M  V30 23 2 23 24
M  V30 24 1 24 25
M  V30 25 1 24 26
M  V30 26 2 26 27
M  V30 27 1 27 28
M  V30 28 1 27 29
M  V30 29 2 29 30
M  V30 30 1 30 31
M  V30 31 2 22 32
M  V30 32 1 7 33
M  V30 33 1 33 34
M  V30 34 1 34 35
M  V30 35 1 34 3
M  V30 36 1 13 8
M  V30 37 1 32 17
M  V30 38 1 30 23
M  V30 39 1 1 36
M  V30 40 1 1 37
M  V30 41 1 1 38
M  V30 42 1 3 39 CFG=3
M  V30 43 1 4 40 CFG=3
M  V30 44 1 5 41
M  V30 45 1 5 42
M  V30 46 1 5 43
M  V30 47 1 6 44
M  V30 48 1 6 45
M  V30 49 1 7 46 CFG=1
M  V30 50 1 9 47
M  V30 51 1 10 48
M  V30 52 1 12 49
M  V30 53 1 14 50
M  V30 54 1 18 51
M  V30 55 1 19 52
M  V30 56 1 26 53
M  V30 57 1 28 54
M  V30 58 1 28 55
M  V30 59 1 28 56
M  V30 60 1 29 57
M  V30 61 1 33 58
M  V30 62 1 33 59
M  V30 63 1 34 60 CFG=1
M  V30 64 1 35 61
M  V30 65 1 35 62
M  V30 END BOND
M  V30 END CTAB
M  END
>  <Dataset>  (173) 
ChEMBL_Kinases

>  <Ligand_Instance>  (173) 
nan

>  <PDB_ID>  (173) 
nan

>  <Standardized_SMILES>  (173) 
CO[C@@H]1[C@H](C)C[C@H](c2ccncc2NC(=O)c2ccc(F)c(-c3c(F)cc(C)cc3F)n2)C[C@@H]1N

>  <Name>  (173) 
nan

>  <Pocket>  (173) 
nan

>  <ATP_Site>  (173) 
nan

>  <Peripheral>  (173) 
nan

>  <Num_H_Atoms_ProtBoundConf>  (173) 
nan

>  <Num_Resolved_Atoms>  (173) 
nan

>  <Num_Not_Resolved_Atoms>  (173) 
nan

$$$$
CHEMBL4440053
     RDKit          3D

  0  0  0  0  0  0  0  0  0  0999 V3000
M  V30 BEGIN CTAB
M  V30 COUNTS 68 74 0 0 0
M  V30 BEGIN ATOM
M  V30 1 C 4.381824 -2.284308 -0.075255 0
M  V30 2 O 5.606039 -1.889100 0.450774 0
M  V30 3 C 6.003002 -0.604199 0.782578 0
M  V30 4 C 7.275702 -0.397947 1.305475 0
M  V30 5 C 7.693854 0.865682 1.642756 0
M  V30 6 C 6.843391 1.955089 1.463835 0
M  V30 7 C 5.547757 1.835347 0.945757 0
M  V30 8 C 5.227700 0.530043 0.639413 0
M  V30 9 C 4.945236 3.136142 0.917728 0 CFG=1
M  V30 10 C 4.329057 3.597194 -0.394864 0
M  V30 11 C 3.576965 3.578567 0.942421 0 CFG=1
M  V30 12 C 2.353268 2.830107 0.948786 0
M  V30 13 C 1.878060 1.856538 0.073863 0
M  V30 14 C 0.688783 1.173957 0.174280 0
M  V30 15 C -0.140480 1.458560 1.237352 0
M  V30 16 C -1.366080 0.942747 1.593630 0
M  V30 17 C -2.153389 -0.080966 0.919662 0
M  V30 18 C -1.674448 -1.272063 0.385545 0
M  V30 19 C -2.552966 -2.145474 -0.224074 0
M  V30 20 C -3.893383 -1.919078 -0.343727 0
M  V30 21 N -4.740679 -2.854009 -0.994876 0
M  V30 22 C -4.319138 -3.988066 -1.754377 0
M  V30 23 C -5.073540 -5.251539 -1.410129 0 CFG=1
M  V30 24 C -4.134107 -6.444170 -1.311666 0
M  V30 25 N -5.859698 -5.113215 -0.211981 0
M  V30 26 C -6.777414 -4.017470 -0.273787 0 CFG=1
M  V30 27 C -7.119935 -3.590419 1.152834 0
M  V30 28 C -6.172455 -2.847675 -1.011436 0
M  V30 29 C -4.366604 -0.743937 0.183334 0
M  V30 30 C -3.503459 0.152876 0.801871 0
M  V30 31 N -1.695996 1.602174 2.734248 0
M  V30 32 N -0.749813 2.462640 3.064311 0
M  V30 33 C 0.236297 2.420543 2.179195 0
M  V30 34 C 1.447190 3.039326 1.978069 0
M  V30 35 C 6.032704 4.034377 1.385138 0
M  V30 36 O 6.003455 5.310614 1.472816 0
M  V30 37 N 7.193966 3.300717 1.754875 0
M  V30 38 H 4.375519 -2.373503 -1.180402 0
M  V30 39 H 4.119771 -3.278494 0.392745 0
M  V30 40 H 3.596875 -1.598415 0.314516 0
M  V30 41 H 7.924501 -1.238005 1.441775 0
M  V30 42 H 8.692250 0.953871 2.044937 0
M  V30 43 H 4.253587 0.306901 0.228924 0
M  V30 44 H 4.627162 4.579650 -0.813947 0
M  V30 45 H 4.135684 2.823150 -1.150209 0
M  V30 46 H 3.460915 4.601138 1.423139 0
M  V30 47 H 2.546691 1.639262 -0.770965 0
M  V30 48 H 0.443059 0.445204 -0.569950 0
M  V30 49 H -0.610068 -1.437300 0.489062 0
M  V30 50 H -2.053552 -3.022232 -0.590469 0
M  V30 51 H -4.489750 -3.708268 -2.837400 0
M  V30 52 H -3.241781 -4.224121 -1.699201 0
M  V30 53 H -5.768774 -5.464721 -2.248159 0
M  V30 54 H -3.376995 -6.354633 -2.145659 0
M  V30 55 H -3.625180 -6.440335 -0.343412 0
M  V30 56 H -4.655180 -7.395909 -1.521783 0
M  V30 57 H -5.282996 -5.171347 0.650441 0
M  V30 58 H -7.712911 -4.383857 -0.744811 0
M  V30 59 H -7.348788 -4.498237 1.774072 0
M  V30 60 H -7.981534 -2.901705 1.138796 0
M  V30 61 H -6.273624 -3.049507 1.628243 0
M  V30 62 H -6.615292 -1.905318 -0.588237 0
M  V30 63 H -6.565997 -2.885728 -2.059735 0
M  V30 64 H -5.405747 -0.469827 0.142640 0
M  V30 65 H -3.929841 1.076129 1.206271 0
M  V30 66 H -0.770071 3.095581 3.907245 0
M  V30 67 H 1.665967 3.768739 2.746518 0
M  V30 68 H 8.078209 3.691371 2.145405 0
M  V30 END ATOM
M  V30 BEGIN BOND
M  V30 1 1 1 2
M  V30 2 1 2 3
M  V30 3 2 3 4
M  V30 4 1 4 5
M  V30 5 2 5 6
M  V30 6 1 6 7
M  V30 7 2 7 8
M  V30 8 1 7 9
M  V30 9 1 9 10 CFG=3
M  V30 10 1 10 11
M  V30 11 1 11 12
M  V30 12 2 12 13
M  V30 13 1 13 14
M  V30 14 2 14 15
M  V30 15 1 15 16
M  V30 16 1 16 17
M  V30 17 2 17 18
M  V30 18 1 18 19
M  V30 19 2 19 20
M  V30 20 1 20 21
M  V30 21 1 21 22
M  V30 22 1 22 23
M  V30 23 1 23 24
M  V30 24 1 23 25
M  V30 25 1 25 26
M  V30 26 1 26 27
M  V30 27 1 26 28
M  V30 28 1 20 29
M  V30 29 2 29 30
M  V30 30 2 16 31
M  V30 31 1 31 32
M  V30 32 1 32 33
M  V30 33 2 33 34
M  V30 34 1 9 35
M  V30 35 2 35 36
M  V30 36 1 35 37
M  V30 37 1 8 3
M  V30 38 1 11 9
M  V30 39 1 34 12
M  V30 40 1 37 6
M  V30 41 1 33 15
M  V30 42 1 30 17
M  V30 43 1 28 21
M  V30 44 1 1 38
M  V30 45 1 1 39
M  V30 46 1 1 40
M  V30 47 1 4 41
M  V30 48 1 5 42
M  V30 49 1 8 43
M  V30 50 1 10 44
M  V30 51 1 10 45
M  V30 52 1 11 46 CFG=1
M  V30 53 1 13 47
M  V30 54 1 14 48
M  V30 55 1 18 49
M  V30 56 1 19 50
M  V30 57 1 22 51
M  V30 58 1 22 52
M  V30 59 1 23 53 CFG=3
M  V30 60 1 24 54
M  V30 61 1 24 55
M  V30 62 1 24 56
M  V30 63 1 25 57
M  V30 64 1 26 58 CFG=3
M  V30 65 1 27 59
M  V30 66 1 27 60
M  V30 67 1 27 61
M  V30 68 1 28 62
M  V30 69 1 28 63
M  V30 70 1 29 64
M  V30 71 1 30 65
M  V30 72 1 32 66
M  V30 73 1 34 67
M  V30 74 1 37 68
M  V30 END BOND
M  V30 END CTAB
M  END
>  <Dataset>  (174) 
ChEMBL_Kinases

>  <Ligand_Instance>  (174) 
nan

>  <PDB_ID>  (174) 
nan

>  <Standardized_SMILES>  (174) 
COc1ccc2c(c1)[C@]1(C[C@H]1c1ccc3c(-c4ccc(N5C[C@@H](C)N[C@@H](C)C5)cc4)n[nH]c3c1)C(=O)N2

>  <Name>  (174) 
nan

>  <Pocket>  (174) 
nan

>  <ATP_Site>  (174) 
nan

>  <Peripheral>  (174) 
nan

>  <Num_H_Atoms_ProtBoundConf>  (174) 
nan

>  <Num_Resolved_Atoms>  (174) 
nan

>  <Num_Not_Resolved_Atoms>  (174) 
nan

$$$$
CHEMBL3687527
     RDKit          3D

  0  0  0  0  0  0  0  0  0  0999 V3000
M  V30 BEGIN CTAB
M  V30 COUNTS 83 87 0 0 0
M  V30 BEGIN ATOM
M  V30 1 C 3.664383 -4.205686 0.691852 0
M  V30 2 C 4.196570 -2.814802 0.903240 0 CFG=1
M  V30 3 C 3.965572 -1.884992 -0.233848 0
M  V30 4 C 3.785436 -0.421483 0.214452 0 CFG=1
M  V30 5 C 4.108552 0.476758 -0.874292 0
M  V30 6 C 5.480481 0.689873 -1.081596 0
M  V30 7 C 5.983384 1.492499 -2.079818 0
M  V30 8 N 5.163162 2.130334 -2.929707 0
M  V30 9 C 3.841805 1.956980 -2.770202 0
M  V30 10 C 3.345294 1.152398 -1.768941 0
M  V30 11 N 1.949672 1.065365 -1.706508 0
M  V30 12 C 1.494135 2.150963 -0.870583 0
M  V30 13 O 2.482357 2.833328 -0.461311 0
M  V30 14 C 0.114145 2.451681 -0.524879 0
M  V30 15 C -0.069532 3.548492 0.285336 0
M  V30 16 C -1.313886 3.966431 0.701013 0
M  V30 17 C -2.445421 3.269944 0.300428 0
M  V30 18 F -3.708309 3.631670 0.677267 0
M  V30 19 C -2.219313 2.167318 -0.517734 0
M  V30 20 C -3.401823 1.445589 -0.930442 0
M  V30 21 C -3.915094 0.391751 -0.165173 0
M  V30 22 F -3.286932 0.034715 0.990176 0
M  V30 23 C -5.052844 -0.273243 -0.590921 0
M  V30 24 C -5.730067 0.030671 -1.733124 0
M  V30 25 C -6.939682 -0.650998 -2.211312 0
M  V30 26 O -7.966516 0.319010 -2.187194 0
M  V30 27 C -7.404122 -1.757530 -1.301567 0
M  V30 28 C -6.697225 -3.060688 -1.580673 0
M  V30 29 O -7.012015 -3.406631 -2.892683 0
M  V30 30 C -6.312084 -2.539476 -3.729892 0
M  V30 31 C -6.836866 -1.126404 -3.641243 0
M  V30 32 C -5.232615 1.064057 -2.490238 0
M  V30 33 C -4.087780 1.768882 -2.106938 0
M  V30 34 F -3.630710 2.777900 -2.877264 0
M  V30 35 N -0.992448 1.777626 -0.911564 0
M  V30 36 C 2.424678 -0.373702 0.796524 0
M  V30 37 C 2.277615 -1.585819 1.719577 0 CFG=1
M  V30 38 N 1.537010 -2.649571 1.030091 0
M  V30 39 C 3.566329 -2.176210 2.169989 0 CFG=1
M  V30 40 O 3.288165 -3.165813 3.081181 0
M  V30 41 C 3.949505 -3.260014 4.236882 0
M  V30 42 C 3.878468 -2.347681 5.371780 0
M  V30 43 S 4.278078 -0.670639 5.288718 0
M  V30 44 C 3.289651 0.362938 4.292310 0
M  V30 45 O 4.193674 -0.121395 6.721252 0
M  V30 46 O 5.735902 -0.463185 4.879255 0
M  V30 47 H 3.219297 -4.551323 1.647888 0
M  V30 48 H 2.875723 -4.265221 -0.080453 0
M  V30 49 H 4.488451 -4.923605 0.435578 0
M  V30 50 H 5.276520 -2.922542 1.104243 0
M  V30 51 H 3.038953 -2.121125 -0.821252 0
M  V30 52 H 4.793449 -1.991513 -0.961533 0
M  V30 53 H 4.553720 -0.275555 1.023466 0
M  V30 54 H 6.243002 0.219682 -0.447735 0
M  V30 55 H 7.044281 1.636131 -2.213104 0
M  V30 56 H 3.200916 2.476439 -3.461301 0
M  V30 57 H 1.178545 0.442696 -2.098219 0
M  V30 58 H 0.731630 4.157792 0.653416 0
M  V30 59 H -1.464484 4.831527 1.340115 0
M  V30 60 H -5.406578 -1.072336 0.028784 0
M  V30 61 H -8.270086 0.556922 -3.077093 0
M  V30 62 H -8.490781 -1.940294 -1.544590 0
M  V30 63 H -7.392449 -1.435651 -0.262430 0
M  V30 64 H -5.588074 -2.944491 -1.535223 0
M  V30 65 H -7.032347 -3.810213 -0.850658 0
M  V30 66 H -5.215408 -2.584842 -3.474936 0
M  V30 67 H -6.483788 -2.888745 -4.773078 0
M  V30 68 H -7.834538 -1.114970 -4.138913 0
M  V30 69 H -6.164512 -0.475033 -4.223478 0
M  V30 70 H -5.696785 1.392579 -3.425752 0
M  V30 71 H 2.168848 0.499579 1.405347 0
M  V30 72 H 1.692602 -0.564492 -0.020289 0
M  V30 73 H 1.648566 -1.358246 2.604508 0
M  V30 74 H 0.681428 -2.258683 0.559743 0
M  V30 75 H 1.191944 -3.286048 1.769746 0
M  V30 76 H 4.343838 -1.530245 2.547479 0
M  V30 77 H 5.063843 -3.417284 3.966203 0
M  V30 78 H 3.720353 -4.346943 4.609092 0
M  V30 79 H 4.589573 -2.795600 6.170318 0
M  V30 80 H 2.869073 -2.412047 5.910786 0
M  V30 81 H 3.331027 1.401427 4.770778 0
M  V30 82 H 2.209920 0.117080 4.316013 0
M  V30 83 H 3.622045 0.535314 3.274261 0
M  V30 END ATOM
M  V30 BEGIN BOND
M  V30 1 1 1 2
M  V30 2 1 2 3
M  V30 3 1 3 4
M  V30 4 1 4 5
M  V30 5 2 5 6
M  V30 6 1 6 7
M  V30 7 2 7 8
M  V30 8 1 8 9
M  V30 9 2 9 10
M  V30 10 1 10 11
M  V30 11 1 11 12
M  V30 12 2 12 13
M  V30 13 1 12 14
M  V30 14 2 14 15
M  V30 15 1 15 16
M  V30 16 2 16 17
M  V30 17 1 17 18
M  V30 18 1 17 19
M  V30 19 1 19 20
M  V30 20 2 20 21
M  V30 21 1 21 22
M  V30 22 1 21 23
M  V30 23 2 23 24
M  V30 24 1 24 25
M  V30 25 1 25 26
M  V30 26 1 25 27
M  V30 27 1 27 28
M  V30 28 1 28 29
M  V30 29 1 29 30
M  V30 30 1 30 31
M  V30 31 1 24 32
M  V30 32 2 32 33
M  V30 33 1 33 34
M  V30 34 2 19 35
M  V30 35 1 4 36
M  V30 36 1 36 37
M  V30 37 1 37 38
M  V30 38 1 37 39
M  V30 39 1 39 40
M  V30 40 1 40 41
M  V30 41 1 41 42
M  V30 42 1 42 43
M  V30 43 1 43 44
M  V30 44 2 43 45
M  V30 45 2 43 46
M  V30 46 1 39 2
M  V30 47 1 10 5
M  V30 48 1 35 14
M  V30 49 1 33 20
M  V30 50 1 31 25
M  V30 51 1 1 47
M  V30 52 1 1 48
M  V30 53 1 1 49
M  V30 54 1 2 50 CFG=1
M  V30 55 1 3 51
M  V30 56 1 3 52
M  V30 57 1 4 53 CFG=1
M  V30 58 1 6 54
M  V30 59 1 7 55
M  V30 60 1 9 56
M  V30 61 1 11 57
M  V30 62 1 15 58
M  V30 63 1 16 59
M  V30 64 1 23 60
M  V30 65 1 26 61
M  V30 66 1 27 62
M  V30 67 1 27 63
M  V30 68 1 28 64
M  V30 69 1 28 65
M  V30 70 1 30 66
M  V30 71 1 30 67
M  V30 72 1 31 68
M  V30 73 1 31 69
M  V30 74 1 32 70
M  V30 75 1 36 71
M  V30 76 1 36 72
M  V30 77 1 37 73 CFG=1
M  V30 78 1 38 74
M  V30 79 1 38 75
M  V30 80 1 39 76 CFG=1
M  V30 81 1 41 77
M  V30 82 1 41 78
M  V30 83 1 42 79
M  V30 84 1 42 80
M  V30 85 1 44 81
M  V30 86 1 44 82
M  V30 87 1 44 83
M  V30 END BOND
M  V30 END CTAB
M  END
>  <Dataset>  (175) 
ChEMBL_Kinases

>  <Ligand_Instance>  (175) 
nan

>  <PDB_ID>  (175) 
nan

>  <Standardized_SMILES>  (175) 
C[C@H]1C[C@@H](c2ccncc2NC(=O)c2ccc(F)c(-c3c(F)cc(C4(O)CCOCC4)cc3F)n2)C[C@@H](N)[C@H]1OCCS(C)(=O)=O

>  <Name>  (175) 
nan

>  <Pocket>  (175) 
nan

>  <ATP_Site>  (175) 
nan

>  <Peripheral>  (175) 
nan

>  <Num_H_Atoms_ProtBoundConf>  (175) 
nan

>  <Num_Resolved_Atoms>  (175) 
nan

>  <Num_Not_Resolved_Atoms>  (175) 
nan

$$$$
CHEMBL3702070
     RDKit          3D

  0  0  0  0  0  0  0  0  0  0999 V3000
M  V30 BEGIN CTAB
M  V30 COUNTS 67 71 0 0 0
M  V30 BEGIN ATOM
M  V30 1 C 3.969437 1.253895 3.672290 0
M  V30 2 C 3.310331 2.020932 2.546973 0
M  V30 3 C 3.273168 1.103359 1.345094 0
M  V30 4 C 2.516285 -0.154532 1.545773 0
M  V30 5 C 1.087678 -0.063951 1.911347 0
M  V30 6 N 3.021024 1.793989 0.110116 0
M  V30 7 C 3.927277 2.112184 -0.862274 0
M  V30 8 C 5.304474 1.865029 -0.923158 0
M  V30 9 N 6.087311 2.246214 -1.966294 0
M  V30 10 C 5.544857 2.905293 -3.028052 0
M  V30 11 C 4.191153 3.160014 -2.990653 0
M  V30 12 C 3.387862 2.778853 -1.939840 0
M  V30 13 C 2.051896 2.891773 -1.632449 0
M  V30 14 C 1.011751 3.462394 -2.334034 0
M  V30 15 N -0.233206 3.448698 -1.823039 0
M  V30 16 C -0.435531 2.866809 -0.615608 0
M  V30 17 N -1.616256 2.682641 0.174407 0
M  V30 18 C -2.211115 1.384893 0.029158 0
M  V30 19 C -1.658062 0.452368 -0.835894 0
M  V30 20 C -2.216419 -0.822866 -0.962778 0
M  V30 21 C -3.326463 -1.140988 -0.215082 0
M  V30 22 N -3.942134 -2.416034 -0.286540 0
M  V30 23 C -3.599029 -3.465687 -1.196516 0
M  V30 24 C -3.257252 -4.719499 -0.399789 0
M  V30 25 C -3.210990 -4.404191 1.090355 0
M  V30 26 N -2.795316 -5.586167 1.782395 0
M  V30 27 C -1.475159 -6.006812 1.364100 0
M  V30 28 C -2.951279 -5.580055 3.199024 0
M  V30 29 C -4.426203 -3.749892 1.620482 0
M  V30 30 C -5.023845 -2.828915 0.583990 0
M  V30 31 N -3.801947 -0.199951 0.590124 0
M  V30 32 N -3.313150 1.017411 0.746818 0
M  V30 33 N 0.607198 2.323014 0.032829 0
M  V30 34 C 1.872951 2.294093 -0.405156 0
M  V30 35 H 4.794406 1.816970 4.158674 0
M  V30 36 H 4.450352 0.304091 3.291857 0
M  V30 37 H 3.260954 0.964136 4.462558 0
M  V30 38 H 2.351723 2.472054 2.799450 0
M  V30 39 H 4.017360 2.833306 2.281187 0
M  V30 40 H 4.371217 0.759759 1.262888 0
M  V30 41 H 3.018628 -0.816487 2.311146 0
M  V30 42 H 2.635972 -0.752502 0.592528 0
M  V30 43 H 0.792835 -0.892466 2.629381 0
M  V30 44 H 0.452936 -0.253469 1.023014 0
M  V30 45 H 0.755955 0.872825 2.378438 0
M  V30 46 H 5.791251 1.336377 -0.088319 0
M  V30 47 H 6.141671 3.222560 -3.873150 0
M  V30 48 H 3.739833 3.680242 -3.819413 0
M  V30 49 H 1.151425 3.929107 -3.293548 0
M  V30 50 H -2.056163 3.376730 0.809805 0
M  V30 51 H -0.790217 0.663043 -1.437008 0
M  V30 52 H -1.766541 -1.528261 -1.641956 0
M  V30 53 H -4.517798 -3.734843 -1.781876 0
M  V30 54 H -2.807290 -3.260011 -1.908796 0
M  V30 55 H -2.236604 -5.052148 -0.690486 0
M  V30 56 H -3.967322 -5.541330 -0.560138 0
M  V30 57 H -2.347660 -3.680231 1.188630 0
M  V30 58 H -0.899198 -5.097843 1.053860 0
M  V30 59 H -0.933353 -6.568060 2.163639 0
M  V30 60 H -1.582151 -6.616445 0.444612 0
M  V30 61 H -2.172871 -6.294205 3.598283 0
M  V30 62 H -2.710738 -4.625148 3.689193 0
M  V30 63 H -3.913955 -6.025930 3.503574 0
M  V30 64 H -4.171354 -3.123486 2.519365 0
M  V30 65 H -5.216288 -4.442925 1.966002 0
M  V30 66 H -5.823665 -3.391928 0.038384 0
M  V30 67 H -5.473891 -1.958014 1.104879 0
M  V30 END ATOM
M  V30 BEGIN BOND
M  V30 1 1 1 2
M  V30 2 1 2 3
M  V30 3 1 3 4
M  V30 4 1 4 5
M  V30 5 1 3 6
M  V30 6 1 6 7
M  V30 7 2 7 8
M  V30 8 1 8 9
M  V30 9 2 9 10
M  V30 10 1 10 11
M  V30 11 2 11 12
M  V30 12 1 12 13
M  V30 13 2 13 14
M  V30 14 1 14 15
M  V30 15 2 15 16
M  V30 16 1 16 17
M  V30 17 1 17 18
M  V30 18 2 18 19
M  V30 19 1 19 20
M  V30 20 2 20 21
M  V30 21 1 21 22
M  V30 22 1 22 23
M  V30 23 1 23 24
M  V30 24 1 24 25
M  V30 25 1 25 26
M  V30 26 1 26 27
M  V30 27 1 26 28
M  V30 28 1 25 29
M  V30 29 1 29 30
M  V30 30 1 21 31
M  V30 31 2 31 32
M  V30 32 1 16 33
M  V30 33 2 33 34
M  V30 34 1 34 6
M  V30 35 1 12 7
M  V30 36 1 34 13
M  V30 37 1 32 18
M  V30 38 1 30 22
M  V30 39 1 1 35
M  V30 40 1 1 36
M  V30 41 1 1 37
M  V30 42 1 2 38
M  V30 43 1 2 39
M  V30 44 1 3 40
M  V30 45 1 4 41
M  V30 46 1 4 42
M  V30 47 1 5 43
M  V30 48 1 5 44
M  V30 49 1 5 45
M  V30 50 1 8 46
M  V30 51 1 10 47
M  V30 52 1 11 48
M  V30 53 1 14 49
M  V30 54 1 17 50
M  V30 55 1 19 51
M  V30 56 1 20 52
M  V30 57 1 23 53
M  V30 58 1 23 54
M  V30 59 1 24 55
M  V30 60 1 24 56
M  V30 61 1 25 57
M  V30 62 1 27 58
M  V30 63 1 27 59
M  V30 64 1 27 60
M  V30 65 1 28 61
M  V30 66 1 28 62
M  V30 67 1 28 63
M  V30 68 1 29 64
M  V30 69 1 29 65
M  V30 70 1 30 66
M  V30 71 1 30 67
M  V30 END BOND
M  V30 END CTAB
M  END
>  <Dataset>  (176) 
ChEMBL_Kinases

>  <Ligand_Instance>  (176) 
nan

>  <PDB_ID>  (176) 
nan

>  <Standardized_SMILES>  (176) 
CCC(CC)n1c2cnccc2c2cnc(Nc3ccc(N4CCC(N(C)C)CC4)nn3)nc21

>  <Name>  (176) 
nan

>  <Pocket>  (176) 
nan

>  <ATP_Site>  (176) 
nan

>  <Peripheral>  (176) 
nan

>  <Num_H_Atoms_ProtBoundConf>  (176) 
nan

>  <Num_Resolved_Atoms>  (176) 
nan

>  <Num_Not_Resolved_Atoms>  (176) 
nan

$$$$
CHEMBL3687526
     RDKit          3D

  0  0  0  0  0  0  0  0  0  0999 V3000
M  V30 BEGIN CTAB
M  V30 COUNTS 71 74 0 0 0
M  V30 BEGIN ATOM
M  V30 1 C 2.543080 -3.475143 6.861919 0
M  V30 2 C 1.734353 -2.209616 7.064225 0
M  V30 3 O 1.869479 -1.450578 5.919007 0
M  V30 4 C 3.164297 -1.086988 5.612253 0
M  V30 5 C 3.180970 -0.269642 4.353283 0
M  V30 6 C 3.312538 -0.975558 3.173790 0
M  V30 7 C 3.332567 -0.252081 1.979517 0
M  V30 8 F 3.462933 -0.982815 0.850002 0
M  V30 9 C 3.219148 1.143095 2.035245 0
M  V30 10 C 3.257814 1.729959 0.699021 0
M  V30 11 N 2.039155 1.859461 0.144059 0
M  V30 12 C 1.821111 2.366459 -1.068241 0
M  V30 13 C 0.507460 2.517687 -1.686480 0
M  V30 14 O 0.311072 2.989839 -2.823085 0
M  V30 15 N -0.596383 2.083046 -0.900997 0
M  V30 16 C -2.014564 2.073317 -1.165119 0
M  V30 17 C -2.718374 3.200123 -0.796904 0
M  V30 18 N -4.045633 3.214850 -1.032994 0
M  V30 19 C -4.660247 2.161714 -1.609647 0
M  V30 20 C -3.908068 1.059016 -1.958406 0
M  V30 21 C -2.565579 0.933129 -1.768600 0
M  V30 22 C -1.741636 -0.240129 -2.133017 0 CFG=1
M  V30 23 C -1.710447 -1.188003 -0.972097 0
M  V30 24 C -1.288976 -2.577393 -1.384301 0 CFG=1
M  V30 25 N -1.211922 -3.423347 -0.234948 0
M  V30 26 C -2.293682 -3.171069 -2.351107 0 CFG=1
M  V30 27 S -3.667278 -3.778226 -1.420187 0
M  V30 28 C -4.764943 -4.786407 -2.362278 0
M  V30 29 O -4.472019 -2.717247 -0.741301 0
M  V30 30 O -3.101925 -4.637935 -0.317462 0
M  V30 31 C -2.631680 -2.240826 -3.450804 0 CFG=1
M  V30 32 C -4.112665 -2.216015 -3.794332 0
M  V30 33 C -2.023901 -0.883149 -3.422752 0
M  V30 34 C 2.892904 2.791173 -1.819307 0
M  V30 35 C 4.160227 2.676400 -1.287728 0
M  V30 36 C 4.374836 2.149893 -0.031305 0
M  V30 37 F 5.541450 1.976351 0.614459 0
M  V30 38 C 3.089619 1.803534 3.239164 0
M  V30 39 F 2.988832 3.149778 3.155239 0
M  V30 40 C 3.067627 1.108571 4.430117 0
M  V30 41 H 1.969795 -4.350301 7.247785 0
M  V30 42 H 2.738802 -3.664323 5.791070 0
M  V30 43 H 3.497049 -3.370547 7.444653 0
M  V30 44 H 0.652212 -2.485024 7.121783 0
M  V30 45 H 2.048931 -1.613645 7.926947 0
M  V30 46 H 3.546005 -0.483181 6.476027 0
M  V30 47 H 3.850356 -1.952854 5.551222 0
M  V30 48 H 3.397034 -2.051585 3.175393 0
M  V30 49 H -0.542574 1.670028 0.069186 0
M  V30 50 H -2.202039 4.030553 -0.336513 0
M  V30 51 H -5.737865 2.203545 -1.788194 0
M  V30 52 H -4.456661 0.269737 -2.405499 0
M  V30 53 H -0.686601 0.182106 -2.176524 0
M  V30 54 H -2.666331 -1.282264 -0.421908 0
M  V30 55 H -0.958366 -0.877982 -0.188436 0
M  V30 56 H -0.314957 -2.563752 -1.917266 0
M  V30 57 H -0.633498 -2.950502 0.501134 0
M  V30 58 H -0.790447 -4.356850 -0.495852 0
M  V30 59 H -1.775009 -4.117756 -2.698200 0
M  V30 60 H -4.277850 -5.269391 -3.241424 0
M  V30 61 H -5.694465 -4.239449 -2.632802 0
M  V30 62 H -5.142418 -5.665272 -1.759788 0
M  V30 63 H -2.210698 -2.731499 -4.391196 0
M  V30 64 H -4.416699 -3.136852 -4.332718 0
M  V30 65 H -4.776912 -2.047239 -2.957220 0
M  V30 66 H -4.218644 -1.400463 -4.569013 0
M  V30 67 H -1.056320 -0.901762 -4.018366 0
M  V30 68 H -2.670900 -0.230791 -4.067067 0
M  V30 69 H 2.799501 3.214920 -2.814227 0
M  V30 70 H 5.060048 2.974047 -1.782785 0
M  V30 71 H 2.965246 1.643684 5.361499 0
M  V30 END ATOM
M  V30 BEGIN BOND
M  V30 1 1 1 2
M  V30 2 1 2 3
M  V30 3 1 3 4
M  V30 4 1 4 5
M  V30 5 2 5 6
M  V30 6 1 6 7
M  V30 7 1 7 8
M  V30 8 2 7 9
M  V30 9 1 9 10
M  V30 10 2 10 11
M  V30 11 1 11 12
M  V30 12 1 12 13
M  V30 13 2 13 14
M  V30 14 1 13 15
M  V30 15 1 15 16
M  V30 16 2 16 17
M  V30 17 1 17 18
M  V30 18 2 18 19
M  V30 19 1 19 20
M  V30 20 2 20 21
M  V30 21 1 21 22
M  V30 22 1 22 23
M  V30 23 1 23 24
M  V30 24 1 24 25
M  V30 25 1 24 26
M  V30 26 1 26 27
M  V30 27 1 27 28
M  V30 28 2 27 29
M  V30 29 2 27 30
M  V30 30 1 26 31
M  V30 31 1 31 32
M  V30 32 1 31 33
M  V30 33 2 12 34
M  V30 34 1 34 35
M  V30 35 2 35 36
M  V30 36 1 36 37
M  V30 37 1 9 38
M  V30 38 1 38 39
M  V30 39 2 38 40
M  V30 40 1 40 5
M  V30 41 1 36 10
M  V30 42 1 21 16
M  V30 43 1 33 22
M  V30 44 1 1 41
M  V30 45 1 1 42
M  V30 46 1 1 43
M  V30 47 1 2 44
M  V30 48 1 2 45
M  V30 49 1 4 46
M  V30 50 1 4 47
M  V30 51 1 6 48
M  V30 52 1 15 49
M  V30 53 1 17 50
M  V30 54 1 19 51
M  V30 55 1 20 52
M  V30 56 1 22 53 CFG=3
M  V30 57 1 23 54
M  V30 58 1 23 55
M  V30 59 1 24 56 CFG=3
M  V30 60 1 25 57
M  V30 61 1 25 58
M  V30 62 1 26 59 CFG=3
M  V30 63 1 28 60
M  V30 64 1 28 61
M  V30 65 1 28 62
M  V30 66 1 31 63 CFG=3
M  V30 67 1 32 64
M  V30 68 1 32 65
M  V30 69 1 32 66
M  V30 70 1 33 67
M  V30 71 1 33 68
M  V30 72 1 34 69
M  V30 73 1 35 70
M  V30 74 1 40 71
M  V30 END BOND
M  V30 END CTAB
M  END
>  <Dataset>  (177) 
ChEMBL_Kinases

>  <Ligand_Instance>  (177) 
nan

>  <PDB_ID>  (177) 
nan

>  <Standardized_SMILES>  (177) 
CCOCc1cc(F)c(-c2nc(C(=O)Nc3cnccc3[C@H]3C[C@@H](N)[C@@H](S(C)(=O)=O)[C@@H](C)C3)ccc2F)c(F)c1

>  <Name>  (177) 
nan

>  <Pocket>  (177) 
nan

>  <ATP_Site>  (177) 
nan

>  <Peripheral>  (177) 
nan

>  <Num_H_Atoms_ProtBoundConf>  (177) 
nan

>  <Num_Resolved_Atoms>  (177) 
nan

>  <Num_Not_Resolved_Atoms>  (177) 
nan

$$$$
CHEMBL4442468
     RDKit          3D

  0  0  0  0  0  0  0  0  0  0999 V3000
M  V30 BEGIN CTAB
M  V30 COUNTS 53 57 0 0 0
M  V30 BEGIN ATOM
M  V30 1 C -0.337049 0.871248 6.340135 0
M  V30 2 S 1.462268 0.984411 6.127132 0
M  V30 3 C 1.831817 1.146587 4.377025 0
M  V30 4 N 3.098665 1.247342 3.975088 0
M  V30 5 C 3.151829 1.360299 2.622001 0
M  V30 6 C 4.192153 1.498325 1.611747 0
M  V30 7 C 4.262735 0.444837 0.702746 0
M  V30 8 C 5.176586 0.379402 -0.332251 0
M  V30 9 C 6.053027 1.453411 -0.425951 0
M  V30 10 F 6.979315 1.438470 -1.434716 0
M  V30 11 C 6.023903 2.525608 0.453243 0
M  V30 12 C 5.086018 2.539099 1.473041 0
M  V30 13 C 1.840124 1.324735 2.192512 0
M  V30 14 C 1.117175 1.389177 0.924999 0
M  V30 15 C 1.229437 2.545644 0.192761 0
M  V30 16 C 0.593735 2.718809 -1.015284 0
M  V30 17 N -0.163214 1.681296 -1.463076 0
M  V30 18 C -0.289816 0.537270 -0.764927 0
M  V30 19 N -1.098028 -0.507316 -1.294619 0
M  V30 20 C -2.483949 -0.729327 -1.092979 0
M  V30 21 O -3.220795 0.023574 -0.369547 0
M  V30 22 C -3.137162 -1.900319 -1.752671 0 CFG=2
M  V30 23 C -4.557651 -1.890921 -2.109127 0
M  V30 24 C -4.180634 -2.555954 -0.852566 0 CFG=1
M  V30 25 C -4.014070 -4.014725 -0.737908 0
M  V30 26 C -3.615183 -4.707159 -1.854862 0
M  V30 27 C -3.448024 -6.074490 -1.787923 0
M  V30 28 C -3.668445 -6.786142 -0.627205 0
M  V30 29 C -4.075112 -6.091667 0.517329 0
M  V30 30 C -4.243063 -4.712085 0.447206 0
M  V30 31 C 0.357928 0.369578 0.459095 0
M  V30 32 N 1.041691 1.193236 3.281516 0
M  V30 33 H -0.812297 0.358969 5.458641 0
M  V30 34 H -0.642226 0.439798 7.295757 0
M  V30 35 H -0.761133 1.914310 6.295298 0
M  V30 36 H 3.586462 -0.409975 0.754417 0
M  V30 37 H 5.203496 -0.453492 -1.019835 0
M  V30 38 H 6.705039 3.360039 0.380465 0
M  V30 39 H 4.985962 3.339061 2.213213 0
M  V30 40 H 1.818871 3.399727 0.504629 0
M  V30 41 H 0.678290 3.626172 -1.595745 0
M  V30 42 H -0.537157 -1.150748 -1.894931 0
M  V30 43 H -2.492413 -2.540669 -2.370763 0
M  V30 44 H -4.898345 -2.469767 -2.982048 0
M  V30 45 H -5.081856 -0.911919 -2.045107 0
M  V30 46 H -4.495474 -2.077127 0.070212 0
M  V30 47 H -3.405915 -4.308925 -2.818728 0
M  V30 48 H -3.137669 -6.695504 -2.616153 0
M  V30 49 H -3.539394 -7.875872 -0.559198 0
M  V30 50 H -4.244361 -6.665583 1.422419 0
M  V30 51 H -4.557149 -4.166126 1.326232 0
M  V30 52 H 0.253617 -0.551886 1.017580 0
M  V30 53 H -0.006494 1.123282 3.449282 0
M  V30 END ATOM
M  V30 BEGIN BOND
M  V30 1 1 1 2
M  V30 2 1 2 3
M  V30 3 2 3 4
M  V30 4 1 4 5
M  V30 5 1 5 6
M  V30 6 2 6 7
M  V30 7 1 7 8
M  V30 8 2 8 9
M  V30 9 1 9 10
M  V30 10 1 9 11
M  V30 11 2 11 12
M  V30 12 2 5 13
M  V30 13 1 13 14
M  V30 14 2 14 15
M  V30 15 1 15 16
M  V30 16 2 16 17
M  V30 17 1 17 18
M  V30 18 1 18 19
M  V30 19 1 19 20
M  V30 20 2 20 21
M  V30 21 1 20 22
M  V30 22 1 22 23
M  V30 23 1 23 24
M  V30 24 1 24 25
M  V30 25 2 25 26
M  V30 26 1 26 27
M  V30 27 2 27 28
M  V30 28 1 28 29
M  V30 29 2 29 30
M  V30 30 2 18 31
M  V30 31 1 13 32
M  V30 32 1 32 3
M  V30 33 1 12 6
M  V30 34 1 31 14
M  V30 35 1 24 22
M  V30 36 1 30 25
M  V30 37 1 1 33
M  V30 38 1 1 34
M  V30 39 1 1 35
M  V30 40 1 7 36
M  V30 41 1 8 37
M  V30 42 1 11 38
M  V30 43 1 12 39
M  V30 44 1 15 40
M  V30 45 1 16 41
M  V30 46 1 19 42
M  V30 47 1 22 43 CFG=3
M  V30 48 1 23 44
M  V30 49 1 23 45
M  V30 50 1 24 46 CFG=1
M  V30 51 1 26 47
M  V30 52 1 27 48
M  V30 53 1 28 49
M  V30 54 1 29 50
M  V30 55 1 30 51
M  V30 56 1 31 52
M  V30 57 1 32 53
M  V30 END BOND
M  V30 END CTAB
M  END
>  <Dataset>  (178) 
ChEMBL_Kinases

>  <Ligand_Instance>  (178) 
nan

>  <PDB_ID>  (178) 
nan

>  <Standardized_SMILES>  (178) 
CSc1nc(-c2ccc(F)cc2)c(-c2ccnc(NC(=O)[C@@H]3C[C@H]3c3ccccc3)c2)[nH]1

>  <Name>  (178) 
nan

>  <Pocket>  (178) 
nan

>  <ATP_Site>  (178) 
nan

>  <Peripheral>  (178) 
nan

>  <Num_H_Atoms_ProtBoundConf>  (178) 
nan

>  <Num_Resolved_Atoms>  (178) 
nan

>  <Num_Not_Resolved_Atoms>  (178) 
nan

$$$$
CHEMBL3702069
     RDKit          3D

  0  0  0  0  0  0  0  0  0  0999 V3000
M  V30 BEGIN CTAB
M  V30 COUNTS 57 61 0 0 0
M  V30 BEGIN ATOM
M  V30 1 C 2.220644 -0.372506 -0.304764 0
M  V30 2 C 3.264322 -0.083840 0.785583 0
M  V30 3 C 2.484850 0.535904 1.922874 0
M  V30 4 C 3.324198 0.897521 3.101235 0
M  V30 5 C 4.031359 -0.300860 3.698913 0
M  V30 6 N 1.632501 1.604205 1.457874 0
M  V30 7 C 1.910702 2.783551 0.903949 0
M  V30 8 C 3.116900 3.377510 0.602865 0
M  V30 9 N 3.251945 4.600802 0.030388 0
M  V30 10 C 2.145717 5.308908 -0.277020 0
M  V30 11 C 0.918154 4.768070 -0.000113 0
M  V30 12 C 0.794230 3.525181 0.581154 0
M  V30 13 C -0.275789 2.756017 0.959812 0
M  V30 14 C -1.641880 2.919865 0.903793 0
M  V30 15 N -2.447158 1.947313 1.365998 0
M  V30 16 C -1.938163 0.797652 1.891943 0
M  V30 17 N -2.741391 -0.280911 2.380484 0
M  V30 18 C -2.717578 -1.431634 1.512817 0
M  V30 19 C -1.946871 -1.439312 0.343914 0
M  V30 20 C -1.906612 -2.547378 -0.499070 0
M  V30 21 C -2.652511 -3.653377 -0.154045 0
M  V30 22 N -2.645592 -4.823349 -0.971507 0
M  V30 23 C -3.333328 -6.105914 -0.935672 0
M  V30 24 C -4.016108 -6.109146 -2.294260 0
M  V30 25 C -2.896292 -5.540251 -3.178617 0 CFG=1
M  V30 26 O -3.327849 -4.525153 -4.000472 0
M  V30 27 C -1.853421 -5.039317 -2.167769 0
M  V30 28 N -3.386081 -3.626121 0.971792 0
M  V30 29 N -3.401767 -2.568900 1.741979 0
M  V30 30 N -0.600899 0.673692 1.930041 0
M  V30 31 C 0.264122 1.605267 1.484804 0
M  V30 32 H 2.745118 -0.593780 -1.243829 0
M  V30 33 H 1.610145 -1.270912 0.006704 0
M  V30 34 H 1.563092 0.500117 -0.445447 0
M  V30 35 H 3.612237 -1.075631 1.111526 0
M  V30 36 H 4.036972 0.541863 0.354426 0
M  V30 37 H 1.807835 -0.301613 2.285307 0
M  V30 38 H 4.068062 1.661390 2.840853 0
M  V30 39 H 2.718313 1.353594 3.926972 0
M  V30 40 H 4.830076 0.064747 4.379579 0
M  V30 41 H 4.543733 -0.905099 2.929886 0
M  V30 42 H 3.348634 -0.926109 4.307228 0
M  V30 43 H 4.041377 2.871829 0.816770 0
M  V30 44 H 2.311304 6.276357 -0.730780 0
M  V30 45 H 0.021524 5.337270 -0.248449 0
M  V30 46 H -2.047847 3.830991 0.487014 0
M  V30 47 H -3.332497 -0.406777 3.222675 0
M  V30 48 H -1.359028 -0.582461 0.060893 0
M  V30 49 H -1.305492 -2.498769 -1.370780 0
M  V30 50 H -2.552564 -6.889532 -0.968573 0
M  V30 51 H -4.043305 -6.203632 -0.109109 0
M  V30 52 H -4.321144 -7.126302 -2.622662 0
M  V30 53 H -4.865049 -5.402842 -2.338961 0
M  V30 54 H -2.508051 -6.403928 -3.759281 0
M  V30 55 H -3.998665 -3.945835 -3.542966 0
M  V30 56 H -1.187314 -5.904185 -1.926151 0
M  V30 57 H -1.305806 -4.167991 -2.520657 0
M  V30 END ATOM
M  V30 BEGIN BOND
M  V30 1 1 1 2
M  V30 2 1 2 3
M  V30 3 1 3 4
M  V30 4 1 4 5
M  V30 5 1 3 6
M  V30 6 1 6 7
M  V30 7 2 7 8
M  V30 8 1 8 9
M  V30 9 2 9 10
M  V30 10 1 10 11
M  V30 11 2 11 12
M  V30 12 1 12 13
M  V30 13 2 13 14
M  V30 14 1 14 15
M  V30 15 2 15 16
M  V30 16 1 16 17
M  V30 17 1 17 18
M  V30 18 2 18 19
M  V30 19 1 19 20
M  V30 20 2 20 21
M  V30 21 1 21 22
M  V30 22 1 22 23
M  V30 23 1 23 24
M  V30 24 1 24 25
M  V30 25 1 25 26
M  V30 26 1 25 27
M  V30 27 1 21 28
M  V30 28 2 28 29
M  V30 29 1 16 30
M  V30 30 2 30 31
M  V30 31 1 31 6
M  V30 32 1 12 7
M  V30 33 1 31 13
M  V30 34 1 29 18
M  V30 35 1 27 22
M  V30 36 1 1 32
M  V30 37 1 1 33
M  V30 38 1 1 34
M  V30 39 1 2 35
M  V30 40 1 2 36
M  V30 41 1 3 37
M  V30 42 1 4 38
M  V30 43 1 4 39
M  V30 44 1 5 40
M  V30 45 1 5 41
M  V30 46 1 5 42
M  V30 47 1 8 43
M  V30 48 1 10 44
M  V30 49 1 11 45
M  V30 50 1 14 46
M  V30 51 1 17 47
M  V30 52 1 19 48
M  V30 53 1 20 49
M  V30 54 1 23 50
M  V30 55 1 23 51
M  V30 56 1 24 52
M  V30 57 1 24 53
M  V30 58 1 25 54 CFG=3
M  V30 59 1 26 55
M  V30 60 1 27 56
M  V30 61 1 27 57
M  V30 END BOND
M  V30 END CTAB
M  END
>  <Dataset>  (179) 
ChEMBL_Kinases

>  <Ligand_Instance>  (179) 
nan

>  <PDB_ID>  (179) 
nan

>  <Standardized_SMILES>  (179) 
CCC(CC)n1c2cnccc2c2cnc(Nc3ccc(N4CC[C@@H](O)C4)nn3)nc21

>  <Name>  (179) 
nan

>  <Pocket>  (179) 
nan

>  <ATP_Site>  (179) 
nan

>  <Peripheral>  (179) 
nan

>  <Num_H_Atoms_ProtBoundConf>  (179) 
nan

>  <Num_Resolved_Atoms>  (179) 
nan

>  <Num_Not_Resolved_Atoms>  (179) 
nan

$$$$
CHEMBL4442366
     RDKit          3D

  0  0  0  0  0  0  0  0  0  0999 V3000
M  V30 BEGIN CTAB
M  V30 COUNTS 37 39 0 0 0
M  V30 BEGIN ATOM
M  V30 1 C 1.202247 -6.461726 1.609934 0
M  V30 2 C 2.429359 -5.900241 2.249488 0
M  V30 3 O 3.442868 -6.679326 2.282365 0
M  V30 4 N 2.091059 -4.564802 2.666791 0
M  V30 5 C 2.580051 -3.565003 2.059938 0
M  V30 6 N 2.359561 -2.189930 2.332050 0
M  V30 7 C 2.574175 -1.338627 1.225642 0
M  V30 8 O 2.381346 -0.083510 1.439033 0
M  V30 9 C 2.984261 -1.975170 -0.016563 0
M  V30 10 C 2.792626 -1.495733 -1.259479 0
M  V30 11 C 2.102300 -0.218602 -1.401535 0
M  V30 12 C 2.319118 0.917570 -2.147319 0
M  V30 13 C 1.281670 1.760958 -1.808127 0
M  V30 14 C 0.478740 1.138436 -0.889702 0
M  V30 15 C -0.737298 1.587074 -0.214105 0
M  V30 16 C -1.272042 2.839959 -0.453008 0
M  V30 17 C -2.414442 3.239717 0.207219 0
M  V30 18 C -3.005361 2.371275 1.101286 0
M  V30 19 C -4.213644 2.666085 1.886347 0
M  V30 20 O -4.840914 1.959737 2.703448 0
M  V30 21 O -4.736957 3.949236 1.676345 0
M  V30 22 C -2.496151 1.117414 1.358533 0
M  V30 23 C -1.356885 0.725690 0.696784 0
M  V30 24 O 1.034747 -0.011777 -0.712809 0
M  V30 25 S 3.724359 -3.498404 0.643705 0
M  V30 26 H 0.290928 -6.329732 2.261801 0
M  V30 27 H 1.045596 -5.996263 0.611266 0
M  V30 28 H 1.286375 -7.559284 1.434570 0
M  V30 29 H 2.057238 -1.928626 3.323662 0
M  V30 30 H 3.192622 -2.146844 -2.024208 0
M  V30 31 H 3.158128 1.009659 -2.819005 0
M  V30 32 H 1.135713 2.749612 -2.206099 0
M  V30 33 H -0.821223 3.517036 -1.141224 0
M  V30 34 H -2.879473 4.193095 0.068862 0
M  V30 35 H -5.748242 4.117243 1.783784 0
M  V30 36 H -2.907097 0.384127 2.044784 0
M  V30 37 H -0.917707 -0.256751 0.868517 0
M  V30 END ATOM
M  V30 BEGIN BOND
M  V30 1 1 1 2
M  V30 2 2 2 3
M  V30 3 1 2 4
M  V30 4 2 4 5
M  V30 5 1 5 6
M  V30 6 1 6 7
M  V30 7 2 7 8
M  V30 8 1 7 9
M  V30 9 2 9 10
M  V30 10 1 10 11
M  V30 11 2 11 12
M  V30 12 1 12 13
M  V30 13 2 13 14
M  V30 14 1 14 15
M  V30 15 2 15 16
M  V30 16 1 16 17
M  V30 17 2 17 18
M  V30 18 1 18 19
M  V30 19 2 19 20
M  V30 20 1 19 21
M  V30 21 1 18 22
M  V30 22 2 22 23
M  V30 23 1 14 24
M  V30 24 1 9 25
M  V30 25 1 25 5
M  V30 26 1 24 11
M  V30 27 1 23 15
M  V30 28 1 1 26
M  V30 29 1 1 27
M  V30 30 1 1 28
M  V30 31 1 6 29
M  V30 32 1 10 30
M  V30 33 1 12 31
M  V30 34 1 13 32
M  V30 35 1 16 33
M  V30 36 1 17 34
M  V30 37 1 21 35
M  V30 38 1 22 36
M  V30 39 1 23 37
M  V30 END BOND
M  V30 END CTAB
M  END
>  <Dataset>  (180) 
ChEMBL_Kinases

>  <Ligand_Instance>  (180) 
nan

>  <PDB_ID>  (180) 
nan

>  <Standardized_SMILES>  (180) 
CC(=O)/N=C1/NC(=O)/C(=C\c2ccc(-c3ccc(C(=O)O)cc3)o2)S1

>  <Name>  (180) 
nan

>  <Pocket>  (180) 
nan

>  <ATP_Site>  (180) 
nan

>  <Peripheral>  (180) 
nan

>  <Num_H_Atoms_ProtBoundConf>  (180) 
nan

>  <Num_Resolved_Atoms>  (180) 
nan

>  <Num_Not_Resolved_Atoms>  (180) 
nan

$$$$
CHEMBL4442209
     RDKit          3D

  0  0  0  0  0  0  0  0  0  0999 V3000
M  V30 BEGIN CTAB
M  V30 COUNTS 48 50 0 0 0
M  V30 BEGIN ATOM
M  V30 1 C 4.364696 -2.706127 -0.655726 0
M  V30 2 C 3.213935 -3.200573 -1.467037 0
M  V30 3 N 2.929659 -4.436412 -1.934711 0
M  V30 4 N 1.795467 -4.374879 -2.602142 0
M  V30 5 C 1.313877 -3.100294 -2.585773 0
M  V30 6 C 0.062867 -2.621492 -3.224515 0
M  V30 7 C 2.214013 -2.331503 -1.859746 0
M  V30 8 C 2.015101 -0.901592 -1.637186 0
M  V30 9 C 2.491721 0.086232 -2.496303 0
M  V30 10 N 2.284706 1.392080 -2.249301 0
M  V30 11 C 1.603224 1.812423 -1.154487 0
M  V30 12 C 1.095220 0.893133 -0.248322 0
M  V30 13 C 0.356428 1.289209 0.948848 0
M  V30 14 C 0.659409 2.473338 1.587256 0
M  V30 15 C -0.089422 2.754393 2.702684 0
M  V30 16 C -1.084347 1.910894 3.162898 0
M  V30 17 C -1.792081 2.351987 4.368031 0
M  V30 18 N -1.485648 3.562818 5.036868 0
M  V30 19 O -2.732921 1.682092 4.903168 0
M  V30 20 C -1.392338 0.708858 2.515044 0
M  V30 21 O -2.407698 0.031276 3.138141 0
M  V30 22 C -2.869280 -1.193210 2.649548 0
M  V30 23 C -2.435758 -2.235323 3.695100 0
M  V30 24 C -4.359422 -1.231405 2.443460 0
M  V30 25 C -0.632930 0.445866 1.402347 0
M  V30 26 C 1.325062 -0.441266 -0.530855 0
M  V30 27 H 5.075243 -3.554583 -0.568204 0
M  V30 28 H 4.827569 -1.805307 -1.071422 0
M  V30 29 H 3.941198 -2.550741 0.372587 0
M  V30 30 H 1.348022 -5.209462 -3.072545 0
M  V30 31 H -0.159074 -3.335633 -4.068361 0
M  V30 32 H 0.191534 -1.608482 -3.678391 0
M  V30 33 H -0.816084 -2.663259 -2.555169 0
M  V30 34 H 3.031450 -0.282091 -3.361080 0
M  V30 35 H 1.434492 2.873591 -0.953272 0
M  V30 36 H 1.429657 3.094419 1.204647 0
M  V30 37 H 0.134278 3.682444 3.219138 0
M  V30 38 H -0.805896 3.769118 5.807001 0
M  V30 39 H -2.156272 4.198795 4.519319 0
M  V30 40 H -2.314487 -1.472825 1.739555 0
M  V30 41 H -3.176528 -2.340438 4.487364 0
M  V30 42 H -1.472155 -1.918969 4.170765 0
M  V30 43 H -2.183538 -3.210290 3.206316 0
M  V30 44 H -4.546036 -1.527302 1.389633 0
M  V30 45 H -4.764421 -2.054132 3.075702 0
M  V30 46 H -4.801799 -0.239320 2.659369 0
M  V30 47 H -0.852388 -0.458702 0.899612 0
M  V30 48 H 0.935721 -1.174568 0.164873 0
M  V30 END ATOM
M  V30 BEGIN BOND
M  V30 1 1 1 2
M  V30 2 2 2 3
M  V30 3 1 3 4
M  V30 4 1 4 5
M  V30 5 1 5 6
M  V30 6 2 5 7
M  V30 7 1 7 8
M  V30 8 2 8 9
M  V30 9 1 9 10
M  V30 10 2 10 11
M  V30 11 1 11 12
M  V30 12 1 12 13
M  V30 13 2 13 14
M  V30 14 1 14 15
M  V30 15 2 15 16
M  V30 16 1 16 17
M  V30 17 1 17 18
M  V30 18 2 17 19
M  V30 19 1 16 20
M  V30 20 1 20 21
M  V30 21 1 21 22
M  V30 22 1 22 23
M  V30 23 1 22 24
M  V30 24 2 20 25
M  V30 25 2 12 26
M  V30 26 1 7 2
M  V30 27 1 26 8
M  V30 28 1 25 13
M  V30 29 1 1 27
M  V30 30 1 1 28
M  V30 31 1 1 29
M  V30 32 1 4 30
M  V30 33 1 6 31
M  V30 34 1 6 32
M  V30 35 1 6 33
M  V30 36 1 9 34
M  V30 37 1 11 35
M  V30 38 1 14 36
M  V30 39 1 15 37
M  V30 40 1 18 38
M  V30 41 1 18 39
M  V30 42 1 22 40
M  V30 43 1 23 41
M  V30 44 1 23 42
M  V30 45 1 23 43
M  V30 46 1 24 44
M  V30 47 1 24 45
M  V30 48 1 24 46
M  V30 49 1 25 47
M  V30 50 1 26 48
M  V30 END BOND
M  V30 END CTAB
M  END
>  <Dataset>  (181) 
ChEMBL_Kinases

>  <Ligand_Instance>  (181) 
nan

>  <PDB_ID>  (181) 
nan

>  <Standardized_SMILES>  (181) 
Cc1n[nH]c(C)c1-c1cncc(-c2ccc(C(N)=O)c(OC(C)C)c2)c1

>  <Name>  (181) 
nan

>  <Pocket>  (181) 
nan

>  <ATP_Site>  (181) 
nan

>  <Peripheral>  (181) 
nan

>  <Num_H_Atoms_ProtBoundConf>  (181) 
nan

>  <Num_Resolved_Atoms>  (181) 
nan

>  <Num_Not_Resolved_Atoms>  (181) 
nan

$$$$
CHEMBL4442043
     RDKit          3D

  0  0  0  0  0  0  0  0  0  0999 V3000
M  V30 BEGIN CTAB
M  V30 COUNTS 81 85 0 0 0
M  V30 BEGIN ATOM
M  V30 1 C 2.767385 -5.821378 0.073627 0
M  V30 2 C 1.858418 -4.656751 0.420424 0
M  V30 3 C 0.576231 -4.856344 -0.403394 0
M  V30 4 C 2.450571 -3.372550 -0.066140 0
M  V30 5 C 3.411116 -2.722312 0.878567 0
M  V30 6 N 2.945950 -1.365386 1.090859 0
M  V30 7 C 3.692404 -0.180040 0.865935 0
M  V30 8 O 4.858543 -0.403678 0.446924 0
M  V30 9 C 3.137291 1.149405 1.104371 0
M  V30 10 C 1.843575 1.350733 1.535335 0
M  V30 11 C 1.426007 2.646981 1.721151 0
M  V30 12 C 2.177666 3.785034 1.518349 0
M  V30 13 N 1.689800 5.110954 1.712166 0
M  V30 14 C 0.296192 5.111758 2.046001 0
M  V30 15 N -0.282764 5.115015 3.265192 0
M  V30 16 C -1.613720 5.099041 3.425946 0
M  V30 17 C -2.438926 5.078698 2.322455 0
M  V30 18 N -3.848797 5.062924 2.372703 0 CHG=1 VAL=4
M  V30 19 O -4.529211 5.611404 1.474491 0
M  V30 20 O -4.364700 4.402134 3.477489 0 CHG=-1 VAL=1
M  V30 21 C -1.876615 5.075096 1.064408 0
M  V30 22 N -2.573154 5.038436 -0.199613 0
M  V30 23 C -2.645667 3.706118 -0.696176 0
M  V30 24 C -2.163214 2.613482 -0.031579 0
M  V30 25 C -2.219755 1.305380 -0.527428 0
M  V30 26 C -2.798558 1.079303 -1.772697 0
M  V30 27 C -2.830511 -0.291113 -2.257936 0
M  V30 28 O -2.339589 -1.165632 -1.511949 0
M  V30 29 N -3.366662 -0.710369 -3.494529 0
M  V30 30 C -3.454607 -1.987007 -4.073119 0
M  V30 31 C -3.010826 -3.171618 -3.535927 0
M  V30 32 C -3.110712 -4.406763 -4.138036 0
M  V30 33 C -3.696776 -4.473138 -5.371730 0
M  V30 34 C -4.157781 -3.314525 -5.952313 0
M  V30 35 C -4.034636 -2.113436 -5.312653 0
M  V30 36 Cl -4.656332 -0.695325 -6.142493 0
M  V30 37 C -3.283747 2.181551 -2.438502 0
M  V30 38 C -3.216787 3.459614 -1.929849 0
M  V30 39 N -0.518281 5.091969 0.960652 0
M  V30 40 C 3.481389 3.521412 1.082405 0
M  V30 41 C 3.961999 2.246472 0.876739 0
M  V30 42 C 3.554492 -3.528859 2.124440 0
M  V30 43 C 2.284805 -4.014471 2.724108 0
M  V30 44 C 1.469103 -2.945774 3.421032 0
M  V30 45 C 2.676373 -4.999300 3.839973 0
M  V30 46 N 1.442430 -4.658641 1.779049 0
M  V30 47 O 1.168872 -5.928516 2.152636 0 RAD=2 VAL=1
M  V30 48 H 2.947814 -6.498429 0.942888 0
M  V30 49 H 2.336508 -6.484265 -0.718791 0
M  V30 50 H 3.729025 -5.429770 -0.306592 0
M  V30 51 H -0.008217 -5.644388 0.149048 0
M  V30 52 H 0.806136 -5.136394 -1.436949 0
M  V30 53 H -0.023599 -3.917000 -0.313913 0
M  V30 54 H 3.039492 -3.639242 -0.993030 0
M  V30 55 H 1.656027 -2.665823 -0.447800 0
M  V30 56 H 4.453411 -2.619739 0.454618 0
M  V30 57 H 1.963237 -1.330308 1.437762 0
M  V30 58 H 1.183163 0.515704 1.719193 0
M  V30 59 H 0.398573 2.751480 2.062257 0
M  V30 60 H 2.388919 5.878273 1.587989 0
M  V30 61 H -2.040957 5.101486 4.398075 0
M  V30 62 H -2.985478 5.812183 -0.732949 0
M  V30 63 H -1.708692 2.729980 0.930359 0
M  V30 64 H -1.803884 0.500537 0.087852 0
M  V30 65 H -3.748964 0.113946 -4.024699 0
M  V30 66 H -2.541894 -3.164613 -2.565444 0
M  V30 67 H -2.726255 -5.305442 -3.631316 0
M  V30 68 H -3.762203 -5.469273 -5.829952 0
M  V30 69 H -4.616684 -3.372041 -6.919004 0
M  V30 70 H -3.738757 2.036264 -3.405789 0
M  V30 71 H -3.617868 4.283522 -2.508745 0
M  V30 72 H 4.129908 4.368435 0.904000 0
M  V30 73 H 4.970677 2.091093 0.541265 0
M  V30 74 H 4.148818 -2.918146 2.851279 0
M  V30 75 H 4.179184 -4.414067 1.884608 0
M  V30 76 H 1.040935 -3.319591 4.393368 0
M  V30 77 H 2.062655 -2.058780 3.718513 0
M  V30 78 H 0.556931 -2.670190 2.829501 0
M  V30 79 H 3.022119 -4.398047 4.709595 0
M  V30 80 H 1.808357 -5.575645 4.209394 0
M  V30 81 H 3.523762 -5.638635 3.533223 0
M  V30 END ATOM
M  V30 BEGIN BOND
M  V30 1 1 1 2
M  V30 2 1 2 3
M  V30 3 1 2 4
M  V30 4 1 4 5
M  V30 5 1 5 6
M  V30 6 1 6 7
M  V30 7 2 7 8
M  V30 8 1 7 9
M  V30 9 2 9 10
M  V30 10 1 10 11
M  V30 11 2 11 12
M  V30 12 1 12 13
M  V30 13 1 13 14
M  V30 14 2 14 15
M  V30 15 1 15 16
M  V30 16 2 16 17
M  V30 17 1 17 18
M  V30 18 2 18 19
M  V30 19 1 18 20
M  V30 20 1 17 21
M  V30 21 1 21 22
M  V30 22 1 22 23
M  V30 23 2 23 24
M  V30 24 1 24 25
M  V30 25 2 25 26
M  V30 26 1 26 27
M  V30 27 2 27 28
M  V30 28 1 27 29
M  V30 29 1 29 30
M  V30 30 2 30 31
M  V30 31 1 31 32
M  V30 32 2 32 33
M  V30 33 1 33 34
M  V30 34 2 34 35
M  V30 35 1 35 36
M  V30 36 1 26 37
M  V30 37 2 37 38
M  V30 38 2 21 39
M  V30 39 1 12 40
M  V30 40 2 40 41
M  V30 41 1 5 42
M  V30 42 1 42 43
M  V30 43 1 43 44
M  V30 44 1 43 45
M  V30 45 1 43 46
M  V30 46 1 46 47
M  V30 47 1 46 2
M  V30 48 1 41 9
M  V30 49 1 39 14
M  V30 50 1 38 23
M  V30 51 1 35 30
M  V30 52 1 1 48
M  V30 53 1 1 49
M  V30 54 1 1 50
M  V30 55 1 3 51
M  V30 56 1 3 52
M  V30 57 1 3 53
M  V30 58 1 4 54
M  V30 59 1 4 55
M  V30 60 1 5 56
M  V30 61 1 6 57
M  V30 62 1 10 58
M  V30 63 1 11 59
M  V30 64 1 13 60
M  V30 65 1 16 61
M  V30 66 1 22 62
M  V30 67 1 24 63
M  V30 68 1 25 64
M  V30 69 1 29 65
M  V30 70 1 31 66
M  V30 71 1 32 67
M  V30 72 1 33 68
M  V30 73 1 34 69
M  V30 74 1 37 70
M  V30 75 1 38 71
M  V30 76 1 40 72
M  V30 77 1 41 73
M  V30 78 1 42 74
M  V30 79 1 42 75
M  V30 80 1 44 76
M  V30 81 1 44 77
M  V30 82 1 44 78
M  V30 83 1 45 79
M  V30 84 1 45 80
M  V30 85 1 45 81
M  V30 END BOND
M  V30 END CTAB
M  END
>  <Dataset>  (182) 
ChEMBL_Kinases

>  <Ligand_Instance>  (182) 
nan

>  <PDB_ID>  (182) 
nan

>  <Standardized_SMILES>  (182) 
CC1(C)CC(NC(=O)c2ccc(Nc3ncc([N+](=O)[O-])c(Nc4ccc(C(=O)Nc5ccccc5Cl)cc4)n3)cc2)CC(C)(C)N1[O]

>  <Name>  (182) 
nan

>  <Pocket>  (182) 
nan

>  <ATP_Site>  (182) 
nan

>  <Peripheral>  (182) 
nan

>  <Num_H_Atoms_ProtBoundConf>  (182) 
nan

>  <Num_Resolved_Atoms>  (182) 
nan

>  <Num_Not_Resolved_Atoms>  (182) 
nan

$$$$
CHEMBL3687519
     RDKit          3D

  0  0  0  0  0  0  0  0  0  0999 V3000
M  V30 BEGIN CTAB
M  V30 COUNTS 76 79 0 0 0
M  V30 BEGIN ATOM
M  V30 1 C -0.578576 0.279298 5.232907 0
M  V30 2 C 0.837142 0.237252 4.714034 0
M  V30 3 C 1.260939 -1.223352 4.707114 0
M  V30 4 N 0.976770 0.867858 3.431400 0
M  V30 5 C 1.944623 1.859619 3.133214 0
M  V30 6 O 2.658952 2.081716 4.171361 0
M  V30 7 C 2.218421 2.598186 1.924889 0
M  V30 8 C 3.313072 3.456887 2.023580 0
M  V30 9 C 3.632349 4.238840 0.906694 0
M  V30 10 C 2.870941 4.133101 -0.220809 0
M  V30 11 F 3.313818 4.934181 -1.204204 0
M  V30 12 C 1.795171 3.316428 -0.375650 0
M  V30 13 C 0.991786 3.208537 -1.581336 0
M  V30 14 C 1.041932 4.141664 -2.588815 0
M  V30 15 C 0.275587 4.144476 -3.734397 0
M  V30 16 C -0.636796 3.085310 -3.866237 0
M  V30 17 N -1.438002 3.092922 -5.069446 0
M  V30 18 C -0.691970 2.140073 -2.854330 0
M  V30 19 C -1.680812 1.096334 -3.076013 0
M  V30 20 O -2.476119 1.254494 -4.066110 0
M  V30 21 N -1.904650 -0.095805 -2.352053 0
M  V30 22 C -2.839800 -1.121074 -2.507261 0
M  V30 23 C -3.944015 -1.080235 -3.328701 0
M  V30 24 N -4.860782 -2.041788 -3.528835 0
M  V30 25 C -4.708952 -3.215241 -2.850242 0
M  V30 26 C -3.625041 -3.325947 -2.010262 0
M  V30 27 C -2.702195 -2.315462 -1.830416 0
M  V30 28 C -1.559044 -2.588329 -0.925933 0 CFG=1
M  V30 29 C -1.784337 -2.116378 0.466002 0
M  V30 30 C -0.638599 -2.484526 1.359580 0 CFG=1
M  V30 31 N -1.156248 -3.260039 2.461840 0
M  V30 32 C 0.434069 -3.176459 0.596801 0 CFG=1
M  V30 33 S 1.876986 -3.536200 1.580140 0
M  V30 34 C 3.104128 -4.363893 0.581932 0
M  V30 35 O 2.502693 -2.181407 1.887705 0
M  V30 36 O 1.589537 -4.323726 2.795579 0
M  V30 37 C -0.048427 -4.413126 -0.131989 0 CFG=1
M  V30 38 C -0.135299 -5.632513 0.736027 0
M  V30 39 C -1.349081 -4.107336 -0.822853 0
M  V30 40 N 0.100021 2.231694 -1.779838 0
M  V30 41 C 1.513783 2.559867 0.750177 0
M  V30 42 H -0.624564 0.715364 6.249195 0
M  V30 43 H -1.201231 0.844889 4.499187 0
M  V30 44 H -1.040851 -0.748416 5.280336 0
M  V30 45 H 1.543330 0.728100 5.441921 0
M  V30 46 H 0.633665 -1.790440 4.022700 0
M  V30 47 H 1.037723 -1.627119 5.734154 0
M  V30 48 H 2.352180 -1.314303 4.489158 0
M  V30 49 H 0.356587 0.635123 2.600957 0
M  V30 50 H 3.942778 3.570003 2.900630 0
M  V30 51 H 4.499830 4.905646 1.011803 0
M  V30 52 H 1.695135 4.996801 -2.585567 0
M  V30 53 H 0.324168 4.884905 -4.520561 0
M  V30 54 H -1.241332 2.562052 -5.956306 0
M  V30 55 H -2.288982 3.695018 -5.021028 0
M  V30 56 H -1.207269 -0.169161 -1.557475 0
M  V30 57 H -4.173537 -0.204205 -3.912647 0
M  V30 58 H -5.450013 -4.001349 -3.007292 0
M  V30 59 H -3.595676 -4.285968 -1.524649 0
M  V30 60 H -0.683250 -2.123383 -1.447589 0
M  V30 61 H -1.990294 -1.027008 0.539870 0
M  V30 62 H -2.719508 -2.603253 0.822797 0
M  V30 63 H -0.173196 -1.555888 1.788452 0
M  V30 64 H -1.455761 -2.669331 3.267865 0
M  V30 65 H -1.960142 -3.866048 2.183827 0
M  V30 66 H 0.822457 -2.505500 -0.196784 0
M  V30 67 H 4.143474 -4.001925 0.819508 0
M  V30 68 H 2.922474 -4.022108 -0.468383 0
M  V30 69 H 3.049896 -5.465230 0.666693 0
M  V30 70 H 0.703970 -4.631017 -0.928022 0
M  V30 71 H -0.199820 -5.450774 1.807567 0
M  V30 72 H -1.043242 -6.254773 0.483539 0
M  V30 73 H 0.719153 -6.345077 0.578667 0
M  V30 74 H -1.482608 -4.609328 -1.780961 0
M  V30 75 H -2.162519 -4.464501 -0.123008 0
M  V30 76 H 0.685606 1.862472 0.773648 0
M  V30 END ATOM
M  V30 BEGIN BOND
M  V30 1 1 1 2
M  V30 2 1 2 3
M  V30 3 1 2 4
M  V30 4 1 4 5
M  V30 5 2 5 6
M  V30 6 1 5 7
M  V30 7 2 7 8
M  V30 8 1 8 9
M  V30 9 2 9 10
M  V30 10 1 10 11
M  V30 11 1 10 12
M  V30 12 1 12 13
M  V30 13 2 13 14
M  V30 14 1 14 15
M  V30 15 2 15 16
M  V30 16 1 16 17
M  V30 17 1 16 18
M  V30 18 1 18 19
M  V30 19 2 19 20
M  V30 20 1 19 21
M  V30 21 1 21 22
M  V30 22 2 22 23
M  V30 23 1 23 24
M  V30 24 2 24 25
M  V30 25 1 25 26
M  V30 26 2 26 27
M  V30 27 1 27 28
M  V30 28 1 28 29
M  V30 29 1 29 30
M  V30 30 1 30 31
M  V30 31 1 30 32
M  V30 32 1 32 33
M  V30 33 1 33 34
M  V30 34 2 33 35
M  V30 35 2 33 36
M  V30 36 1 32 37
M  V30 37 1 37 38
M  V30 38 1 37 39
M  V30 39 2 18 40
M  V30 40 2 12 41
M  V30 41 1 41 7
M  V30 42 1 40 13
M  V30 43 1 27 22
M  V30 44 1 39 28
M  V30 45 1 1 42
M  V30 46 1 1 43
M  V30 47 1 1 44
M  V30 48 1 2 45
M  V30 49 1 3 46
M  V30 50 1 3 47
M  V30 51 1 3 48
M  V30 52 1 4 49
M  V30 53 1 8 50
M  V30 54 1 9 51
M  V30 55 1 14 52
M  V30 56 1 15 53
M  V30 57 1 17 54
M  V30 58 1 17 55
M  V30 59 1 21 56
M  V30 60 1 23 57
M  V30 61 1 25 58
M  V30 62 1 26 59
M  V30 63 1 28 60 CFG=3
M  V30 64 1 29 61
M  V30 65 1 29 62
M  V30 66 1 30 63 CFG=1
M  V30 67 1 31 64
M  V30 68 1 31 65
M  V30 69 1 32 66 CFG=3
M  V30 70 1 34 67
M  V30 71 1 34 68
M  V30 72 1 34 69
M  V30 73 1 37 70 CFG=3
M  V30 74 1 38 71
M  V30 75 1 38 72
M  V30 76 1 38 73
M  V30 77 1 39 74
M  V30 78 1 39 75
M  V30 79 1 41 76
M  V30 END BOND
M  V30 END CTAB
M  END
>  <Dataset>  (183) 
ChEMBL_Kinases

>  <Ligand_Instance>  (183) 
nan

>  <PDB_ID>  (183) 
nan

>  <Standardized_SMILES>  (183) 
CC(C)NC(=O)c1ccc(F)c(-c2ccc(N)c(C(=O)Nc3cnccc3[C@H]3C[C@@H](N)[C@@H](S(C)(=O)=O)[C@@H](C)C3)n2)c1

>  <Name>  (183) 
nan

>  <Pocket>  (183) 
nan

>  <ATP_Site>  (183) 
nan

>  <Peripheral>  (183) 
nan

>  <Num_H_Atoms_ProtBoundConf>  (183) 
nan

>  <Num_Resolved_Atoms>  (183) 
nan

>  <Num_Not_Resolved_Atoms>  (183) 
nan

$$$$
CHEMBL3702068
     RDKit          3D

  0  0  0  0  0  0  0  0  0  0999 V3000
M  V30 BEGIN CTAB
M  V30 COUNTS 59 63 0 0 0
M  V30 BEGIN ATOM
M  V30 1 C 2.728030 0.473241 -0.367562 0
M  V30 2 C 3.659311 0.881652 0.779258 0
M  V30 3 C 2.814749 1.209315 1.957895 0
M  V30 4 C 3.591413 1.634221 3.180367 0
M  V30 5 C 4.537941 0.591456 3.669063 0
M  V30 6 N 1.737582 2.114666 1.622495 0
M  V30 7 C 1.777535 3.388814 1.194753 0
M  V30 8 C 2.832769 4.235216 0.939630 0
M  V30 9 N 2.725385 5.505588 0.508993 0
M  V30 10 C 1.467851 5.995966 0.308438 0
M  V30 11 C 0.352021 5.218389 0.538697 0
M  V30 12 C 0.523446 3.919954 0.980572 0
M  V30 13 C -0.373954 2.921108 1.291460 0
M  V30 14 C -1.747880 2.805964 1.291419 0
M  V30 15 N -2.353524 1.660185 1.659921 0
M  V30 16 C -1.592465 0.612340 2.034076 0
M  V30 17 N -2.035334 -0.680675 2.456739 0
M  V30 18 C -2.242194 -1.758216 1.550213 0
M  V30 19 C -2.668343 -3.011409 1.938285 0
M  V30 20 C -2.851619 -4.018317 1.012659 0
M  V30 21 C -2.623403 -3.835494 -0.335194 0
M  V30 22 N -2.788972 -4.820582 -1.347426 0
M  V30 23 C -2.502728 -4.445540 -2.723240 0
M  V30 24 C -2.506147 -5.714586 -3.540121 0
M  V30 25 N -1.620891 -6.673050 -2.907850 0
M  V30 26 C -2.097460 -7.070534 -1.606349 0
M  V30 27 C -3.220359 -6.167164 -1.117198 0
M  V30 28 C -2.199945 -2.562694 -0.656654 0
M  V30 29 N -2.017051 -1.572264 0.233393 0
M  V30 30 N -0.262713 0.725576 2.033523 0
M  V30 31 C 0.395388 1.861054 1.669966 0
M  V30 32 H 3.313335 -0.094339 -1.123838 0
M  V30 33 H 1.907801 -0.124448 0.077773 0
M  V30 34 H 2.279995 1.356089 -0.865522 0
M  V30 35 H 4.218846 -0.067772 1.021457 0
M  V30 36 H 4.311455 1.663032 0.399555 0
M  V30 37 H 2.331060 0.230320 2.259228 0
M  V30 38 H 4.163438 2.573750 3.038405 0
M  V30 39 H 2.894270 1.852175 4.016151 0
M  V30 40 H 5.592774 0.962895 3.740933 0
M  V30 41 H 4.583344 -0.334282 3.060590 0
M  V30 42 H 4.305126 0.230817 4.707820 0
M  V30 43 H 3.828461 3.899702 1.080647 0
M  V30 44 H 1.339089 7.020701 -0.040116 0
M  V30 45 H -0.663262 5.556484 0.396192 0
M  V30 46 H -2.339962 3.649433 0.990884 0
M  V30 47 H -2.227728 -0.888163 3.466440 0
M  V30 48 H -2.860847 -3.201823 2.991511 0
M  V30 49 H -3.184069 -4.978648 1.354546 0
M  V30 50 H -1.538864 -3.899901 -2.812348 0
M  V30 51 H -3.366815 -3.819090 -3.048735 0
M  V30 52 H -2.139968 -5.427771 -4.546451 0
M  V30 53 H -3.552743 -6.074858 -3.594607 0
M  V30 54 H -0.718982 -6.161734 -2.768734 0
M  V30 55 H -2.509294 -8.103280 -1.719711 0
M  V30 56 H -1.253738 -7.140269 -0.906102 0
M  V30 57 H -3.369542 -6.402383 -0.061516 0
M  V30 58 H -4.132928 -6.450677 -1.681112 0
M  V30 59 H -1.979822 -2.265077 -1.674014 0
M  V30 END ATOM
M  V30 BEGIN BOND
M  V30 1 1 1 2
M  V30 2 1 2 3
M  V30 3 1 3 4
M  V30 4 1 4 5
M  V30 5 1 3 6
M  V30 6 1 6 7
M  V30 7 2 7 8
M  V30 8 1 8 9
M  V30 9 2 9 10
M  V30 10 1 10 11
M  V30 11 2 11 12
M  V30 12 1 12 13
M  V30 13 2 13 14
M  V30 14 1 14 15
M  V30 15 2 15 16
M  V30 16 1 16 17
M  V30 17 1 17 18
M  V30 18 2 18 19
M  V30 19 1 19 20
M  V30 20 2 20 21
M  V30 21 1 21 22
M  V30 22 1 22 23
M  V30 23 1 23 24
M  V30 24 1 24 25
M  V30 25 1 25 26
M  V30 26 1 26 27
M  V30 27 1 21 28
M  V30 28 2 28 29
M  V30 29 1 16 30
M  V30 30 2 30 31
M  V30 31 1 31 6
M  V30 32 1 12 7
M  V30 33 1 31 13
M  V30 34 1 29 18
M  V30 35 1 27 22
M  V30 36 1 1 32
M  V30 37 1 1 33
M  V30 38 1 1 34
M  V30 39 1 2 35
M  V30 40 1 2 36
M  V30 41 1 3 37
M  V30 42 1 4 38
M  V30 43 1 4 39
M  V30 44 1 5 40
M  V30 45 1 5 41
M  V30 46 1 5 42
M  V30 47 1 8 43
M  V30 48 1 10 44
M  V30 49 1 11 45
M  V30 50 1 14 46
M  V30 51 1 17 47
M  V30 52 1 19 48
M  V30 53 1 20 49
M  V30 54 1 23 50
M  V30 55 1 23 51
M  V30 56 1 24 52
M  V30 57 1 24 53
M  V30 58 1 25 54
M  V30 59 1 26 55
M  V30 60 1 26 56
M  V30 61 1 27 57
M  V30 62 1 27 58
M  V30 63 1 28 59
M  V30 END BOND
M  V30 END CTAB
M  END
>  <Dataset>  (184) 
ChEMBL_Kinases

>  <Ligand_Instance>  (184) 
nan

>  <PDB_ID>  (184) 
nan

>  <Standardized_SMILES>  (184) 
CCC(CC)n1c2cnccc2c2cnc(Nc3ccc(N4CCNCC4)cn3)nc21

>  <Name>  (184) 
nan

>  <Pocket>  (184) 
nan

>  <ATP_Site>  (184) 
nan

>  <Peripheral>  (184) 
nan

>  <Num_H_Atoms_ProtBoundConf>  (184) 
nan

>  <Num_Resolved_Atoms>  (184) 
nan

>  <Num_Not_Resolved_Atoms>  (184) 
nan

$$$$
CHEMBL3687523
     RDKit          3D

  0  0  0  0  0  0  0  0  0  0999 V3000
M  V30 BEGIN CTAB
M  V30 COUNTS 65 69 0 0 0
M  V30 BEGIN ATOM
M  V30 1 C 3.130308 -0.299176 3.573826 0
M  V30 2 C 2.225099 -1.416528 3.043612 0 CFG=2
M  V30 3 C 2.674539 -1.686430 1.624532 0
M  V30 4 C 1.802421 -2.700926 0.933613 0 CFG=2
M  V30 5 C 2.313605 -3.032009 -0.376835 0
M  V30 6 C 3.225579 -4.091735 -0.530268 0
M  V30 7 C 3.795507 -4.510990 -1.714000 0
M  V30 8 N 3.459345 -3.861117 -2.818047 0
M  V30 9 C 2.607873 -2.846474 -2.788467 0
M  V30 10 C 2.047262 -2.440984 -1.593832 0
M  V30 11 N 1.160401 -1.360663 -1.641730 0
M  V30 12 C 1.237590 0.063069 -1.511507 0
M  V30 13 O 2.335344 0.646763 -1.292276 0
M  V30 14 C -0.033868 0.768917 -1.650784 0
M  V30 15 C -0.004200 2.122714 -1.534357 0
M  V30 16 C -1.195150 2.848083 -1.659938 0
M  V30 17 C -2.386095 2.193430 -1.899459 0
M  V30 18 F -3.594378 2.791592 -2.038224 0
M  V30 19 C -2.371341 0.821292 -2.010474 0
M  V30 20 C -3.520441 -0.045740 -2.261238 0
M  V30 21 C -4.242944 -0.550580 -1.224585 0
M  V30 22 F -3.856574 -0.218875 0.046653 0
M  V30 23 C -5.327420 -1.369090 -1.466060 0
M  V30 24 C -5.692413 -1.685708 -2.764173 0
M  V30 25 C -4.953830 -1.169821 -3.829106 0
M  V30 26 C -3.877201 -0.356853 -3.578273 0
M  V30 27 F -3.109841 0.182519 -4.578659 0
M  V30 28 N -1.204547 0.194286 -1.880537 0
M  V30 29 C 0.339109 -2.419098 1.053273 0
M  V30 30 C -0.035332 -2.127224 2.496301 0 CFG=2
M  V30 31 N -1.438872 -1.754366 2.480038 0
M  V30 32 C 0.787642 -1.016740 3.074096 0 CFG=2
M  V30 33 O 0.512894 0.183646 2.384644 0
M  V30 34 C -0.042859 1.294783 3.023045 0
M  V30 35 C -0.323016 2.479207 2.384638 0
M  V30 36 C -0.870493 3.561806 3.032348 0
M  V30 37 C -1.161835 3.487086 4.378219 0
M  V30 38 C -0.848794 2.253249 4.953645 0
M  V30 39 N -0.314017 1.182352 4.341603 0
M  V30 40 H 3.291793 0.463065 2.797663 0
M  V30 41 H 4.086488 -0.772086 3.876727 0
M  V30 42 H 2.646036 0.102288 4.484858 0
M  V30 43 H 2.366510 -2.287087 3.682099 0
M  V30 44 H 3.694500 -2.132109 1.703606 0
M  V30 45 H 2.786888 -0.730872 1.118397 0
M  V30 46 H 1.933555 -3.625869 1.583427 0
M  V30 47 H 3.515176 -4.642627 0.381013 0
M  V30 48 H 4.485794 -5.342881 -1.696708 0
M  V30 49 H 2.361119 -2.343605 -3.714279 0
M  V30 50 H 0.245579 -1.870541 -1.837175 0
M  V30 51 H 0.911131 2.652437 -1.348085 0
M  V30 52 H -1.248446 3.927557 -1.579068 0
M  V30 53 H -5.893833 -1.764849 -0.652976 0
M  V30 54 H -6.533586 -2.322741 -3.018150 0
M  V30 55 H -5.150863 -1.352808 -4.888570 0
M  V30 56 H -0.237507 -3.319701 0.758119 0
M  V30 57 H -0.050537 -1.581228 0.483682 0
M  V30 58 H 0.040423 -3.021030 3.144054 0
M  V30 59 H -1.929262 -1.892006 3.369504 0
M  V30 60 H -1.914605 -2.366519 1.751633 0
M  V30 61 H 0.499956 -0.933204 4.146737 0
M  V30 62 H -0.092975 2.530725 1.334028 0
M  V30 63 H -1.094499 4.501187 2.533710 0
M  V30 64 H -1.589737 4.262343 4.993799 0
M  V30 65 H -1.059217 2.140684 6.015487 0
M  V30 END ATOM
M  V30 BEGIN BOND
M  V30 1 1 1 2
M  V30 2 1 2 3
M  V30 3 1 3 4
M  V30 4 1 4 5
M  V30 5 2 5 6
M  V30 6 1 6 7
M  V30 7 2 7 8
M  V30 8 1 8 9
M  V30 9 2 9 10
M  V30 10 1 10 11
M  V30 11 1 11 12
M  V30 12 2 12 13
M  V30 13 1 12 14
M  V30 14 2 14 15
M  V30 15 1 15 16
M  V30 16 2 16 17
M  V30 17 1 17 18
M  V30 18 1 17 19
M  V30 19 1 19 20
M  V30 20 2 20 21
M  V30 21 1 21 22
M  V30 22 1 21 23
M  V30 23 2 23 24
M  V30 24 1 24 25
M  V30 25 2 25 26
M  V30 26 1 26 27
M  V30 27 2 19 28
M  V30 28 1 4 29
M  V30 29 1 29 30
M  V30 30 1 30 31
M  V30 31 1 30 32
M  V30 32 1 32 33
M  V30 33 1 33 34
M  V30 34 2 34 35
M  V30 35 1 35 36
M  V30 36 2 36 37
M  V30 37 1 37 38
M  V30 38 2 38 39
M  V30 39 1 32 2
M  V30 40 1 39 34
M  V30 41 1 10 5
M  V30 42 1 28 14
M  V30 43 1 26 20
M  V30 44 1 1 40
M  V30 45 1 1 41
M  V30 46 1 1 42
M  V30 47 1 2 43 CFG=1
M  V30 48 1 3 44
M  V30 49 1 3 45
M  V30 50 1 4 46 CFG=1
M  V30 51 1 6 47
M  V30 52 1 7 48
M  V30 53 1 9 49
M  V30 54 1 11 50
M  V30 55 1 15 51
M  V30 56 1 16 52
M  V30 57 1 23 53
M  V30 58 1 24 54
M  V30 59 1 25 55
M  V30 60 1 29 56
M  V30 61 1 29 57
M  V30 62 1 30 58 CFG=1
M  V30 63 1 31 59
M  V30 64 1 31 60
M  V30 65 1 32 61 CFG=1
M  V30 66 1 35 62
M  V30 67 1 36 63
M  V30 68 1 37 64
M  V30 69 1 38 65
M  V30 END BOND
M  V30 END CTAB
M  END
>  <Dataset>  (185) 
ChEMBL_Kinases

>  <Ligand_Instance>  (185) 
nan

>  <PDB_ID>  (185) 
nan

>  <Standardized_SMILES>  (185) 
C[C@@H]1C[C@H](c2ccncc2NC(=O)c2ccc(F)c(-c3c(F)cccc3F)n2)C[C@H](N)[C@@H]1Oc1ccccn1

>  <Name>  (185) 
nan

>  <Pocket>  (185) 
nan

>  <ATP_Site>  (185) 
nan

>  <Peripheral>  (185) 
nan

>  <Num_H_Atoms_ProtBoundConf>  (185) 
nan

>  <Num_Resolved_Atoms>  (185) 
nan

>  <Num_Not_Resolved_Atoms>  (185) 
nan

$$$$
CHEMBL4441708
     RDKit          3D

  0  0  0  0  0  0  0  0  0  0999 V3000
M  V30 BEGIN CTAB
M  V30 COUNTS 57 61 0 0 0
M  V30 BEGIN ATOM
M  V30 1 C 1.265218 -5.002152 2.868404 0
M  V30 2 C 2.119962 -4.004703 3.591928 0 CFG=1
M  V30 3 N 3.394255 -4.510739 3.990970 0
M  V30 4 C 4.471810 -3.784813 3.408009 0
M  V30 5 O 5.706185 -3.975924 3.555971 0
M  V30 6 C 3.832231 -2.759312 2.592320 0
M  V30 7 C 4.032917 -1.704651 1.750344 0
M  V30 8 C 2.841028 -1.156859 1.317716 0
M  V30 9 C 2.757278 -0.020710 0.411762 0
M  V30 10 C 3.878978 0.587399 -0.077449 0
M  V30 11 C 3.869599 1.664014 -0.936229 0
M  V30 12 C 2.642380 2.156722 -1.324736 0
M  V30 13 C 1.472346 1.582189 -0.862115 0
M  V30 14 C 0.239643 2.061930 -1.239411 0
M  V30 15 O 0.280119 3.057735 -2.033457 0
M  V30 16 N -0.950441 1.533954 -0.813523 0
M  V30 17 C -2.104016 2.237717 -1.285920 0
M  V30 18 C -2.621214 1.816132 -2.634941 0
M  V30 19 C -3.825846 2.633467 -3.116167 0
M  V30 20 C -4.014729 1.226184 -2.706242 0
M  V30 21 C -0.793798 0.501134 0.007681 0
M  V30 22 N -1.874704 -0.236725 0.540788 0
M  V30 23 C -2.754663 -1.382889 0.400614 0
M  V30 24 C -1.917330 -2.671124 0.616702 0
M  V30 25 C -3.789377 -1.358848 1.470772 0
M  V30 26 C -3.327613 -1.536018 -0.974673 0
M  V30 27 N 0.393085 0.009512 0.395684 0
M  V30 28 C 1.550874 0.507048 -0.004796 0
M  V30 29 N 1.916378 -1.915994 1.926594 0
M  V30 30 C 2.462278 -2.877662 2.691686 0
M  V30 31 H 0.205496 -4.695652 3.004320 0
M  V30 32 H 1.388707 -5.971386 3.391524 0
M  V30 33 H 1.444241 -5.044876 1.792422 0
M  V30 34 H 1.571196 -3.673962 4.493453 0
M  V30 35 H 3.578472 -5.328234 4.642411 0
M  V30 36 H 5.021136 -1.361566 1.473110 0
M  V30 37 H 4.865726 0.228288 0.205398 0
M  V30 38 H 4.791733 2.103717 -1.290388 0
M  V30 39 H 2.609665 2.993339 -1.991983 0
M  V30 40 H -2.973760 2.111123 -0.551889 0
M  V30 41 H -1.858961 3.326403 -1.351550 0
M  V30 42 H -1.904480 1.589184 -3.444642 0
M  V30 43 H -4.167038 3.472343 -2.476184 0
M  V30 44 H -3.935272 2.791885 -4.226934 0
M  V30 45 H -4.253537 0.425604 -3.407064 0
M  V30 46 H -4.537512 1.110058 -1.718825 0
M  V30 47 H -2.038173 0.386927 1.391756 0
M  V30 48 H -1.528266 -2.677549 1.663158 0
M  V30 49 H -1.094541 -2.711739 -0.113468 0
M  V30 50 H -2.616130 -3.509487 0.544379 0
M  V30 51 H -3.350733 -1.784203 2.391690 0
M  V30 52 H -4.645246 -1.990214 1.130989 0
M  V30 53 H -4.139819 -0.339423 1.735860 0
M  V30 54 H -2.667295 -1.108934 -1.733274 0
M  V30 55 H -4.347536 -1.114077 -0.977317 0
M  V30 56 H -3.397657 -2.636055 -1.236995 0
M  V30 57 H 0.888767 -1.781278 1.822852 0
M  V30 END ATOM
M  V30 BEGIN BOND
M  V30 1 1 1 2
M  V30 2 1 2 3
M  V30 3 1 3 4
M  V30 4 2 4 5
M  V30 5 1 4 6
M  V30 6 1 6 7
M  V30 7 2 7 8
M  V30 8 1 8 9
M  V30 9 2 9 10
M  V30 10 1 10 11
M  V30 11 2 11 12
M  V30 12 1 12 13
M  V30 13 1 13 14
M  V30 14 2 14 15
M  V30 15 1 14 16
M  V30 16 1 16 17
M  V30 17 1 17 18
M  V30 18 1 18 19
M  V30 19 1 19 20
M  V30 20 1 16 21
M  V30 21 1 21 22
M  V30 22 1 22 23
M  V30 23 1 23 24
M  V30 24 1 23 25
M  V30 25 1 23 26
M  V30 26 2 21 27
M  V30 27 1 27 28
M  V30 28 1 8 29
M  V30 29 1 29 30
M  V30 30 1 30 2
M  V30 31 2 30 6
M  V30 32 1 28 9
M  V30 33 2 28 13
M  V30 34 1 20 18
M  V30 35 1 1 31
M  V30 36 1 1 32
M  V30 37 1 1 33
M  V30 38 1 2 34 CFG=1
M  V30 39 1 3 35
M  V30 40 1 7 36
M  V30 41 1 10 37
M  V30 42 1 11 38
M  V30 43 1 12 39
M  V30 44 1 17 40
M  V30 45 1 17 41
M  V30 46 1 18 42
M  V30 47 1 19 43
M  V30 48 1 19 44
M  V30 49 1 20 45
M  V30 50 1 20 46
M  V30 51 1 22 47
M  V30 52 1 24 48
M  V30 53 1 24 49
M  V30 54 1 24 50
M  V30 55 1 25 51
M  V30 56 1 25 52
M  V30 57 1 25 53
M  V30 58 1 26 54
M  V30 59 1 26 55
M  V30 60 1 26 56
M  V30 61 1 29 57
M  V30 END BOND
M  V30 END CTAB
M  END
>  <Dataset>  (186) 
ChEMBL_Kinases

>  <Ligand_Instance>  (186) 
nan

>  <PDB_ID>  (186) 
nan

>  <Standardized_SMILES>  (186) 
C[C@H]1NC(=O)c2cc(-c3cccc4c(=O)n(CC5CC5)c(NC(C)(C)C)nc34)[nH]c21

>  <Name>  (186) 
nan

>  <Pocket>  (186) 
nan

>  <ATP_Site>  (186) 
nan

>  <Peripheral>  (186) 
nan

>  <Num_H_Atoms_ProtBoundConf>  (186) 
nan

>  <Num_Resolved_Atoms>  (186) 
nan

>  <Num_Not_Resolved_Atoms>  (186) 
nan

$$$$
CHEMBL3687522
     RDKit          3D

  0  0  0  0  0  0  0  0  0  0999 V3000
M  V30 BEGIN CTAB
M  V30 COUNTS 65 68 0 0 0
M  V30 BEGIN ATOM
M  V30 1 C 6.488750 -2.310629 4.874088 0
M  V30 2 O 5.711190 -2.593576 3.725985 0
M  V30 3 C 5.017898 -1.627808 3.008440 0
M  V30 4 C 4.351385 -2.228678 1.934254 0
M  V30 5 C 3.580631 -1.452645 1.061738 0
M  V30 6 F 2.911168 -1.962859 0.006300 0
M  V30 7 C 3.492061 -0.089309 1.281697 0
M  V30 8 C 2.697255 0.761676 0.394701 0
M  V30 9 N 1.393710 0.987287 0.659230 0
M  V30 10 C 0.609730 1.754592 -0.109922 0
M  V30 11 C -0.809613 1.996677 0.183620 0
M  V30 12 O -1.529927 2.712290 -0.538771 0
M  V30 13 N -1.336756 1.365531 1.352904 0
M  V30 14 C -2.661897 1.462526 1.817860 0
M  V30 15 C -2.960771 2.486586 2.691681 0
M  V30 16 N -4.192653 2.670183 3.196332 0
M  V30 17 C -5.182530 1.815049 2.832692 0
M  V30 18 C -4.869140 0.792412 1.955681 0
M  V30 19 C -3.605993 0.549996 1.396686 0
M  V30 20 C -3.339341 -0.546868 0.477193 0 CFG=1
M  V30 21 C -3.531422 -0.239935 -0.984825 0
M  V30 22 C -3.529821 -1.541214 -1.749777 0 CFG=1
M  V30 23 N -3.370656 -1.189719 -3.145081 0
M  V30 24 C -2.473148 -2.506985 -1.369936 0 CFG=1
M  V30 25 S -0.978062 -2.134803 -2.205778 0
M  V30 26 C -1.224286 -2.150090 -3.958578 0
M  V30 27 O -0.460080 -0.770107 -1.848263 0
M  V30 28 O 0.127082 -3.099555 -1.889635 0
M  V30 29 C -2.292787 -2.710866 0.117893 0 CFG=1
M  V30 30 C -1.089132 -3.560545 0.367125 0
M  V30 31 C -2.105771 -1.351909 0.751615 0
M  V30 32 C 1.141730 2.358137 -1.240181 0
M  V30 33 C 2.475878 2.126874 -1.510385 0
M  V30 34 C 3.298673 1.338581 -0.728134 0
M  V30 35 F 4.607989 1.132588 -1.024069 0
M  V30 36 C 4.155066 0.488091 2.345132 0
M  V30 37 F 4.106128 1.820034 2.612195 0
M  V30 38 C 4.917833 -0.266485 3.211980 0
M  V30 39 H 5.838601 -2.427292 5.786922 0
M  V30 40 H 6.827913 -1.257245 4.851532 0
M  V30 41 H 7.376220 -2.979597 4.947040 0
M  V30 42 H 4.343200 -3.270737 1.661115 0
M  V30 43 H -0.806268 0.742438 2.025532 0
M  V30 44 H -2.194198 3.186538 3.002185 0
M  V30 45 H -6.199100 1.889620 3.190074 0
M  V30 46 H -5.679524 0.104683 1.667486 0
M  V30 47 H -4.171301 -1.294822 0.669401 0
M  V30 48 H -4.549489 0.188997 -1.097753 0
M  V30 49 H -2.824063 0.454084 -1.425697 0
M  V30 50 H -4.532001 -2.051014 -1.685923 0
M  V30 51 H -3.286794 -0.176506 -3.318324 0
M  V30 52 H -4.089509 -1.631377 -3.770480 0
M  V30 53 H -2.810594 -3.527493 -1.739466 0
M  V30 54 H -0.318840 -2.592411 -4.471284 0
M  V30 55 H -1.361055 -1.136722 -4.383694 0
M  V30 56 H -2.055054 -2.810896 -4.249795 0
M  V30 57 H -3.226821 -3.185191 0.480814 0
M  V30 58 H -0.165624 -2.930482 0.420501 0
M  V30 59 H -1.165733 -3.987767 1.410687 0
M  V30 60 H -0.963883 -4.419235 -0.302686 0
M  V30 61 H -1.166576 -0.940476 0.351838 0
M  V30 62 H -2.063892 -1.471780 1.867203 0
M  V30 63 H 0.597142 2.989157 -1.918593 0
M  V30 64 H 2.944968 2.580864 -2.392011 0
M  V30 65 H 5.480836 0.062327 4.074480 0
M  V30 END ATOM
M  V30 BEGIN BOND
M  V30 1 1 1 2
M  V30 2 1 2 3
M  V30 3 2 3 4
M  V30 4 1 4 5
M  V30 5 1 5 6
M  V30 6 2 5 7
M  V30 7 1 7 8
M  V30 8 2 8 9
M  V30 9 1 9 10
M  V30 10 1 10 11
M  V30 11 2 11 12
M  V30 12 1 11 13
M  V30 13 1 13 14
M  V30 14 2 14 15
M  V30 15 1 15 16
M  V30 16 2 16 17
M  V30 17 1 17 18
M  V30 18 2 18 19
M  V30 19 1 19 20
M  V30 20 1 20 21
M  V30 21 1 21 22
M  V30 22 1 22 23
M  V30 23 1 22 24
M  V30 24 1 24 25
M  V30 25 1 25 26
M  V30 26 2 25 27
M  V30 27 2 25 28
M  V30 28 1 24 29
M  V30 29 1 29 30
M  V30 30 1 29 31
M  V30 31 2 10 32
M  V30 32 1 32 33
M  V30 33 2 33 34
M  V30 34 1 34 35
M  V30 35 1 7 36
M  V30 36 1 36 37
M  V30 37 2 36 38
M  V30 38 1 38 3
M  V30 39 1 34 8
M  V30 40 1 19 14
M  V30 41 1 31 20
M  V30 42 1 1 39
M  V30 43 1 1 40
M  V30 44 1 1 41
M  V30 45 1 4 42
M  V30 46 1 13 43
M  V30 47 1 15 44
M  V30 48 1 17 45
M  V30 49 1 18 46
M  V30 50 1 20 47 CFG=1
M  V30 51 1 21 48
M  V30 52 1 21 49
M  V30 53 1 22 50 CFG=3
M  V30 54 1 23 51
M  V30 55 1 23 52
M  V30 56 1 24 53 CFG=3
M  V30 57 1 26 54
M  V30 58 1 26 55
M  V30 59 1 26 56
M  V30 60 1 29 57 CFG=1
M  V30 61 1 30 58
M  V30 62 1 30 59
M  V30 63 1 30 60
M  V30 64 1 31 61
M  V30 65 1 31 62
M  V30 66 1 32 63
M  V30 67 1 33 64
M  V30 68 1 38 65
M  V30 END BOND
M  V30 END CTAB
M  END
>  <Dataset>  (187) 
ChEMBL_Kinases

>  <Ligand_Instance>  (187) 
nan

>  <PDB_ID>  (187) 
nan

>  <Standardized_SMILES>  (187) 
COc1cc(F)c(-c2nc(C(=O)Nc3cnccc3[C@H]3C[C@@H](N)[C@@H](S(C)(=O)=O)[C@@H](C)C3)ccc2F)c(F)c1

>  <Name>  (187) 
nan

>  <Pocket>  (187) 
nan

>  <ATP_Site>  (187) 
nan

>  <Peripheral>  (187) 
nan

>  <Num_H_Atoms_ProtBoundConf>  (187) 
nan

>  <Num_Resolved_Atoms>  (187) 
nan

>  <Num_Not_Resolved_Atoms>  (187) 
nan

$$$$
CHEMBL4441602
     RDKit          3D

  0  0  0  0  0  0  0  0  0  0999 V3000
M  V30 BEGIN CTAB
M  V30 COUNTS 47 49 0 0 0
M  V30 BEGIN ATOM
M  V30 1 C -0.396121 -4.741142 2.269409 0
M  V30 2 C -0.585134 -4.132171 0.887647 0
M  V30 3 C -0.371065 -5.230278 -0.124092 0
M  V30 4 O -1.787738 -3.468096 0.765268 0
M  V30 5 C -2.015314 -2.130408 0.504417 0
M  V30 6 C -1.070888 -1.144307 0.304006 0
M  V30 7 C -1.423012 0.166183 0.049328 0
M  V30 8 C -0.374741 1.169010 -0.155400 0
M  V30 9 C -0.606674 2.252481 -1.004658 0
M  V30 10 N 0.350028 3.183049 -1.202216 0
M  V30 11 C 1.560795 3.109287 -0.594668 0
M  V30 12 C 1.756263 2.026006 0.237569 0
M  V30 13 N 3.023791 1.939234 0.880370 0
M  V30 14 C 4.185523 2.800106 0.820937 0
M  V30 15 C 4.369953 3.141593 2.296619 0
M  V30 16 C 4.247190 1.756510 2.903942 0
M  V30 17 C 3.579672 0.970197 1.804697 0
M  V30 18 C 0.839202 1.040095 0.491399 0
M  V30 19 C -2.743530 0.564364 -0.019225 0
M  V30 20 C -3.699563 -0.411682 0.179250 0
M  V30 21 C -3.330409 -1.716295 0.432665 0
M  V30 22 C -4.400727 -2.681397 0.630162 0
M  V30 23 N -5.775975 -2.329465 0.571826 0
M  V30 24 O -4.229318 -3.904051 0.868498 0
M  V30 25 H -0.691167 -3.976203 3.022981 0
M  V30 26 H -0.956055 -5.672284 2.393598 0
M  V30 27 H 0.688402 -4.942704 2.402900 0
M  V30 28 H 0.253605 -3.421130 0.748314 0
M  V30 29 H 0.133222 -4.853664 -1.046934 0
M  V30 30 H 0.353798 -5.947493 0.314525 0
M  V30 31 H -1.287861 -5.788257 -0.354017 0
M  V30 32 H -0.036572 -1.453011 0.357454 0
M  V30 33 H -1.538166 2.371177 -1.514543 0
M  V30 34 H 2.279898 3.877518 -0.790408 0
M  V30 35 H 4.052262 3.687502 0.204163 0
M  V30 36 H 5.058508 2.181272 0.535987 0
M  V30 37 H 5.340875 3.596959 2.519824 0
M  V30 38 H 3.488604 3.729529 2.637366 0
M  V30 39 H 3.624672 1.809624 3.815657 0
M  V30 40 H 5.255059 1.346987 3.171721 0
M  V30 41 H 4.252595 0.234141 1.328675 0
M  V30 42 H 2.765355 0.369665 2.281403 0
M  V30 43 H 1.058230 0.208009 1.162668 0
M  V30 44 H -3.040962 1.576682 -0.215775 0
M  V30 45 H -4.738349 -0.088089 0.123316 0
M  V30 46 H -6.404213 -1.507494 0.613410 0
M  V30 47 H -6.423862 -1.511833 0.611560 0
M  V30 END ATOM
M  V30 BEGIN BOND
M  V30 1 1 1 2
M  V30 2 1 2 3
M  V30 3 1 2 4
M  V30 4 1 4 5
M  V30 5 2 5 6
M  V30 6 1 6 7
M  V30 7 1 7 8
M  V30 8 2 8 9
M  V30 9 1 9 10
M  V30 10 2 10 11
M  V30 11 1 11 12
M  V30 12 1 12 13
M  V30 13 1 13 14
M  V30 14 1 14 15
M  V30 15 1 15 16
M  V30 16 1 16 17
M  V30 17 2 12 18
M  V30 18 2 7 19
M  V30 19 1 19 20
M  V30 20 2 20 21
M  V30 21 1 21 22
M  V30 22 1 22 23
M  V30 23 2 22 24
M  V30 24 1 21 5
M  V30 25 1 18 8
M  V30 26 1 17 13
M  V30 27 1 1 25
M  V30 28 1 1 26
M  V30 29 1 1 27
M  V30 30 1 2 28
M  V30 31 1 3 29
M  V30 32 1 3 30
M  V30 33 1 3 31
M  V30 34 1 6 32
M  V30 35 1 9 33
M  V30 36 1 11 34
M  V30 37 1 14 35
M  V30 38 1 14 36
M  V30 39 1 15 37
M  V30 40 1 15 38
M  V30 41 1 16 39
M  V30 42 1 16 40
M  V30 43 1 17 41
M  V30 44 1 17 42
M  V30 45 1 18 43
M  V30 46 1 19 44
M  V30 47 1 20 45
M  V30 48 1 23 46
M  V30 49 1 23 47
M  V30 END BOND
M  V30 END CTAB
M  END
>  <Dataset>  (188) 
ChEMBL_Kinases

>  <Ligand_Instance>  (188) 
nan

>  <PDB_ID>  (188) 
nan

>  <Standardized_SMILES>  (188) 
CC(C)Oc1cc(-c2cncc(N3CCCC3)c2)ccc1C(N)=O

>  <Name>  (188) 
nan

>  <Pocket>  (188) 
nan

>  <ATP_Site>  (188) 
nan

>  <Peripheral>  (188) 
nan

>  <Num_H_Atoms_ProtBoundConf>  (188) 
nan

>  <Num_Resolved_Atoms>  (188) 
nan

>  <Num_Not_Resolved_Atoms>  (188) 
nan

$$$$
CHEMBL3687521
     RDKit          3D

  0  0  0  0  0  0  0  0  0  0999 V3000
M  V30 BEGIN CTAB
M  V30 COUNTS 78 81 0 0 0
M  V30 BEGIN ATOM
M  V30 1 C 0.355836 -5.658747 0.833313 0
M  V30 2 C 1.862350 -5.498048 0.711819 0
M  V30 3 C 2.455826 -5.588776 2.086758 0
M  V30 4 N 2.209217 -4.300649 0.015576 0
M  V30 5 C 2.886969 -4.247276 -1.232369 0
M  V30 6 O 3.177217 -5.371725 -1.710488 0
M  V30 7 C 3.250548 -3.040257 -1.959652 0
M  V30 8 C 3.898030 -3.224902 -3.148361 0
M  V30 9 C 4.264974 -2.106071 -3.877890 0
M  V30 10 C 3.955816 -0.870777 -3.362749 0
M  V30 11 F 4.339859 0.176919 -4.119973 0
M  V30 12 C 3.316631 -0.631166 -2.191805 0
M  V30 13 C 2.969109 0.645793 -1.606844 0
M  V30 14 C 3.194290 1.894953 -2.085568 0
M  V30 15 C 2.839911 3.078675 -1.483738 0
M  V30 16 C 2.188766 3.027679 -0.270748 0
M  V30 17 N 1.793844 4.189445 0.407057 0
M  V30 18 C 1.952457 1.765034 0.229299 0
M  V30 19 C 1.269211 1.651226 1.507974 0
M  V30 20 O 0.927882 2.718760 2.095709 0
M  V30 21 N 0.998044 0.352016 2.072759 0
M  V30 22 C 0.347515 0.062921 3.299057 0
M  V30 23 C 1.161432 -0.019083 4.405987 0
M  V30 24 N 0.623816 -0.291559 5.613692 0
M  V30 25 C -0.706556 -0.478159 5.707759 0
M  V30 26 C -1.509484 -0.392807 4.589385 0
M  V30 27 C -1.015249 -0.113662 3.308534 0
M  V30 28 C -1.892134 -0.031688 2.139066 0 CFG=1
M  V30 29 C -2.450222 1.328574 1.847089 0
M  V30 30 C -2.723158 1.572093 0.395488 0 CFG=1
M  V30 31 N -1.552123 2.165663 -0.270580 0
M  V30 32 C -3.251886 0.373802 -0.333190 0 CFG=1
M  V30 33 O -3.202285 0.651201 -1.693472 0
M  V30 34 C -4.430240 0.722830 -2.296916 0
M  V30 35 C -5.360531 1.764117 -1.767463 0
M  V30 36 C -6.604355 1.647566 -2.567650 0
M  V30 37 N -7.590591 1.572822 -3.192720 0
M  V30 38 C -2.608449 -0.924741 0.020505 0 CFG=1
M  V30 39 C -2.142788 -1.712955 -1.177714 0
M  V30 40 C -1.376912 -0.639334 0.881301 0
M  V30 41 N 2.330610 0.648629 -0.420019 0
M  V30 42 C 2.967278 -1.775679 -1.493563 0
M  V30 43 H -0.086101 -4.740452 1.278445 0
M  V30 44 H -0.072571 -5.835916 -0.195231 0
M  V30 45 H 0.157125 -6.576803 1.417895 0
M  V30 46 H 2.204919 -6.380171 0.130391 0
M  V30 47 H 1.830785 -6.308863 2.656462 0
M  V30 48 H 3.482809 -6.011170 2.061861 0
M  V30 49 H 2.413938 -4.622800 2.639402 0
M  V30 50 H 1.941492 -3.402769 0.462989 0
M  V30 51 H 4.139759 -4.199584 -3.550746 0
M  V30 52 H 4.777928 -2.230855 -4.820726 0
M  V30 53 H 3.699251 1.989472 -3.028779 0
M  V30 54 H 3.056603 4.026621 -1.932594 0
M  V30 55 H 0.970693 4.734628 0.095677 0
M  V30 56 H 2.397929 4.442480 1.235491 0
M  V30 57 H 1.320494 -0.482156 1.509412 0
M  V30 58 H 2.235081 0.124029 4.374726 0
M  V30 59 H -1.191598 -0.701628 6.664398 0
M  V30 60 H -2.590488 -0.550862 4.703988 0
M  V30 61 H -2.800045 -0.654913 2.406907 0
M  V30 62 H -1.742353 2.096441 2.218440 0
M  V30 63 H -3.392082 1.519354 2.440424 0
M  V30 64 H -3.502970 2.360364 0.329337 0
M  V30 65 H -1.307020 3.009230 0.295108 0
M  V30 66 H -1.837490 2.542761 -1.201490 0
M  V30 67 H -4.337961 0.270980 -0.039411 0
M  V30 68 H -4.248447 0.959205 -3.366317 0
M  V30 69 H -4.986615 -0.234855 -2.297041 0
M  V30 70 H -5.006013 2.805946 -1.924209 0
M  V30 71 H -5.669360 1.654558 -0.727953 0
M  V30 72 H -3.253729 -1.586799 0.626940 0
M  V30 73 H -2.926042 -2.430037 -1.533547 0
M  V30 74 H -1.732629 -1.077176 -1.976126 0
M  V30 75 H -1.305840 -2.369145 -0.829057 0
M  V30 76 H -0.743142 -0.009909 0.254959 0
M  V30 77 H -0.938924 -1.643163 1.089273 0
M  V30 78 H 2.456991 -1.729169 -0.552036 0
M  V30 END ATOM
M  V30 BEGIN BOND
M  V30 1 1 1 2
M  V30 2 1 2 3
M  V30 3 1 2 4
M  V30 4 1 4 5
M  V30 5 2 5 6
M  V30 6 1 5 7
M  V30 7 2 7 8
M  V30 8 1 8 9
M  V30 9 2 9 10
M  V30 10 1 10 11
M  V30 11 1 10 12
M  V30 12 1 12 13
M  V30 13 2 13 14
M  V30 14 1 14 15
M  V30 15 2 15 16
M  V30 16 1 16 17
M  V30 17 1 16 18
M  V30 18 1 18 19
M  V30 19 2 19 20
M  V30 20 1 19 21
M  V30 21 1 21 22
M  V30 22 2 22 23
M  V30 23 1 23 24
M  V30 24 2 24 25
M  V30 25 1 25 26
M  V30 26 2 26 27
M  V30 27 1 27 28
M  V30 28 1 28 29
M  V30 29 1 29 30
M  V30 30 1 30 31
M  V30 31 1 30 32
M  V30 32 1 32 33
M  V30 33 1 33 34
M  V30 34 1 34 35
M  V30 35 1 35 36
M  V30 36 3 36 37
M  V30 37 1 32 38
M  V30 38 1 38 39
M  V30 39 1 38 40
M  V30 40 2 18 41
M  V30 41 2 12 42
M  V30 42 1 42 7
M  V30 43 1 41 13
M  V30 44 1 27 22
M  V30 45 1 40 28
M  V30 46 1 1 43
M  V30 47 1 1 44
M  V30 48 1 1 45
M  V30 49 1 2 46
M  V30 50 1 3 47
M  V30 51 1 3 48
M  V30 52 1 3 49
M  V30 53 1 4 50
M  V30 54 1 8 51
M  V30 55 1 9 52
M  V30 56 1 14 53
M  V30 57 1 15 54
M  V30 58 1 17 55
M  V30 59 1 17 56
M  V30 60 1 21 57
M  V30 61 1 23 58
M  V30 62 1 25 59
M  V30 63 1 26 60
M  V30 64 1 28 61 CFG=1
M  V30 65 1 29 62
M  V30 66 1 29 63
M  V30 67 1 30 64 CFG=1
M  V30 68 1 31 65
M  V30 69 1 31 66
M  V30 70 1 32 67 CFG=1
M  V30 71 1 34 68
M  V30 72 1 34 69
M  V30 73 1 35 70
M  V30 74 1 35 71
M  V30 75 1 38 72 CFG=1
M  V30 76 1 39 73
M  V30 77 1 39 74
M  V30 78 1 39 75
M  V30 79 1 40 76
M  V30 80 1 40 77
M  V30 81 1 42 78
M  V30 END BOND
M  V30 END CTAB
M  END
>  <Dataset>  (189) 
ChEMBL_Kinases

>  <Ligand_Instance>  (189) 
nan

>  <PDB_ID>  (189) 
nan

>  <Standardized_SMILES>  (189) 
CC(C)NC(=O)c1ccc(F)c(-c2ccc(N)c(C(=O)Nc3cnccc3[C@H]3C[C@@H](N)[C@@H](OCCC#N)[C@@H](C)C3)n2)c1

>  <Name>  (189) 
nan

>  <Pocket>  (189) 
nan

>  <ATP_Site>  (189) 
nan

>  <Peripheral>  (189) 
nan

>  <Num_H_Atoms_ProtBoundConf>  (189) 
nan

>  <Num_Resolved_Atoms>  (189) 
nan

>  <Num_Not_Resolved_Atoms>  (189) 
nan

$$$$
CHEMBL4441119
     RDKit          3D

  0  0  0  0  0  0  0  0  0  0999 V3000
M  V30 BEGIN CTAB
M  V30 COUNTS 74 78 0 0 0
M  V30 BEGIN ATOM
M  V30 1 C 4.822768 -2.197614 4.506359 0
M  V30 2 C 4.580945 -2.281398 3.022775 0
M  V30 3 C 4.114317 -3.455968 2.540090 0
M  V30 4 C 3.655868 -3.476670 1.227746 0
M  V30 5 C 3.735773 -2.268922 0.498675 0
M  V30 6 N 3.182149 -1.914962 -0.761591 0
M  V30 7 N 3.240477 -1.577945 -2.016391 0
M  V30 8 C 2.069284 -1.225041 -2.471243 0
M  V30 9 C 1.616527 -0.761793 -3.848663 0
M  V30 10 C 0.695854 -1.858893 -4.404794 0
M  V30 11 C 2.795160 -0.541380 -4.756696 0
M  V30 12 C 0.799419 0.476551 -3.794904 0
M  V30 13 C 1.074920 -1.297859 -1.548510 0
M  V30 14 C 1.829342 -1.761344 -0.405157 0
M  V30 15 N 0.913217 -1.922420 0.757270 0
M  V30 16 C 0.802992 -1.534582 2.104052 0
M  V30 17 O 1.622465 -0.800628 2.745076 0
M  V30 18 C -0.366200 -2.044604 2.813341 0
M  V30 19 C -0.862581 -3.201008 3.342125 0
M  V30 20 C -2.180002 -3.368515 3.694297 0
M  V30 21 C -3.044956 -2.378583 3.514713 0
M  V30 22 C -4.591357 -2.359460 3.415995 0
M  V30 23 N -4.790466 -2.088040 1.964675 0
M  V30 24 C -4.997553 -1.851816 0.527650 0
M  V30 25 O -5.523348 -2.771734 -0.109340 0
M  V30 26 C -4.481856 -0.448782 0.295576 0
M  V30 27 C -3.331693 -1.063046 -0.415335 0
M  V30 28 N -2.497194 -0.092934 -0.937362 0
M  V30 29 N -3.081760 1.100794 -0.578034 0
M  V30 30 C -2.491122 2.309648 -0.900139 0
M  V30 31 C -2.891377 3.534035 -1.313666 0
M  V30 32 C -2.016005 4.659221 -1.596619 0
M  V30 33 C -0.651969 4.490682 -1.439109 0
M  V30 34 C -0.058612 3.283549 -1.020090 0
M  V30 35 C -1.059888 2.435524 -0.836824 0
M  V30 36 C -4.149004 0.858826 0.070044 0
M  V30 37 N -5.125169 1.472061 0.819323 0
M  V30 38 C -2.630275 -1.052211 2.953726 0
M  V30 39 C -1.252138 -0.943523 2.626419 0
M  V30 40 C 4.244368 -1.106071 1.058629 0
M  V30 41 C 4.703204 -1.034782 2.352808 0
M  V30 42 H 5.755081 -1.745672 4.821652 0
M  V30 43 H 4.655473 -3.169989 4.948772 0
M  V30 44 H 3.947797 -1.582790 4.989952 0
M  V30 45 H 4.084693 -4.395268 3.064047 0
M  V30 46 H 3.270250 -4.237884 0.668122 0
M  V30 47 H 0.559647 -1.793456 -5.470264 0
M  V30 48 H 0.991672 -2.876063 -4.010880 0
M  V30 49 H -0.305435 -1.652760 -3.938797 0
M  V30 50 H 3.267640 0.415997 -4.444101 0
M  V30 51 H 3.472937 -1.401447 -4.763231 0
M  V30 52 H 2.343862 -0.321575 -5.760710 0
M  V30 53 H 0.673432 0.829148 -4.807618 0
M  V30 54 H -0.227326 0.353663 -3.337944 0
M  V30 55 H 1.393737 1.303859 -3.298025 0
M  V30 56 H -0.010449 -1.107454 -1.698909 0
M  V30 57 H 0.065918 -2.519000 0.512195 0
M  V30 58 H -0.065951 -3.894084 3.435421 0
M  V30 59 H -2.575692 -4.254755 4.181621 0
M  V30 60 H -5.086552 -1.749134 4.060136 0
M  V30 61 H -4.878086 -3.439835 3.609862 0
M  V30 62 H -4.628495 -1.043316 2.386364 0
M  V30 63 H -2.702246 -1.960563 -0.810269 0
M  V30 64 H -3.998813 3.603947 -1.457229 0
M  V30 65 H -2.499964 5.600595 -1.920346 0
M  V30 66 H -0.041271 5.371218 -1.652413 0
M  V30 67 H 0.980340 3.242501 -0.942256 0
M  V30 68 H -0.558650 1.484427 -0.461984 0
M  V30 69 H -5.194765 1.777607 1.862611 0
M  V30 70 H -6.089080 1.807534 0.400042 0
M  V30 71 H -3.191639 -0.143643 2.854215 0
M  V30 72 H -1.037878 0.060592 2.176240 0
M  V30 73 H 4.301793 -0.127099 0.489193 0
M  V30 74 H 5.139706 -0.188870 2.809100 0
M  V30 END ATOM
M  V30 BEGIN BOND
M  V30 1 1 1 2
M  V30 2 2 2 3
M  V30 3 1 3 4
M  V30 4 2 4 5
M  V30 5 1 5 6
M  V30 6 1 6 7
M  V30 7 2 7 8
M  V30 8 1 8 9
M  V30 9 1 9 10
M  V30 10 1 9 11
M  V30 11 1 9 12
M  V30 12 1 8 13
M  V30 13 2 13 14
M  V30 14 1 14 15
M  V30 15 1 15 16
M  V30 16 2 16 17
M  V30 17 1 16 18
M  V30 18 2 18 19
M  V30 19 1 19 20
M  V30 20 2 20 21
M  V30 21 1 21 22
M  V30 22 1 22 23
M  V30 23 1 23 24
M  V30 24 2 24 25
M  V30 25 1 24 26
M  V30 26 1 26 27
M  V30 27 2 27 28
M  V30 28 1 28 29
M  V30 29 1 29 30
M  V30 30 2 30 31
M  V30 31 1 31 32
M  V30 32 2 32 33
M  V30 33 1 33 34
M  V30 34 2 34 35
M  V30 35 1 29 36
M  V30 36 1 36 37
M  V30 37 1 21 38
M  V30 38 2 38 39
M  V30 39 1 5 40
M  V30 40 2 40 41
M  V30 41 1 41 2
M  V30 42 1 14 6
M  V30 43 1 39 18
M  V30 44 2 36 26
M  V30 45 1 35 30
M  V30 46 1 1 42
M  V30 47 1 1 43
M  V30 48 1 1 44
M  V30 49 1 3 45
M  V30 50 1 4 46
M  V30 51 1 10 47
M  V30 52 1 10 48
M  V30 53 1 10 49
M  V30 54 1 11 50
M  V30 55 1 11 51
M  V30 56 1 11 52
M  V30 57 1 12 53
M  V30 58 1 12 54
M  V30 59 1 12 55
M  V30 60 1 13 56
M  V30 61 1 15 57
M  V30 62 1 19 58
M  V30 63 1 20 59
M  V30 64 1 22 60
M  V30 65 1 22 61
M  V30 66 1 23 62
M  V30 67 1 27 63
M  V30 68 1 31 64
M  V30 69 1 32 65
M  V30 70 1 33 66
M  V30 71 1 34 67
M  V30 72 1 35 68
M  V30 73 1 37 69
M  V30 74 1 37 70
M  V30 75 1 38 71
M  V30 76 1 39 72
M  V30 77 1 40 73
M  V30 78 1 41 74
M  V30 END BOND
M  V30 END CTAB
M  END
>  <Dataset>  (190) 
ChEMBL_Kinases

>  <Ligand_Instance>  (190) 
nan

>  <PDB_ID>  (190) 
nan

>  <Standardized_SMILES>  (190) 
Cc1ccc(-n2nc(C(C)(C)C)cc2NC(=O)c2ccc(CNC(=O)c3cnn(-c4ccccc4)c3N)cc2)cc1

>  <Name>  (190) 
nan

>  <Pocket>  (190) 
nan

>  <ATP_Site>  (190) 
nan

>  <Peripheral>  (190) 
nan

>  <Num_H_Atoms_ProtBoundConf>  (190) 
nan

>  <Num_Resolved_Atoms>  (190) 
nan

>  <Num_Not_Resolved_Atoms>  (190) 
nan

$$$$
CHEMBL4441042
     RDKit          3D

  0  0  0  0  0  0  0  0  0  0999 V3000
M  V30 BEGIN CTAB
M  V30 COUNTS 47 50 0 0 0
M  V30 BEGIN ATOM
M  V30 1 C 4.571899 -4.302071 2.881885 0
M  V30 2 S 4.896640 -2.682289 3.638858 0
M  V30 3 C 3.889100 -1.447135 2.828861 0
M  V30 4 N 4.230316 -0.718876 1.735796 0
M  V30 5 C 3.196303 0.092199 1.450551 0
M  V30 6 C 3.132878 1.053573 0.351688 0
M  V30 7 C 3.075169 0.367294 -0.868554 0
M  V30 8 C 3.007196 1.063908 -2.080865 0
M  V30 9 C 2.998055 2.447508 -2.061959 0
M  V30 10 F 2.930426 3.156718 -3.226167 0
M  V30 11 C 3.056173 3.100689 -0.849946 0
M  V30 12 C 3.123451 2.432603 0.355226 0
M  V30 13 C 2.208326 -0.167941 2.411377 0
M  V30 14 C 0.899671 0.472628 2.507771 0
M  V30 15 C 0.639404 1.795847 2.800098 0
M  V30 16 C -0.632163 2.323862 2.862045 0
M  V30 17 N -1.680842 1.479866 2.619591 0
M  V30 18 C -1.487458 0.171684 2.327996 0
M  V30 19 N -2.701740 -0.529931 2.107144 0
M  V30 20 C -2.953856 -0.422279 0.695488 0
M  V30 21 O -2.146853 0.207223 -0.048649 0
M  V30 22 C -4.092205 -0.964283 -0.122740 0
M  V30 23 C -3.591325 -2.133703 -0.985158 0
M  V30 24 C -4.916198 -2.772150 -1.352886 0
M  V30 25 C -5.839163 -2.234203 -0.274282 0
M  V30 26 O -4.986331 -1.645558 0.684367 0
M  V30 27 C -0.217877 -0.299876 2.278753 0
M  V30 28 N 2.645501 -1.123961 3.262749 0
M  V30 29 H 3.645729 -4.710716 3.332298 0
M  V30 30 H 4.337553 -4.191112 1.788560 0
M  V30 31 H 5.411352 -5.001909 3.042441 0
M  V30 32 H 3.073356 -0.704290 -1.031189 0
M  V30 33 H 2.959066 0.576574 -3.049942 0
M  V30 34 H 3.054692 4.184481 -0.759685 0
M  V30 35 H 3.174479 2.827653 1.348822 0
M  V30 36 H 1.493510 2.420076 2.985577 0
M  V30 37 H -0.758492 3.367956 3.096726 0
M  V30 38 H -3.452412 -1.077575 2.580167 0
M  V30 39 H -4.519977 -0.224567 -0.788226 0
M  V30 40 H -3.042606 -2.875319 -0.402587 0
M  V30 41 H -3.050136 -1.777959 -1.881813 0
M  V30 42 H -4.874885 -3.861114 -1.384216 0
M  V30 43 H -5.211182 -2.329662 -2.325923 0
M  V30 44 H -6.458150 -3.032978 0.190502 0
M  V30 45 H -6.454415 -1.385259 -0.660162 0
M  V30 46 H -0.132242 -1.350483 2.040825 0
M  V30 47 H 2.140352 -1.519412 4.070386 0
M  V30 END ATOM
M  V30 BEGIN BOND
M  V30 1 1 1 2
M  V30 2 1 2 3
M  V30 3 2 3 4
M  V30 4 1 4 5
M  V30 5 1 5 6
M  V30 6 2 6 7
M  V30 7 1 7 8
M  V30 8 2 8 9
M  V30 9 1 9 10
M  V30 10 1 9 11
M  V30 11 2 11 12
M  V30 12 2 5 13
M  V30 13 1 13 14
M  V30 14 2 14 15
M  V30 15 1 15 16
M  V30 16 2 16 17
M  V30 17 1 17 18
M  V30 18 1 18 19
M  V30 19 1 19 20
M  V30 20 2 20 21
M  V30 21 1 20 22
M  V30 22 1 22 23
M  V30 23 1 23 24
M  V30 24 1 24 25
M  V30 25 1 25 26
M  V30 26 2 18 27
M  V30 27 1 13 28
M  V30 28 1 28 3
M  V30 29 1 12 6
M  V30 30 1 27 14
M  V30 31 1 26 22
M  V30 32 1 1 29
M  V30 33 1 1 30
M  V30 34 1 1 31
M  V30 35 1 7 32
M  V30 36 1 8 33
M  V30 37 1 11 34
M  V30 38 1 12 35
M  V30 39 1 15 36
M  V30 40 1 16 37
M  V30 41 1 19 38
M  V30 42 1 22 39
M  V30 43 1 23 40
M  V30 44 1 23 41
M  V30 45 1 24 42
M  V30 46 1 24 43
M  V30 47 1 25 44
M  V30 48 1 25 45
M  V30 49 1 27 46
M  V30 50 1 28 47
M  V30 END BOND
M  V30 END CTAB
M  END
>  <Dataset>  (191) 
ChEMBL_Kinases

>  <Ligand_Instance>  (191) 
nan

>  <PDB_ID>  (191) 
nan

>  <Standardized_SMILES>  (191) 
CSc1nc(-c2ccc(F)cc2)c(-c2ccnc(NC(=O)C3CCCO3)c2)[nH]1

>  <Name>  (191) 
nan

>  <Pocket>  (191) 
nan

>  <ATP_Site>  (191) 
nan

>  <Peripheral>  (191) 
nan

>  <Num_H_Atoms_ProtBoundConf>  (191) 
nan

>  <Num_Resolved_Atoms>  (191) 
nan

>  <Num_Not_Resolved_Atoms>  (191) 
nan

$$$$
CHEMBL3687520
     RDKit          3D

  0  0  0  0  0  0  0  0  0  0999 V3000
M  V30 BEGIN CTAB
M  V30 COUNTS 75 79 0 0 0
M  V30 BEGIN ATOM
M  V30 1 C 3.155087 3.026726 0.991269 0
M  V30 2 C 2.925488 1.532266 0.937026 0 CFG=1
M  V30 3 C 3.512050 0.990428 -0.354329 0
M  V30 4 C 3.031064 -0.406355 -0.478829 0 CFG=1
M  V30 5 C 3.230979 -1.129953 -1.706507 0
M  V30 6 C 4.313641 -1.909669 -2.078345 0
M  V30 7 C 4.404681 -2.567111 -3.295886 0
M  V30 8 N 3.432320 -2.492278 -4.215608 0
M  V30 9 C 2.350738 -1.748195 -3.914160 0
M  V30 10 C 2.260598 -1.089494 -2.693050 0
M  V30 11 N 1.062322 -0.341373 -2.511384 0
M  V30 12 C 0.679453 1.004433 -2.797421 0
M  V30 13 O 1.490133 1.810263 -3.328202 0
M  V30 14 C -0.690913 1.358066 -2.433676 0
M  V30 15 C -1.085385 2.631896 -2.693727 0
M  V30 16 C -2.369127 3.051025 -2.380452 0
M  V30 17 C -3.255593 2.158951 -1.796479 0
M  V30 18 F -4.536056 2.415866 -1.433901 0
M  V30 19 C -2.827493 0.871123 -1.543719 0
M  V30 20 C -3.590295 -0.219487 -0.940879 0
M  V30 21 C -4.383039 -1.175307 -1.546870 0
M  V30 22 F -4.435533 -1.050290 -2.891843 0
M  V30 23 C -5.013601 -2.117624 -0.766119 0
M  V30 24 C -4.870063 -2.126505 0.606022 0
M  V30 25 C -5.566683 -3.157860 1.401368 0
M  V30 26 F -6.735075 -3.573438 0.747663 0
M  V30 27 C -4.750784 -4.403760 1.599689 0
M  V30 28 C -5.645046 -5.406510 2.314061 0
M  V30 29 O -6.138976 -4.895482 3.515721 0
M  V30 30 C -6.946360 -3.773662 3.278352 0
M  V30 31 C -6.009796 -2.671908 2.765702 0
M  V30 32 C -4.094588 -1.195007 1.223287 0
M  V30 33 C -3.444420 -0.228194 0.451294 0
M  V30 34 F -2.696397 0.652049 1.173510 0
M  V30 35 N -1.572459 0.506273 -1.863950 0
M  V30 36 C 3.591440 -1.202478 0.671684 0
M  V30 37 C 3.266750 -0.627012 2.008491 0 CFG=1
M  V30 38 N 3.967240 -1.413853 3.001769 0
M  V30 39 C 3.439348 0.833547 2.167747 0 CFG=1
M  V30 40 S 5.013786 1.391463 2.695357 0
M  V30 41 C 6.353919 1.067481 1.632590 0
M  V30 42 O 4.938494 2.875339 2.919634 0
M  V30 43 O 5.336709 0.795967 4.058188 0
M  V30 44 H 4.190135 3.319247 0.752428 0
M  V30 45 H 2.881088 3.440493 1.975328 0
M  V30 46 H 2.518699 3.554255 0.247801 0
M  V30 47 H 1.800362 1.420940 0.931098 0
M  V30 48 H 4.604455 1.011044 -0.237564 0
M  V30 49 H 3.123972 1.689006 -1.119700 0
M  V30 50 H 1.916765 -0.369728 -0.281824 0
M  V30 51 H 5.127079 -1.993386 -1.353745 0
M  V30 52 H 5.274768 -3.164093 -3.535349 0
M  V30 53 H 1.580300 -1.695758 -4.656745 0
M  V30 54 H 0.436900 -1.069274 -2.068862 0
M  V30 55 H -0.439476 3.365301 -3.145173 0
M  V30 56 H -2.745618 4.040820 -2.558297 0
M  V30 57 H -5.621949 -2.839869 -1.308804 0
M  V30 58 H -4.508909 -4.843837 0.618977 0
M  V30 59 H -3.818623 -4.212231 2.182826 0
M  V30 60 H -6.526628 -5.557814 1.648996 0
M  V30 61 H -5.117094 -6.349343 2.537855 0
M  V30 62 H -7.460109 -3.506228 4.200740 0
M  V30 63 H -7.637106 -3.982245 2.422540 0
M  V30 64 H -6.603251 -1.736178 2.597449 0
M  V30 65 H -5.154529 -2.508663 3.444534 0
M  V30 66 H -4.003697 -1.230990 2.303699 0
M  V30 67 H 3.112522 -2.228025 0.658105 0
M  V30 68 H 4.663417 -1.407737 0.524301 0
M  V30 69 H 2.175578 -0.863959 2.186126 0
M  V30 70 H 3.863322 -2.423465 2.754726 0
M  V30 71 H 3.515187 -1.280071 3.947130 0
M  V30 72 H 2.713836 1.146391 2.986673 0
M  V30 73 H 6.407661 0.082108 1.177040 0
M  V30 74 H 6.499612 1.920825 0.905661 0
M  V30 75 H 7.288892 1.140994 2.267792 0
M  V30 END ATOM
M  V30 BEGIN BOND
M  V30 1 1 1 2
M  V30 2 1 2 3
M  V30 3 1 3 4
M  V30 4 1 4 5
M  V30 5 2 5 6
M  V30 6 1 6 7
M  V30 7 2 7 8
M  V30 8 1 8 9
M  V30 9 2 9 10
M  V30 10 1 10 11
M  V30 11 1 11 12
M  V30 12 2 12 13
M  V30 13 1 12 14
M  V30 14 2 14 15
M  V30 15 1 15 16
M  V30 16 2 16 17
M  V30 17 1 17 18
M  V30 18 1 17 19
M  V30 19 1 19 20
M  V30 20 2 20 21
M  V30 21 1 21 22
M  V30 22 1 21 23
M  V30 23 2 23 24
M  V30 24 1 24 25
M  V30 25 1 25 26
M  V30 26 1 25 27
M  V30 27 1 27 28
M  V30 28 1 28 29
M  V30 29 1 29 30
M  V30 30 1 30 31
M  V30 31 1 24 32
M  V30 32 2 32 33
M  V30 33 1 33 34
M  V30 34 2 19 35
M  V30 35 1 4 36
M  V30 36 1 36 37
M  V30 37 1 37 38
M  V30 38 1 37 39
M  V30 39 1 39 40
M  V30 40 1 40 41
M  V30 41 2 40 42
M  V30 42 2 40 43
M  V30 43 1 39 2
M  V30 44 1 10 5
M  V30 45 1 35 14
M  V30 46 1 33 20
M  V30 47 1 31 25
M  V30 48 1 1 44
M  V30 49 1 1 45
M  V30 50 1 1 46
M  V30 51 1 2 47 CFG=3
M  V30 52 1 3 48
M  V30 53 1 3 49
M  V30 54 1 4 50 CFG=1
M  V30 55 1 6 51
M  V30 56 1 7 52
M  V30 57 1 9 53
M  V30 58 1 11 54
M  V30 59 1 15 55
M  V30 60 1 16 56
M  V30 61 1 23 57
M  V30 62 1 27 58
M  V30 63 1 27 59
M  V30 64 1 28 60
M  V30 65 1 28 61
M  V30 66 1 30 62
M  V30 67 1 30 63
M  V30 68 1 31 64
M  V30 69 1 31 65
M  V30 70 1 32 66
M  V30 71 1 36 67
M  V30 72 1 36 68
M  V30 73 1 37 69 CFG=1
M  V30 74 1 38 70
M  V30 75 1 38 71
M  V30 76 1 39 72 CFG=1
M  V30 77 1 41 73
M  V30 78 1 41 74
M  V30 79 1 41 75
M  V30 END BOND
M  V30 END CTAB
M  END
>  <Dataset>  (192) 
ChEMBL_Kinases

>  <Ligand_Instance>  (192) 
nan

>  <PDB_ID>  (192) 
nan

>  <Standardized_SMILES>  (192) 
C[C@H]1C[C@@H](c2ccncc2NC(=O)c2ccc(F)c(-c3c(F)cc(C4(F)CCOCC4)cc3F)n2)C[C@@H](N)[C@H]1S(C)(=O)=O

>  <Name>  (192) 
nan

>  <Pocket>  (192) 
nan

>  <ATP_Site>  (192) 
nan

>  <Peripheral>  (192) 
nan

>  <Num_H_Atoms_ProtBoundConf>  (192) 
nan

>  <Num_Resolved_Atoms>  (192) 
nan

>  <Num_Not_Resolved_Atoms>  (192) 
nan

$$$$
CHEMBL3687525
     RDKit          3D

  0  0  0  0  0  0  0  0  0  0999 V3000
M  V30 BEGIN CTAB
M  V30 COUNTS 60 63 0 0 0
M  V30 BEGIN ATOM
M  V30 1 C 3.398268 -0.818424 3.194074 0
M  V30 2 C 2.023337 -0.543969 2.696945 0 CFG=1
M  V30 3 C 1.974664 -0.363385 1.208094 0
M  V30 4 C 1.510541 -1.626123 0.471874 0 CFG=1
M  V30 5 C 2.152596 -1.723980 -0.853296 0
M  V30 6 C 3.377360 -2.318079 -1.083315 0
M  V30 7 C 3.986061 -2.412438 -2.319815 0
M  V30 8 N 3.341933 -1.888822 -3.377998 0
M  V30 9 C 2.137853 -1.292682 -3.219217 0
M  V30 10 C 1.540640 -1.205288 -1.977338 0
M  V30 11 N 0.282610 -0.562185 -1.948176 0
M  V30 12 C -0.016996 0.795839 -1.766575 0
M  V30 13 O 1.013839 1.495490 -1.612429 0
M  V30 14 C -1.357223 1.374812 -1.751160 0
M  V30 15 N -2.402618 0.600706 -1.929977 0
M  V30 16 C -3.578022 1.172687 -1.909227 0
M  V30 17 C -4.940285 0.627089 -2.071888 0
M  V30 18 C -5.012167 -0.734501 -2.286862 0
M  V30 19 F -3.877296 -1.475148 -2.336147 0
M  V30 20 C -6.280686 -1.235955 -2.437753 0
M  V30 21 C -7.405337 -0.432689 -2.378250 0
M  V30 22 C -7.285126 0.922111 -2.161527 0
M  V30 23 C -6.022267 1.473338 -2.003227 0
M  V30 24 F -5.903503 2.806844 -1.789948 0
M  V30 25 S -3.240985 3.015309 -1.606703 0
M  V30 26 C -1.461050 2.772650 -1.542127 0
M  V30 27 N -0.497195 3.739387 -1.338250 0
M  V30 28 C 1.902840 -2.798657 1.304989 0
M  V30 29 C 1.152726 -2.892145 2.615715 0 CFG=1
M  V30 30 N 1.908008 -3.744115 3.505073 0
M  V30 31 C 0.964648 -1.505391 3.143369 0 CFG=1
M  V30 32 S 0.643668 -1.456199 4.874372 0
M  V30 33 C 1.970474 -1.972461 5.882372 0
M  V30 34 O -0.526816 -2.378682 5.129576 0
M  V30 35 O 0.232847 -0.075273 5.299091 0
M  V30 36 H 3.795275 -0.022582 3.892095 0
M  V30 37 H 4.120831 -0.763996 2.333701 0
M  V30 38 H 3.560287 -1.795732 3.672124 0
M  V30 39 H 1.726256 0.451201 3.143492 0
M  V30 40 H 1.311421 0.488996 0.919146 0
M  V30 41 H 3.011010 -0.169951 0.838686 0
M  V30 42 H 0.418498 -1.563194 0.280980 0
M  V30 43 H 3.915615 -2.742938 -0.269618 0
M  V30 44 H 4.943225 -2.883693 -2.462462 0
M  V30 45 H 1.690597 -0.899144 -4.121617 0
M  V30 46 H -0.527900 -1.239835 -2.087359 0
M  V30 47 H -6.356235 -2.309499 -2.608538 0
M  V30 48 H -8.373231 -0.932907 -2.511460 0
M  V30 49 H -8.198255 1.499841 -2.124766 0
M  V30 50 H -0.027538 4.245889 -2.096969 0
M  V30 51 H -0.348855 3.845911 -0.302726 0
M  V30 52 H 1.783559 -3.775138 0.807579 0
M  V30 53 H 2.984596 -2.717849 1.535468 0
M  V30 54 H 0.158298 -3.371687 2.507282 0
M  V30 55 H 1.302250 -4.405723 4.036885 0
M  V30 56 H 2.651298 -4.255025 2.984228 0
M  V30 57 H 0.007057 -1.137147 2.700032 0
M  V30 58 H 2.281779 -3.027665 5.740914 0
M  V30 59 H 1.591259 -1.941950 6.936585 0
M  V30 60 H 2.828237 -1.260814 5.896851 0
M  V30 END ATOM
M  V30 BEGIN BOND
M  V30 1 1 1 2
M  V30 2 1 2 3
M  V30 3 1 3 4
M  V30 4 1 4 5
M  V30 5 2 5 6
M  V30 6 1 6 7
M  V30 7 2 7 8
M  V30 8 1 8 9
M  V30 9 2 9 10
M  V30 10 1 10 11
M  V30 11 1 11 12
M  V30 12 2 12 13
M  V30 13 1 12 14
M  V30 14 1 14 15
M  V30 15 2 15 16
M  V30 16 1 16 17
M  V30 17 2 17 18
M  V30 18 1 18 19
M  V30 19 1 18 20
M  V30 20 2 20 21
M  V30 21 1 21 22
M  V30 22 2 22 23
M  V30 23 1 23 24
M  V30 24 1 16 25
M  V30 25 1 25 26
M  V30 26 1 26 27
M  V30 27 1 4 28
M  V30 28 1 28 29
M  V30 29 1 29 30
M  V30 30 1 29 31
M  V30 31 1 31 32
M  V30 32 1 32 33
M  V30 33 2 32 34
M  V30 34 2 32 35
M  V30 35 1 31 2
M  V30 36 1 10 5
M  V30 37 2 26 14
M  V30 38 1 23 17
M  V30 39 1 1 36
M  V30 40 1 1 37
M  V30 41 1 1 38
M  V30 42 1 2 39 CFG=1
M  V30 43 1 3 40
M  V30 44 1 3 41
M  V30 45 1 4 42 CFG=3
M  V30 46 1 6 43
M  V30 47 1 7 44
M  V30 48 1 9 45
M  V30 49 1 11 46
M  V30 50 1 20 47
M  V30 51 1 21 48
M  V30 52 1 22 49
M  V30 53 1 27 50
M  V30 54 1 27 51
M  V30 55 1 28 52
M  V30 56 1 28 53
M  V30 57 1 29 54 CFG=3
M  V30 58 1 30 55
M  V30 59 1 30 56
M  V30 60 1 31 57 CFG=3
M  V30 61 1 33 58
M  V30 62 1 33 59
M  V30 63 1 33 60
M  V30 END BOND
M  V30 END CTAB
M  END
>  <Dataset>  (193) 
ChEMBL_Kinases

>  <Ligand_Instance>  (193) 
nan

>  <PDB_ID>  (193) 
nan

>  <Standardized_SMILES>  (193) 
C[C@H]1C[C@@H](c2ccncc2NC(=O)c2nc(-c3c(F)cccc3F)sc2N)C[C@@H](N)[C@H]1S(C)(=O)=O

>  <Name>  (193) 
nan

>  <Pocket>  (193) 
nan

>  <ATP_Site>  (193) 
nan

>  <Peripheral>  (193) 
nan

>  <Num_H_Atoms_ProtBoundConf>  (193) 
nan

>  <Num_Resolved_Atoms>  (193) 
nan

>  <Num_Not_Resolved_Atoms>  (193) 
nan

$$$$
CHEMBL3701778
     RDKit          3D

  0  0  0  0  0  0  0  0  0  0999 V3000
M  V30 BEGIN CTAB
M  V30 COUNTS 59 64 0 0 0
M  V30 BEGIN ATOM
M  V30 1 C 5.436429 0.285172 2.926107 0
M  V30 2 C 5.731188 1.336252 1.897553 0
M  V30 3 O 7.046765 1.766939 2.023397 0
M  V30 4 C 5.376324 0.983582 0.479136 0
M  V30 5 C 4.157127 1.915591 0.528315 0
M  V30 6 O 4.214517 2.772843 -0.568824 0
M  V30 7 C 2.871067 1.218588 0.598525 0
M  V30 8 C 2.165535 0.834159 1.719513 0
M  V30 9 C 0.953472 0.174590 1.665296 0
M  V30 10 C 0.422457 -0.113379 0.425522 0
M  V30 11 C -0.854477 -0.802739 0.274893 0
M  V30 12 N -0.710875 -2.156794 0.142095 0
M  V30 13 C -1.953681 -2.692012 0.018374 0
M  V30 14 N -2.862120 -1.677090 0.074167 0
M  V30 15 C -2.215015 -0.505685 0.231193 0
M  V30 16 C -2.529962 0.912781 0.357123 0
M  V30 17 C -2.982343 1.657659 1.403984 0
M  V30 18 C -3.207432 2.999328 1.242073 0
M  V30 19 C -2.996293 3.663989 0.043550 0
M  V30 20 C -2.537262 2.918212 -1.029071 0
M  V30 21 C -2.306563 1.553873 -0.870426 0
M  V30 22 C -4.301625 -1.773594 -0.016965 0
M  V30 23 O -4.747111 -3.093791 -0.182799 0
M  V30 24 C -3.906663 -4.192244 -0.250396 0
M  V30 25 C -4.349587 -5.487377 -0.412531 0
M  V30 26 C -3.495609 -6.571742 -0.478339 0
M  V30 27 C -4.006251 -7.938623 -0.655884 0
M  V30 28 O -3.179540 -8.891484 -0.708741 0
M  V30 29 O -5.358315 -8.118657 -0.756497 0
M  V30 30 C -2.120660 -6.341415 -0.375106 0
M  V30 31 C -1.604676 -5.059125 -0.210392 0
M  V30 32 C -2.548910 -4.033289 -0.156455 0
M  V30 33 C 1.071751 0.240249 -0.737921 0
M  V30 34 C 2.280058 0.897467 -0.617335 0
M  V30 35 C 4.710935 2.460938 1.800930 0
M  V30 36 H 6.381808 -0.145987 3.364209 0
M  V30 37 H 4.802421 -0.529390 2.504409 0
M  V30 38 H 4.871703 0.774148 3.746514 0
M  V30 39 H 7.581766 1.112920 2.579025 0
M  V30 40 H 5.084683 -0.092090 0.420493 0
M  V30 41 H 6.118171 1.237569 -0.294085 0
M  V30 42 H 5.132643 2.843257 -0.926663 0
M  V30 43 H 2.617262 1.079472 2.662548 0
M  V30 44 H 0.442120 -0.106581 2.571909 0
M  V30 45 H -3.115267 1.056057 2.293840 0
M  V30 46 H -3.564812 3.506689 2.125560 0
M  V30 47 H -3.187022 4.721231 -0.038949 0
M  V30 48 H -2.385189 3.462723 -1.945805 0
M  V30 49 H -1.951288 1.110506 -1.790869 0
M  V30 50 H -4.700719 -1.183424 -0.879120 0
M  V30 51 H -4.793296 -1.361893 0.888607 0
M  V30 52 H -5.403458 -5.681460 -0.491531 0
M  V30 53 H -5.718858 -8.987284 -1.138650 0
M  V30 54 H -1.415089 -7.163805 -0.423657 0
M  V30 55 H -0.546550 -4.882991 -0.130653 0
M  V30 56 H 0.647461 0.012259 -1.724443 0
M  V30 57 H 2.764655 1.160465 -1.563772 0
M  V30 58 H 4.083956 2.472186 2.694761 0
M  V30 59 H 5.259114 3.427313 1.681809 0
M  V30 END ATOM
M  V30 BEGIN BOND
M  V30 1 1 1 2
M  V30 2 1 2 3
M  V30 3 1 2 4
M  V30 4 1 4 5
M  V30 5 1 5 6
M  V30 6 1 5 7
M  V30 7 2 7 8
M  V30 8 1 8 9
M  V30 9 2 9 10
M  V30 10 1 10 11
M  V30 11 1 11 12
M  V30 12 2 12 13
M  V30 13 1 13 14
M  V30 14 1 14 15
M  V30 15 1 15 16
M  V30 16 2 16 17
M  V30 17 1 17 18
M  V30 18 2 18 19
M  V30 19 1 19 20
M  V30 20 2 20 21
M  V30 21 1 14 22
M  V30 22 1 22 23
M  V30 23 1 23 24
M  V30 24 2 24 25
M  V30 25 1 25 26
M  V30 26 1 26 27
M  V30 27 2 27 28
M  V30 28 1 27 29
M  V30 29 2 26 30
M  V30 30 1 30 31
M  V30 31 2 31 32
M  V30 32 1 10 33
M  V30 33 2 33 34
M  V30 34 1 5 35
M  V30 35 1 35 2
M  V30 36 1 34 7
M  V30 37 2 15 11
M  V30 38 1 21 16
M  V30 39 1 32 24
M  V30 40 1 32 13
M  V30 41 1 1 36
M  V30 42 1 1 37
M  V30 43 1 1 38
M  V30 44 1 3 39
M  V30 45 1 4 40
M  V30 46 1 4 41
M  V30 47 1 6 42
M  V30 48 1 8 43
M  V30 49 1 9 44
M  V30 50 1 17 45
M  V30 51 1 18 46
M  V30 52 1 19 47
M  V30 53 1 20 48
M  V30 54 1 21 49
M  V30 55 1 22 50
M  V30 56 1 22 51
M  V30 57 1 25 52
M  V30 58 1 29 53
M  V30 59 1 30 54
M  V30 60 1 31 55
M  V30 61 1 33 56
M  V30 62 1 34 57
M  V30 63 1 35 58
M  V30 64 1 35 59
M  V30 END BOND
M  V30 END CTAB
M  END
>  <Dataset>  (194) 
ChEMBL_Kinases

>  <Ligand_Instance>  (194) 
nan

>  <PDB_ID>  (194) 
nan

>  <Standardized_SMILES>  (194) 
CC1(O)CC(O)(c2ccc(-c3nc4n(c3-c3ccccc3)COc3cc(C(=O)O)ccc3-4)cc2)C1

>  <Name>  (194) 
nan

>  <Pocket>  (194) 
nan

>  <ATP_Site>  (194) 
nan

>  <Peripheral>  (194) 
nan

>  <Num_H_Atoms_ProtBoundConf>  (194) 
nan

>  <Num_Resolved_Atoms>  (194) 
nan

>  <Num_Not_Resolved_Atoms>  (194) 
nan

$$$$
CHEMBL267495
     RDKit          3D

  0  0  0  0  0  0  0  0  0  0999 V3000
M  V30 BEGIN CTAB
M  V30 COUNTS 67 73 0 0 0
M  V30 BEGIN ATOM
M  V30 1 C -0.114011 -3.177747 -1.565839 0
M  V30 2 N 0.712725 -2.027178 -1.784366 0
M  V30 3 C 1.466727 -1.627268 -2.891220 0
M  V30 4 O 0.905735 -2.710091 -3.159539 0
M  V30 5 C 2.275753 -1.110939 -3.957920 0
M  V30 6 C 2.383339 -1.762954 -5.101201 0
M  V30 7 C 3.228953 -1.131857 -6.087645 0
M  V30 8 C 3.924958 0.056225 -5.977077 0
M  V30 9 C 4.576833 0.210891 -7.190384 0
M  V30 10 O 4.269030 -0.812646 -7.924063 0
M  V30 11 C 3.477193 -1.650642 -7.344130 0
M  V30 12 C 0.895112 -0.997601 -0.758259 0 CFG=2
M  V30 13 C 1.701078 -1.501588 0.397434 0
M  V30 14 C 1.337157 -0.881925 1.729996 0
M  V30 15 C -0.116554 -1.105740 1.889862 0 CFG=1
M  V30 16 O -0.376592 -2.442125 1.607837 0
M  V30 17 C -0.638893 -0.854414 3.288484 0 CFG=1
M  V30 18 C -0.721169 0.584274 3.676340 0
M  V30 19 C -0.390037 1.542880 2.608473 0
M  V30 20 C -0.010539 2.845834 2.787808 0
M  V30 21 C 0.293582 3.677906 1.703642 0
M  V30 22 C 0.218961 3.202449 0.403642 0
M  V30 23 O 0.510433 3.987157 -0.717093 0
M  V30 24 C -0.160152 1.883682 0.127345 0
M  V30 25 C -0.429905 1.181220 1.282363 0
M  V30 26 C -0.838556 -0.226725 0.938059 0 CFG=2
M  V30 27 C -2.320472 -0.349959 1.044633 0
M  V30 28 C -2.862100 -0.892506 2.311854 0
M  V30 29 N -1.954981 -1.388223 3.254568 0
M  V30 30 C -2.354738 -2.337225 4.183829 0
M  V30 31 C -3.331970 -1.893300 5.229160 0
M  V30 32 C -3.798784 -2.882631 6.262645 0
M  V30 33 C -2.998814 -1.647154 6.628104 0
M  V30 34 C -0.366631 -0.307922 -0.474161 0 CFG=1
M  V30 35 O -0.355109 1.036462 -0.965577 0
M  V30 36 H -0.475462 -3.697269 -2.457074 0
M  V30 37 H 0.406838 -3.962573 -0.949904 0
M  V30 38 H -1.034583 -2.820006 -1.024643 0
M  V30 39 H 2.771555 -0.174023 -3.751222 0
M  V30 40 H 1.879468 -2.698816 -5.289473 0
M  V30 41 H 3.965396 0.726853 -5.142688 0
M  V30 42 H 5.212170 1.074615 -7.392631 0
M  V30 43 H 3.104480 -2.570980 -7.794208 0
M  V30 44 H 1.587223 -0.264102 -1.277267 0
M  V30 45 H 1.540970 -2.595089 0.492849 0
M  V30 46 H 2.794626 -1.370542 0.267055 0
M  V30 47 H 1.583940 0.192025 1.653431 0
M  V30 48 H 1.937341 -1.402619 2.498332 0
M  V30 49 H -1.223113 -2.764009 1.951267 0
M  V30 50 H -0.023162 -1.455947 3.965062 0
M  V30 51 H -0.091781 0.807702 4.587619 0
M  V30 52 H -1.760419 0.868398 4.012769 0
M  V30 53 H 0.050530 3.229915 3.812656 0
M  V30 54 H 0.596746 4.719474 1.854732 0
M  V30 55 H 1.153919 4.773861 -0.609496 0
M  V30 56 H -2.748564 0.691337 0.926001 0
M  V30 57 H -2.732320 -0.878229 0.130835 0
M  V30 58 H -3.550489 -1.746287 2.028715 0
M  V30 59 H -3.562225 -0.179805 2.830888 0
M  V30 60 H -2.845495 -3.201391 3.657387 0
M  V30 61 H -1.466857 -2.788163 4.680856 0
M  V30 62 H -4.171883 -1.278568 4.802502 0
M  V30 63 H -4.834803 -2.873661 6.639003 0
M  V30 64 H -3.321561 -3.874715 6.339122 0
M  V30 65 H -3.539750 -0.816098 7.159953 0
M  V30 66 H -2.033300 -1.864663 7.097450 0
M  V30 67 H -1.196235 -0.795461 -1.052707 0
M  V30 END ATOM
M  V30 BEGIN BOND
M  V30 1 1 1 2
M  V30 2 1 2 3
M  V30 3 2 3 4
M  V30 4 1 3 5
M  V30 5 2 5 6
M  V30 6 1 6 7
M  V30 7 1 7 8
M  V30 8 2 8 9
M  V30 9 1 9 10
M  V30 10 1 10 11
M  V30 11 1 2 12
M  V30 12 1 12 13
M  V30 13 1 13 14
M  V30 14 1 14 15
M  V30 15 1 15 16 CFG=3
M  V30 16 1 15 17
M  V30 17 1 17 18
M  V30 18 1 18 19
M  V30 19 2 19 20
M  V30 20 1 20 21
M  V30 21 2 21 22
M  V30 22 1 22 23
M  V30 23 1 22 24
M  V30 24 2 24 25
M  V30 25 1 25 26
M  V30 26 1 26 27 CFG=3
M  V30 27 1 27 28
M  V30 28 1 28 29
M  V30 29 1 29 30
M  V30 30 1 30 31
M  V30 31 1 31 32
M  V30 32 1 32 33
M  V30 33 1 26 34
M  V30 34 1 34 35
M  V30 35 2 11 7
M  V30 36 1 34 12
M  V30 37 1 26 15
M  V30 38 1 33 31
M  V30 39 1 29 17
M  V30 40 1 25 19
M  V30 41 1 35 24
M  V30 42 1 1 36
M  V30 43 1 1 37
M  V30 44 1 1 38
M  V30 45 1 5 39
M  V30 46 1 6 40
M  V30 47 1 8 41
M  V30 48 1 9 42
M  V30 49 1 11 43
M  V30 50 1 12 44 CFG=3
M  V30 51 1 13 45
M  V30 52 1 13 46
M  V30 53 1 14 47
M  V30 54 1 14 48
M  V30 55 1 16 49
M  V30 56 1 17 50 CFG=1
M  V30 57 1 18 51
M  V30 58 1 18 52
M  V30 59 1 20 53
M  V30 60 1 21 54
M  V30 61 1 23 55
M  V30 62 1 27 56
M  V30 63 1 27 57
M  V30 64 1 28 58
M  V30 65 1 28 59
M  V30 66 1 30 60
M  V30 67 1 30 61
M  V30 68 1 31 62
M  V30 69 1 32 63
M  V30 70 1 32 64
M  V30 71 1 33 65
M  V30 72 1 33 66
M  V30 73 1 34 67 CFG=3
M  V30 END BOND
M  V30 END CTAB
M  END
>  <Dataset>  (195) 
ChEMBL_Kinases

>  <Ligand_Instance>  (195) 
nan

>  <PDB_ID>  (195) 
nan

>  <Standardized_SMILES>  (195) 
CN(C(=O)/C=C/c1ccoc1)[C@@H]1CC[C@@]2(O)[C@H]3Cc4ccc(O)c5c4[C@@]2(CCN3CC2CC2)[C@H]1O5

>  <Name>  (195) 
NALFURAFINE

>  <Pocket>  (195) 
nan

>  <ATP_Site>  (195) 
nan

>  <Peripheral>  (195) 
nan

>  <Num_H_Atoms_ProtBoundConf>  (195) 
nan

>  <Num_Resolved_Atoms>  (195) 
nan

>  <Num_Not_Resolved_Atoms>  (195) 
nan

$$$$
CHEMBL434938
     RDKit          3D

  0  0  0  0  0  0  0  0  0  0999 V3000
M  V30 BEGIN CTAB
M  V30 COUNTS 65 65 0 0 0
M  V30 BEGIN ATOM
M  V30 1 C -0.366671 -3.520063 4.940723 0
M  V30 2 C -0.198194 -2.487707 3.792718 0
M  V30 3 C -0.012085 -1.176083 4.523637 0
M  V30 4 C 0.965382 -2.978759 3.034907 0
M  V30 5 C 1.451821 -2.296639 1.844937 0
M  V30 6 C 1.876379 -0.876436 2.100723 0
M  V30 7 C 2.382647 -0.235957 0.835913 0
M  V30 8 C 1.847761 0.850151 0.278944 0
M  V30 9 C 0.683285 1.580746 0.821228 0
M  V30 10 C 0.725597 2.885431 0.064121 0
M  V30 11 C 0.942633 4.077890 0.972520 0
M  V30 12 O -0.127785 4.167691 1.840008 0
M  V30 13 C -0.564158 3.067111 -0.715229 0
M  V30 14 O -0.784197 2.019441 -1.610041 0
M  V30 15 C -1.890392 1.935428 -2.445137 0
M  V30 16 S -2.411913 3.289705 -3.186205 0
M  V30 17 C -2.578995 0.637871 -2.654777 0
M  V30 18 C -1.619618 -0.386766 -3.250002 0
M  V30 19 C -3.152303 0.091855 -1.376769 0
M  V30 20 C -3.710392 0.844176 -3.656463 0
M  V30 21 O 1.835947 2.830752 -0.801286 0
M  V30 22 C 2.292362 1.510430 -0.937500 0
M  V30 23 O 2.942548 0.879604 -1.827554 0
M  V30 24 C 0.543845 -2.321304 0.647785 0
M  V30 25 C 0.235672 -3.713626 0.160396 0
M  V30 26 C -0.679250 -3.585233 -1.036976 0
M  V30 27 C 1.476252 -4.484954 -0.213286 0
M  V30 28 H -0.258398 -4.524915 4.453243 0
M  V30 29 H 0.488184 -3.387072 5.620290 0
M  V30 30 H -1.355952 -3.465627 5.390726 0
M  V30 31 H -1.153703 -2.483826 3.265374 0
M  V30 32 H -0.428274 -1.222620 5.582708 0
M  V30 33 H -0.628643 -0.375339 4.064872 0
M  V30 34 H 1.024664 -0.876139 4.665118 0
M  V30 35 H 0.745749 -4.067898 2.798894 0
M  V30 36 H 1.817841 -3.081035 3.779992 0
M  V30 37 H 2.390560 -2.831127 1.506037 0
M  V30 38 H 1.023578 -0.228140 2.401693 0
M  V30 39 H 2.697290 -0.785050 2.836019 0
M  V30 40 H 3.250963 -0.707298 0.353075 0
M  V30 41 H -0.269951 1.082683 0.634800 0
M  V30 42 H 0.761673 1.736974 1.922057 0
M  V30 43 H 0.966808 4.968376 0.307554 0
M  V30 44 H 1.858224 3.973162 1.554389 0
M  V30 45 H -0.572773 3.290837 1.916561 0
M  V30 46 H -1.386652 2.992574 0.053540 0
M  V30 47 H -0.613061 4.080287 -1.157947 0
M  V30 48 H -0.846983 -0.673193 -2.517855 0
M  V30 49 H -2.196320 -1.276046 -3.574095 0
M  V30 50 H -1.162881 0.023599 -4.180021 0
M  V30 51 H -3.036440 -1.017796 -1.310631 0
M  V30 52 H -4.255506 0.319425 -1.305932 0
M  V30 53 H -2.652855 0.530451 -0.500720 0
M  V30 54 H -3.307842 1.281996 -4.590137 0
M  V30 55 H -4.476907 1.509624 -3.187284 0
M  V30 56 H -4.120142 -0.164059 -3.878086 0
M  V30 57 H -0.406434 -1.790085 0.775689 0
M  V30 58 H 1.093140 -1.805058 -0.175668 0
M  V30 59 H -0.304921 -4.304216 0.927057 0
M  V30 60 H -1.184600 -2.596142 -1.091028 0
M  V30 61 H -1.460861 -4.366029 -0.988605 0
M  V30 62 H -0.092396 -3.791979 -1.963924 0
M  V30 63 H 1.159590 -5.335798 -0.851113 0
M  V30 64 H 1.888328 -4.935784 0.707034 0
M  V30 65 H 2.218663 -3.910280 -0.786217 0
M  V30 END ATOM
M  V30 BEGIN BOND
M  V30 1 1 1 2
M  V30 2 1 2 3
M  V30 3 1 2 4
M  V30 4 1 4 5
M  V30 5 1 5 6
M  V30 6 1 6 7
M  V30 7 2 7 8
M  V30 8 1 8 9
M  V30 9 1 9 10
M  V30 10 1 10 11
M  V30 11 1 11 12
M  V30 12 1 10 13
M  V30 13 1 13 14
M  V30 14 1 14 15
M  V30 15 2 15 16
M  V30 16 1 15 17
M  V30 17 1 17 18
M  V30 18 1 17 19
M  V30 19 1 17 20
M  V30 20 1 10 21
M  V30 21 1 21 22
M  V30 22 2 22 23
M  V30 23 1 5 24
M  V30 24 1 24 25
M  V30 25 1 25 26
M  V30 26 1 25 27
M  V30 27 1 22 8
M  V30 28 1 1 28
M  V30 29 1 1 29
M  V30 30 1 1 30
M  V30 31 1 2 31
M  V30 32 1 3 32
M  V30 33 1 3 33
M  V30 34 1 3 34
M  V30 35 1 4 35
M  V30 36 1 4 36
M  V30 37 1 5 37
M  V30 38 1 6 38
M  V30 39 1 6 39
M  V30 40 1 7 40
M  V30 41 1 9 41
M  V30 42 1 9 42
M  V30 43 1 11 43
M  V30 44 1 11 44
M  V30 45 1 12 45
M  V30 46 1 13 46
M  V30 47 1 13 47
M  V30 48 1 18 48
M  V30 49 1 18 49
M  V30 50 1 18 50
M  V30 51 1 19 51
M  V30 52 1 19 52
M  V30 53 1 19 53
M  V30 54 1 20 54
M  V30 55 1 20 55
M  V30 56 1 20 56
M  V30 57 1 24 57
M  V30 58 1 24 58
M  V30 59 1 25 59
M  V30 60 1 26 60
M  V30 61 1 26 61
M  V30 62 1 26 62
M  V30 63 1 27 63
M  V30 64 1 27 64
M  V30 65 1 27 65
M  V30 END BOND
M  V30 END CTAB
M  END
>  <Dataset>  (196) 
ChEMBL_Kinases

>  <Ligand_Instance>  (196) 
nan

>  <PDB_ID>  (196) 
nan

>  <Standardized_SMILES>  (196) 
CC(C)CC(C/C=C1\CC(CO)(COC(=S)C(C)(C)C)OC1=O)CC(C)C

>  <Name>  (196) 
nan

>  <Pocket>  (196) 
nan

>  <ATP_Site>  (196) 
nan

>  <Peripheral>  (196) 
nan

>  <Num_H_Atoms_ProtBoundConf>  (196) 
nan

>  <Num_Resolved_Atoms>  (196) 
nan

>  <Num_Not_Resolved_Atoms>  (196) 
nan

$$$$
CHEMBL3687431
     RDKit          3D

  0  0  0  0  0  0  0  0  0  0999 V3000
M  V30 BEGIN CTAB
M  V30 COUNTS 62 65 0 0 0
M  V30 BEGIN ATOM
M  V30 1 C 0.151545 -0.856831 3.320075 0
M  V30 2 C 0.776723 -0.821539 1.932160 0 CFG=1
M  V30 3 C 1.860345 0.195308 1.982428 0
M  V30 4 N 2.716333 0.058104 0.848133 0
M  V30 5 C 3.005195 1.226640 0.052854 0
M  V30 6 C 4.351081 1.537882 0.016207 0
M  V30 7 C 4.764404 2.652252 -0.720826 0
M  V30 8 N 3.884557 3.412627 -1.383599 0
M  V30 9 C 2.591138 3.100929 -1.339462 0
M  V30 10 C 2.117709 2.024256 -0.637562 0
M  V30 11 N 0.756599 1.617391 -0.536831 0
M  V30 12 C 0.450140 0.714763 -1.578448 0
M  V30 13 O 1.451370 0.490721 -2.338767 0
M  V30 14 C -0.845618 0.084581 -1.801682 0
M  V30 15 C -0.959033 -0.773479 -2.874323 0
M  V30 16 C -2.147903 -1.424103 -3.174583 0
M  V30 17 C -3.275141 -1.225803 -2.389996 0
M  V30 18 F -4.443466 -1.854218 -2.671570 0
M  V30 19 C -3.112428 -0.352887 -1.320809 0
M  V30 20 C -4.252591 -0.094832 -0.452278 0
M  V30 21 C -5.101164 0.967144 -0.777956 0
M  V30 22 F -4.831968 1.716850 -1.888886 0
M  V30 23 C -6.198468 1.276507 -0.010210 0
M  V30 24 C -6.512350 0.542918 1.127949 0
M  V30 25 C -5.673414 -0.519881 1.464348 0
M  V30 26 C -4.590523 -0.807657 0.687151 0
M  V30 27 F -3.744955 -1.828697 0.969675 0
M  V30 28 N -1.956767 0.265971 -1.046736 0
M  V30 29 C 3.274235 -1.240847 0.519742 0
M  V30 30 C 2.228885 -2.319142 0.470719 0 CFG=1
M  V30 31 N 2.921620 -3.592136 0.587881 0
M  V30 32 C 1.115227 -2.167868 1.437107 0 CFG=1
M  V30 33 N 1.409226 -3.022059 2.574994 0
M  V30 34 S 0.291488 -4.310285 2.733642 0
M  V30 35 C -1.366532 -3.797228 2.999211 0
M  V30 36 O 0.712775 -5.119359 3.939594 0
M  V30 37 O 0.391816 -5.250917 1.552684 0
M  V30 38 H -0.954332 -0.910951 3.285642 0
M  V30 39 H 0.546511 -1.776751 3.815954 0
M  V30 40 H 0.504627 -0.021114 3.965714 0
M  V30 41 H -0.041408 -0.361660 1.299996 0
M  V30 42 H 1.397254 1.216032 2.010486 0
M  V30 43 H 2.417181 0.058944 2.946982 0
M  V30 44 H 5.134828 0.986086 0.517358 0
M  V30 45 H 5.797931 3.004807 -0.829816 0
M  V30 46 H 1.815434 3.663687 -1.847414 0
M  V30 47 H -0.026137 1.855427 0.140320 0
M  V30 48 H -0.104275 -0.971522 -3.531777 0
M  V30 49 H -2.175282 -2.087598 -4.032067 0
M  V30 50 H -6.869119 2.111072 -0.262233 0
M  V30 51 H -7.366734 0.758067 1.755172 0
M  V30 52 H -5.874133 -1.121919 2.340659 0
M  V30 53 H 4.065133 -1.443452 1.280581 0
M  V30 54 H 3.814969 -1.124529 -0.442028 0
M  V30 55 H 1.809457 -2.306648 -0.559824 0
M  V30 56 H 3.793410 -3.530735 1.154475 0
M  V30 57 H 3.070157 -4.059652 -0.332847 0
M  V30 58 H 0.191104 -2.630800 0.980048 0
M  V30 59 H 2.355803 -3.406843 2.600555 0
M  V30 60 H -1.715611 -2.982031 2.338740 0
M  V30 61 H -1.582298 -3.561886 4.065780 0
M  V30 62 H -2.015742 -4.683348 2.751222 0
M  V30 END ATOM
M  V30 BEGIN BOND
M  V30 1 1 1 2
M  V30 2 1 2 3
M  V30 3 1 3 4
M  V30 4 1 4 5
M  V30 5 2 5 6
M  V30 6 1 6 7
M  V30 7 2 7 8
M  V30 8 1 8 9
M  V30 9 2 9 10
M  V30 10 1 10 11
M  V30 11 1 11 12
M  V30 12 2 12 13
M  V30 13 1 12 14
M  V30 14 2 14 15
M  V30 15 1 15 16
M  V30 16 2 16 17
M  V30 17 1 17 18
M  V30 18 1 17 19
M  V30 19 1 19 20
M  V30 20 2 20 21
M  V30 21 1 21 22
M  V30 22 1 21 23
M  V30 23 2 23 24
M  V30 24 1 24 25
M  V30 25 2 25 26
M  V30 26 1 26 27
M  V30 27 2 19 28
M  V30 28 1 4 29
M  V30 29 1 29 30
M  V30 30 1 30 31
M  V30 31 1 30 32
M  V30 32 1 32 33
M  V30 33 1 33 34
M  V30 34 1 34 35
M  V30 35 2 34 36
M  V30 36 2 34 37
M  V30 37 1 32 2
M  V30 38 1 10 5
M  V30 39 1 28 14
M  V30 40 1 26 20
M  V30 41 1 1 38
M  V30 42 1 1 39
M  V30 43 1 1 40
M  V30 44 1 2 41 CFG=3
M  V30 45 1 3 42
M  V30 46 1 3 43
M  V30 47 1 6 44
M  V30 48 1 7 45
M  V30 49 1 9 46
M  V30 50 1 11 47
M  V30 51 1 15 48
M  V30 52 1 16 49
M  V30 53 1 23 50
M  V30 54 1 24 51
M  V30 55 1 25 52
M  V30 56 1 29 53
M  V30 57 1 29 54
M  V30 58 1 30 55 CFG=3
M  V30 59 1 31 56
M  V30 60 1 31 57
M  V30 61 1 32 58 CFG=3
M  V30 62 1 33 59
M  V30 63 1 35 60
M  V30 64 1 35 61
M  V30 65 1 35 62
M  V30 END BOND
M  V30 END CTAB
M  END
>  <Dataset>  (197) 
ChEMBL_Kinases

>  <Ligand_Instance>  (197) 
nan

>  <PDB_ID>  (197) 
nan

>  <Standardized_SMILES>  (197) 
C[C@H]1CN(c2ccncc2NC(=O)c2ccc(F)c(-c3c(F)cccc3F)n2)C[C@@H](N)[C@H]1NS(C)(=O)=O

>  <Name>  (197) 
nan

>  <Pocket>  (197) 
nan

>  <ATP_Site>  (197) 
nan

>  <Peripheral>  (197) 
nan

>  <Num_H_Atoms_ProtBoundConf>  (197) 
nan

>  <Num_Resolved_Atoms>  (197) 
nan

>  <Num_Not_Resolved_Atoms>  (197) 
nan

$$$$
CHEMBL434560
     RDKit          3D

  0  0  0  0  0  0  0  0  0  0999 V3000
M  V30 BEGIN CTAB
M  V30 COUNTS 49 50 0 0 0
M  V30 BEGIN ATOM
M  V30 1 C 4.327065 -4.321289 3.275694 0
M  V30 2 S 4.783386 -4.716718 1.606236 0
M  V30 3 O 6.250221 -4.387954 1.424563 0
M  V30 4 O 4.514211 -6.147768 1.298516 0
M  V30 5 C 3.837787 -3.628924 0.582172 0
M  V30 6 C 4.312416 -2.394529 0.196069 0
M  V30 7 C 3.541967 -1.577018 -0.600922 0
M  V30 8 C 2.290450 -1.957780 -1.033067 0
M  V30 9 C 1.341213 -1.196980 -1.886467 0
M  V30 10 N 0.487243 -0.429688 -1.011484 0
M  V30 11 C 0.788627 0.767109 -0.314824 0
M  V30 12 O 1.938524 1.270731 -0.441626 0
M  V30 13 C -0.191574 1.430321 0.542269 0
M  V30 14 C 0.152318 2.591160 1.202613 0
M  V30 15 C -0.673471 3.312340 2.038316 0
M  V30 16 N -0.242468 4.500571 2.681862 0
M  V30 17 C -1.943763 2.809958 2.211502 0
M  V30 18 C -2.843877 3.518502 3.068688 0
M  V30 19 N -3.570212 4.075941 3.767393 0
M  V30 20 C -2.318823 1.634342 1.553719 0
M  V30 21 N -3.628973 1.113478 1.731492 0
M  V30 22 C -4.072732 -0.084857 1.084543 0
M  V30 23 C -4.039620 -0.036787 -0.415128 0
M  V30 24 C -4.541458 -1.380704 -0.911928 0
M  V30 25 O -5.842425 -1.588449 -0.452435 0
M  V30 26 N -1.441117 1.001986 0.758095 0
M  V30 27 C 1.864526 -3.221699 -0.607886 0
M  V30 28 C 2.599617 -4.073844 0.188829 0
M  V30 29 H 4.905236 -4.849183 4.034089 0
M  V30 30 H 4.481472 -3.230943 3.424839 0
M  V30 31 H 3.226401 -4.480841 3.355162 0
M  V30 32 H 5.289593 -2.060064 0.515020 0
M  V30 33 H 3.861860 -0.603605 -0.936130 0
M  V30 34 H 1.894467 -0.558708 -2.607157 0
M  V30 35 H 0.726020 -1.893025 -2.471349 0
M  V30 36 H -0.505408 -0.774832 -0.841002 0
M  V30 37 H 1.153164 2.992588 1.069705 0
M  V30 38 H 0.521484 4.774714 3.344150 0
M  V30 39 H -0.647954 5.460349 2.618828 0
M  V30 40 H -4.297460 1.620004 2.356491 0
M  V30 41 H -3.360301 -0.882476 1.383182 0
M  V30 42 H -5.073412 -0.377224 1.416273 0
M  V30 43 H -4.595605 0.793277 -0.857628 0
M  V30 44 H -2.994994 0.058917 -0.777701 0
M  V30 45 H -4.496559 -1.464973 -2.008209 0
M  V30 46 H -3.910738 -2.154770 -0.446459 0
M  V30 47 H -6.369333 -0.735685 -0.436041 0
M  V30 48 H 0.888462 -3.589711 -0.909103 0
M  V30 49 H 2.217447 -5.032712 0.481840 0
M  V30 END ATOM
M  V30 BEGIN BOND
M  V30 1 1 1 2
M  V30 2 2 2 3
M  V30 3 2 2 4
M  V30 4 1 2 5
M  V30 5 2 5 6
M  V30 6 1 6 7
M  V30 7 2 7 8
M  V30 8 1 8 9
M  V30 9 1 9 10
M  V30 10 1 10 11
M  V30 11 2 11 12
M  V30 12 1 11 13
M  V30 13 2 13 14
M  V30 14 1 14 15
M  V30 15 1 15 16
M  V30 16 2 15 17
M  V30 17 1 17 18
M  V30 18 3 18 19
M  V30 19 1 17 20
M  V30 20 1 20 21
M  V30 21 1 21 22
M  V30 22 1 22 23
M  V30 23 1 23 24
M  V30 24 1 24 25
M  V30 25 2 20 26
M  V30 26 1 8 27
M  V30 27 2 27 28
M  V30 28 1 28 5
M  V30 29 1 26 13
M  V30 30 1 1 29
M  V30 31 1 1 30
M  V30 32 1 1 31
M  V30 33 1 6 32
M  V30 34 1 7 33
M  V30 35 1 9 34
M  V30 36 1 9 35
M  V30 37 1 10 36
M  V30 38 1 14 37
M  V30 39 1 16 38
M  V30 40 1 16 39
M  V30 41 1 21 40
M  V30 42 1 22 41
M  V30 43 1 22 42
M  V30 44 1 23 43
M  V30 45 1 23 44
M  V30 46 1 24 45
M  V30 47 1 24 46
M  V30 48 1 25 47
M  V30 49 1 27 48
M  V30 50 1 28 49
M  V30 END BOND
M  V30 END CTAB
M  END
>  <Dataset>  (198) 
ChEMBL_Kinases

>  <Ligand_Instance>  (198) 
nan

>  <PDB_ID>  (198) 
nan

>  <Standardized_SMILES>  (198) 
CS(=O)(=O)c1ccc(CNC(=O)c2cc(N)c(C#N)c(NCCCO)n2)cc1

>  <Name>  (198) 
nan

>  <Pocket>  (198) 
nan

>  <ATP_Site>  (198) 
nan

>  <Peripheral>  (198) 
nan

>  <Num_H_Atoms_ProtBoundConf>  (198) 
nan

>  <Num_Resolved_Atoms>  (198) 
nan

>  <Num_Not_Resolved_Atoms>  (198) 
nan

$$$$
CHEMBL268507
     RDKit          3D

  0  0  0  0  0  0  0  0  0  0999 V3000
M  V30 BEGIN CTAB
M  V30 COUNTS 51 53 0 0 0
M  V30 BEGIN ATOM
M  V30 1 C 1.405252 4.084304 -0.272871 0
M  V30 2 O 2.114021 2.878320 -0.354382 0
M  V30 3 C 3.490397 2.793883 -0.345558 0
M  V30 4 C 4.183063 3.978835 -0.252078 0
M  V30 5 C 5.558549 3.930866 -0.243337 0
M  V30 6 C 6.234877 2.732382 -0.325594 0
M  V30 7 F 7.587832 2.661727 -0.318876 0
M  V30 8 C 5.472562 1.597742 -0.415682 0
M  V30 9 C 4.074595 1.547448 -0.431514 0
M  V30 10 C 3.374608 0.279521 -0.507992 0
M  V30 11 O 3.880342 -0.389902 -1.454777 0
M  V30 12 C 2.285436 -0.310665 0.247758 0
M  V30 13 C 1.673434 0.227774 1.354096 0
M  V30 14 N 0.678575 -0.437456 1.966873 0
M  V30 15 C 0.249957 -1.645464 1.522382 0
M  V30 16 N -0.800969 -2.362889 2.158462 0
M  V30 17 C -1.231508 -3.648460 1.654601 0
M  V30 18 C -2.359894 -4.149140 2.547697 0
M  V30 19 C -3.466022 -3.132946 2.677960 0
M  V30 20 N -3.458630 -2.242718 1.562596 0
M  V30 21 S -4.844885 -1.225139 1.508338 0
M  V30 22 C -6.288340 -2.252674 1.347600 0
M  V30 23 O -4.830118 -0.313326 0.329620 0
M  V30 24 O -4.986636 -0.394589 2.734130 0
M  V30 25 C -3.177595 -2.869131 0.311192 0
M  V30 26 C -1.830172 -3.536448 0.266729 0
M  V30 27 N 0.847788 -2.173967 0.440359 0
M  V30 28 C 1.842471 -1.536115 -0.193552 0
M  V30 29 N 2.366678 -2.247126 -1.332678 0
M  V30 30 H 1.491365 4.484438 0.760809 0
M  V30 31 H 1.779290 4.863042 -0.974686 0
M  V30 32 H 0.322026 3.854674 -0.426190 0
M  V30 33 H 3.699636 4.929306 -0.186356 0
M  V30 34 H 6.134886 4.846267 -0.170881 0
M  V30 35 H 6.015903 0.663144 -0.479765 0
M  V30 36 H 2.003516 1.169696 1.719818 0
M  V30 37 H -1.245407 -1.911803 3.008887 0
M  V30 38 H -0.430084 -4.389779 1.672229 0
M  V30 39 H -1.911247 -4.365459 3.535523 0
M  V30 40 H -2.756662 -5.068074 2.100375 0
M  V30 41 H -4.423303 -3.693816 2.741327 0
M  V30 42 H -3.387301 -2.592840 3.656229 0
M  V30 43 H -6.250702 -3.054745 2.109984 0
M  V30 44 H -7.224556 -1.635804 1.480048 0
M  V30 45 H -6.323455 -2.734199 0.336714 0
M  V30 46 H -3.243048 -2.090080 -0.474394 0
M  V30 47 H -4.023556 -3.571525 0.101750 0
M  V30 48 H -1.158174 -3.072626 -0.468445 0
M  V30 49 H -2.015876 -4.590922 -0.077627 0
M  V30 50 H 3.258888 -2.773409 -1.168810 0
M  V30 51 H 1.889893 -2.236840 -2.253380 0
M  V30 END ATOM
M  V30 BEGIN BOND
M  V30 1 1 1 2
M  V30 2 1 2 3
M  V30 3 2 3 4
M  V30 4 1 4 5
M  V30 5 2 5 6
M  V30 6 1 6 7
M  V30 7 1 6 8
M  V30 8 2 8 9
M  V30 9 1 9 10
M  V30 10 2 10 11
M  V30 11 1 10 12
M  V30 12 2 12 13
M  V30 13 1 13 14
M  V30 14 2 14 15
M  V30 15 1 15 16
M  V30 16 1 16 17
M  V30 17 1 17 18
M  V30 18 1 18 19
M  V30 19 1 19 20
M  V30 20 1 20 21
M  V30 21 1 21 22
M  V30 22 2 21 23
M  V30 23 2 21 24
M  V30 24 1 20 25
M  V30 25 1 25 26
M  V30 26 1 15 27
M  V30 27 2 27 28
M  V30 28 1 28 29
M  V30 29 1 9 3
M  V30 30 1 28 12
M  V30 31 1 26 17
M  V30 32 1 1 30
M  V30 33 1 1 31
M  V30 34 1 1 32
M  V30 35 1 4 33
M  V30 36 1 5 34
M  V30 37 1 8 35
M  V30 38 1 13 36
M  V30 39 1 16 37
M  V30 40 1 17 38
M  V30 41 1 18 39
M  V30 42 1 18 40
M  V30 43 1 19 41
M  V30 44 1 19 42
M  V30 45 1 22 43
M  V30 46 1 22 44
M  V30 47 1 22 45
M  V30 48 1 25 46
M  V30 49 1 25 47
M  V30 50 1 26 48
M  V30 51 1 26 49
M  V30 52 1 29 50
M  V30 53 1 29 51
M  V30 END BOND
M  V30 END CTAB
M  END
>  <Dataset>  (199) 
ChEMBL_Kinases

>  <Ligand_Instance>  (199) 
nan

>  <PDB_ID>  (199) 
nan

>  <Standardized_SMILES>  (199) 
COc1ccc(F)cc1C(=O)c1cnc(NC2CCN(S(C)(=O)=O)CC2)nc1N

>  <Name>  (199) 
nan

>  <Pocket>  (199) 
nan

>  <ATP_Site>  (199) 
nan

>  <Peripheral>  (199) 
nan

>  <Num_H_Atoms_ProtBoundConf>  (199) 
nan

>  <Num_Resolved_Atoms>  (199) 
nan

>  <Num_Not_Resolved_Atoms>  (199) 
nan

$$$$
CHEMBL3687430
     RDKit          3D

  0  0  0  0  0  0  0  0  0  0999 V3000
M  V30 BEGIN CTAB
M  V30 COUNTS 56 59 0 0 0
M  V30 BEGIN ATOM
M  V30 1 C 4.799326 -3.796328 0.369564 0
M  V30 2 C 3.516236 -3.062042 0.584832 0 CFG=1
M  V30 3 C 3.677441 -1.566019 0.343402 0
M  V30 4 N 2.397792 -0.921922 0.141227 0
M  V30 5 C 2.596845 0.438030 -0.104064 0
M  V30 6 C 3.789607 1.098764 -0.277344 0
M  V30 7 C 4.006067 2.427508 -0.546416 0
M  V30 8 N 2.927011 3.213189 -0.661238 0
M  V30 9 C 1.682143 2.669018 -0.507973 0
M  V30 10 C 1.552642 1.317191 -0.237117 0
M  V30 11 N 0.168186 1.042206 -0.117199 0
M  V30 12 C -0.149226 1.338838 1.265760 0
M  V30 13 O 0.828991 1.738204 1.954592 0
M  V30 14 C -1.506769 1.191178 1.842171 0
M  V30 15 C -1.640514 1.514600 3.174282 0
M  V30 16 C -2.892764 1.387600 3.739534 0
M  V30 17 C -4.013089 0.958995 3.056519 0
M  V30 18 F -5.237239 0.835187 3.610123 0
M  V30 19 C -3.788304 0.652690 1.713088 0
M  V30 20 C -4.879707 0.186489 0.864044 0
M  V30 21 C -5.726232 0.975983 0.107400 0
M  V30 22 F -5.507532 2.317934 0.171104 0
M  V30 23 C -6.722316 0.394862 -0.654249 0
M  V30 24 C -6.889987 -0.992101 -0.672650 0
M  V30 25 C -6.034826 -1.759509 0.089132 0
M  V30 26 C -5.036483 -1.193697 0.853947 0
M  V30 27 F -4.237833 -2.033524 1.575891 0
M  V30 28 N -2.577715 0.768182 1.139111 0
M  V30 29 C 1.113169 -1.564474 0.167921 0
M  V30 30 C 1.151568 -3.073029 0.150099 0 CFG=1
M  V30 31 N 0.041040 -3.624696 -0.614984 0
M  V30 32 C 2.455481 -3.561756 -0.413582 0 CFG=1
M  V30 33 N 2.742642 -3.030527 -1.716777 0
M  V30 34 H 5.686195 -3.193237 0.702332 0
M  V30 35 H 4.856261 -4.735645 0.966953 0
M  V30 36 H 4.955565 -4.084454 -0.706189 0
M  V30 37 H 3.115044 -3.292713 1.587172 0
M  V30 38 H 4.131831 -1.128094 1.249235 0
M  V30 39 H 4.371703 -1.391095 -0.507090 0
M  V30 40 H 4.720317 0.521641 -0.191992 0
M  V30 41 H 4.993525 2.842460 -0.664190 0
M  V30 42 H 0.924423 3.428048 -0.629304 0
M  V30 43 H -0.713687 0.726958 -0.611616 0
M  V30 44 H -0.789613 1.853352 3.743074 0
M  V30 45 H -3.048029 1.633948 4.798744 0
M  V30 46 H -7.354016 1.062636 -1.225560 0
M  V30 47 H -7.679082 -1.426322 -1.278280 0
M  V30 48 H -6.169396 -2.829822 0.070680 0
M  V30 49 H 0.678828 -1.318731 1.180751 0
M  V30 50 H 0.459926 -1.244497 -0.672421 0
M  V30 51 H 1.083226 -3.519658 1.188610 0
M  V30 52 H 0.241953 -4.598798 -0.915270 0
M  V30 53 H -0.227418 -3.038044 -1.425663 0
M  V30 54 H 2.440166 -4.651030 -0.424330 0
M  V30 55 H 3.447081 -3.661016 -2.177778 0
M  V30 56 H 1.893050 -3.048773 -2.325171 0
M  V30 END ATOM
M  V30 BEGIN BOND
M  V30 1 1 1 2
M  V30 2 1 2 3
M  V30 3 1 3 4
M  V30 4 1 4 5
M  V30 5 2 5 6
M  V30 6 1 6 7
M  V30 7 2 7 8
M  V30 8 1 8 9
M  V30 9 2 9 10
M  V30 10 1 10 11
M  V30 11 1 11 12
M  V30 12 2 12 13
M  V30 13 1 12 14
M  V30 14 2 14 15
M  V30 15 1 15 16
M  V30 16 2 16 17
M  V30 17 1 17 18
M  V30 18 1 17 19
M  V30 19 1 19 20
M  V30 20 2 20 21
M  V30 21 1 21 22
M  V30 22 1 21 23
M  V30 23 2 23 24
M  V30 24 1 24 25
M  V30 25 2 25 26
M  V30 26 1 26 27
M  V30 27 2 19 28
M  V30 28 1 4 29
M  V30 29 1 29 30
M  V30 30 1 30 31
M  V30 31 1 30 32
M  V30 32 1 32 33
M  V30 33 1 32 2
M  V30 34 1 10 5
M  V30 35 1 28 14
M  V30 36 1 26 20
M  V30 37 1 1 34
M  V30 38 1 1 35
M  V30 39 1 1 36
M  V30 40 1 2 37 CFG=1
M  V30 41 1 3 38
M  V30 42 1 3 39
M  V30 43 1 6 40
M  V30 44 1 7 41
M  V30 45 1 9 42
M  V30 46 1 11 43
M  V30 47 1 15 44
M  V30 48 1 16 45
M  V30 49 1 23 46
M  V30 50 1 24 47
M  V30 51 1 25 48
M  V30 52 1 29 49
M  V30 53 1 29 50
M  V30 54 1 30 51 CFG=1
M  V30 55 1 31 52
M  V30 56 1 31 53
M  V30 57 1 32 54 CFG=3
M  V30 58 1 33 55
M  V30 59 1 33 56
M  V30 END BOND
M  V30 END CTAB
M  END
>  <Dataset>  (200) 
ChEMBL_Kinases

>  <Ligand_Instance>  (200) 
nan

>  <PDB_ID>  (200) 
nan

>  <Standardized_SMILES>  (200) 
C[C@H]1CN(c2ccncc2NC(=O)c2ccc(F)c(-c3c(F)cccc3F)n2)C[C@@H](N)[C@H]1N

>  <Name>  (200) 
nan

>  <Pocket>  (200) 
nan

>  <ATP_Site>  (200) 
nan

>  <Peripheral>  (200) 
nan

>  <Num_H_Atoms_ProtBoundConf>  (200) 
nan

>  <Num_Resolved_Atoms>  (200) 
nan

>  <Num_Not_Resolved_Atoms>  (200) 
nan

$$$$
CHEMBL268550
     RDKit          3D

  0  0  0  0  0  0  0  0  0  0999 V3000
M  V30 BEGIN CTAB
M  V30 COUNTS 29 32 0 0 0
M  V30 BEGIN ATOM
M  V30 1 N -3.284802 -1.377411 2.034434 0
M  V30 2 C -2.038428 -1.671348 1.410623 0
M  V30 3 N -1.795180 -2.878175 0.894393 0
M  V30 4 C -0.630289 -3.171396 0.305010 0
M  V30 5 C -0.366006 -4.421988 -0.235061 0
M  V30 6 C 0.873435 -4.660435 -0.836921 0
M  V30 7 C 1.861385 -3.704451 -0.923351 0
M  V30 8 O 3.067160 -4.017589 -1.536720 0
M  V30 9 C 1.608504 -2.439516 -0.383141 0
M  V30 10 C 0.375065 -2.242058 0.202134 0
M  V30 11 C 0.071560 -0.998646 0.756201 0
M  V30 12 N 0.803741 0.132750 0.837284 0
M  V30 13 C 0.129752 1.113992 1.456821 0
M  V30 14 C 0.599233 2.470889 1.725515 0
M  V30 15 C 1.701316 3.055441 1.135257 0
M  V30 16 C 1.847277 4.341780 1.624660 0
M  V30 17 C 0.782996 4.477600 2.523468 0
M  V30 18 O 0.106231 3.356699 2.528209 0
M  V30 19 N -1.058655 0.565345 1.767150 0
M  V30 20 N -1.104540 -0.691059 1.355217 0
M  V30 21 H -3.415393 -0.650321 2.772421 0
M  V30 22 H -4.189494 -1.857556 1.817301 0
M  V30 23 H -1.118000 -5.203602 -0.187792 0
M  V30 24 H 1.091168 -5.634661 -1.262620 0
M  V30 25 H 3.797626 -3.316532 -1.495933 0
M  V30 26 H 2.360236 -1.672508 -0.435319 0
M  V30 27 H 2.374544 2.613286 0.399450 0
M  V30 28 H 2.647103 5.035621 1.322865 0
M  V30 29 H 0.625352 5.393451 3.077139 0
M  V30 END ATOM
M  V30 BEGIN BOND
M  V30 1 1 1 2
M  V30 2 2 2 3
M  V30 3 1 3 4
M  V30 4 2 4 5
M  V30 5 1 5 6
M  V30 6 2 6 7
M  V30 7 1 7 8
M  V30 8 1 7 9
M  V30 9 2 9 10
M  V30 10 1 10 11
M  V30 11 2 11 12
M  V30 12 1 12 13
M  V30 13 1 13 14
M  V30 14 2 14 15
M  V30 15 1 15 16
M  V30 16 2 16 17
M  V30 17 1 17 18
M  V30 18 2 13 19
M  V30 19 1 19 20
M  V30 20 1 20 2
M  V30 21 1 10 4
M  V30 22 1 20 11
M  V30 23 1 18 14
M  V30 24 1 1 21
M  V30 25 1 1 22
M  V30 26 1 5 23
M  V30 27 1 6 24
M  V30 28 1 8 25
M  V30 29 1 9 26
M  V30 30 1 15 27
M  V30 31 1 16 28
M  V30 32 1 17 29
M  V30 END BOND
M  V30 END CTAB
M  END
>  <Dataset>  (201) 
ChEMBL_Kinases

>  <Ligand_Instance>  (201) 
nan

>  <PDB_ID>  (201) 
nan

>  <Standardized_SMILES>  (201) 
Nc1nc2ccc(O)cc2c2nc(-c3ccco3)nn12

>  <Name>  (201) 
nan

>  <Pocket>  (201) 
nan

>  <ATP_Site>  (201) 
nan

>  <Peripheral>  (201) 
nan

>  <Num_H_Atoms_ProtBoundConf>  (201) 
nan

>  <Num_Resolved_Atoms>  (201) 
nan

>  <Num_Not_Resolved_Atoms>  (201) 
nan

$$$$
CHEMBL4445974
     RDKit          3D

  0  0  0  0  0  0  0  0  0  0999 V3000
M  V30 BEGIN CTAB
M  V30 COUNTS 48 51 0 0 0
M  V30 BEGIN ATOM
M  V30 1 O 1.645177 -3.327271 3.155072 0
M  V30 2 C 2.021951 -2.100380 3.119055 0
M  V30 3 C 3.492862 -2.105612 3.062119 0
M  V30 4 O 3.975466 -0.787621 3.011515 0
M  V30 5 C 3.739574 0.133474 2.023317 0
M  V30 6 C 3.021031 0.113623 0.826498 0
M  V30 7 C 2.964854 1.212151 0.026840 0
M  V30 8 C 3.599161 2.372182 0.350001 0
M  V30 9 C 3.472724 3.423125 -0.537505 0
M  V30 10 O 2.796605 3.293061 -1.592263 0
M  V30 11 C 4.118616 4.600658 -0.206125 0
M  V30 12 C 4.831916 4.627499 0.977456 0
M  V30 13 O 4.908521 3.589074 1.773066 0
M  V30 14 C 4.320630 2.448581 1.515491 0
M  V30 15 C 4.390688 1.328751 2.352215 0
M  V30 16 N 0.968632 -1.145224 3.144621 0
M  V30 17 C -0.357278 -1.657232 3.199016 0
M  V30 18 C -1.104332 -1.946015 4.321568 0
M  V30 19 C -2.386916 -2.441684 4.210593 0
M  V30 20 C -2.944740 -2.657187 2.949316 0
M  V30 21 C -2.183460 -2.362820 1.820886 0
M  V30 22 N -2.777517 -2.592254 0.526452 0
M  V30 23 C -3.490913 -1.536231 -0.050841 0
M  V30 24 O -3.706248 -0.399700 0.374783 0
M  V30 25 C -4.046100 -1.925826 -1.388857 0
M  V30 26 C -4.077013 -2.967058 -2.211376 0
M  V30 27 N -4.747346 -2.734585 -3.310931 0
M  V30 28 C -5.301856 -1.851047 -3.713369 0
M  V30 29 C -6.077921 -1.575444 -4.982216 0
M  V30 30 F -7.292235 -2.218993 -4.953306 0
M  V30 31 F -5.255368 -2.005094 -6.003967 0
M  V30 32 F -6.239725 -0.207166 -5.139983 0
M  V30 33 S -5.036539 -0.590731 -2.285982 0
M  V30 34 C -0.887083 -1.861826 1.934866 0
M  V30 35 H 3.859809 -2.608417 3.991048 0
M  V30 36 H 3.829953 -2.701582 2.182004 0
M  V30 37 H 2.575740 -0.870662 0.708621 0
M  V30 38 H 2.359599 1.008243 -0.861214 0
M  V30 39 H 4.018464 5.426540 -0.904806 0
M  V30 40 H 5.321669 5.561128 1.202605 0
M  V30 41 H 5.000774 1.545633 3.240022 0
M  V30 42 H 1.398852 -0.192860 3.125319 0
M  V30 43 H -0.564448 -1.737343 5.235031 0
M  V30 44 H -2.913634 -2.645266 5.134240 0
M  V30 45 H -3.954139 -3.047257 2.874228 0
M  V30 46 H -2.631813 -3.536910 0.109647 0
M  V30 47 H -3.535678 -3.848936 -1.832928 0
M  V30 48 H -0.376943 -1.664700 0.992881 0
M  V30 END ATOM
M  V30 BEGIN BOND
M  V30 1 2 1 2
M  V30 2 1 2 3
M  V30 3 1 3 4
M  V30 4 1 4 5
M  V30 5 2 5 6
M  V30 6 1 6 7
M  V30 7 2 7 8
M  V30 8 1 8 9
M  V30 9 2 9 10
M  V30 10 1 9 11
M  V30 11 2 11 12
M  V30 12 1 12 13
M  V30 13 1 13 14
M  V30 14 2 14 15
M  V30 15 1 2 16
M  V30 16 1 16 17
M  V30 17 2 17 18
M  V30 18 1 18 19
M  V30 19 2 19 20
M  V30 20 1 20 21
M  V30 21 1 21 22
M  V30 22 1 22 23
M  V30 23 2 23 24
M  V30 24 1 23 25
M  V30 25 2 25 26
M  V30 26 1 26 27
M  V30 27 2 27 28
M  V30 28 1 28 29
M  V30 29 1 29 30
M  V30 30 1 29 31
M  V30 31 1 29 32
M  V30 32 1 28 33
M  V30 33 2 21 34
M  V30 34 1 15 5
M  V30 35 1 34 17
M  V30 36 1 14 8
M  V30 37 1 33 25
M  V30 38 1 3 35
M  V30 39 1 3 36
M  V30 40 1 6 37
M  V30 41 1 7 38
M  V30 42 1 11 39
M  V30 43 1 12 40
M  V30 44 1 15 41
M  V30 45 1 16 42
M  V30 46 1 18 43
M  V30 47 1 19 44
M  V30 48 1 20 45
M  V30 49 1 22 46
M  V30 50 1 26 47
M  V30 51 1 34 48
M  V30 END BOND
M  V30 END CTAB
M  END
>  <Dataset>  (202) 
ChEMBL_Kinases

>  <Ligand_Instance>  (202) 
nan

>  <PDB_ID>  (202) 
nan

>  <Standardized_SMILES>  (202) 
O=C(COc1ccc2c(=O)ccoc2c1)Nc1cccc(NC(=O)c2cnc(C(F)(F)F)s2)c1

>  <Name>  (202) 
nan

>  <Pocket>  (202) 
nan

>  <ATP_Site>  (202) 
nan

>  <Peripheral>  (202) 
nan

>  <Num_H_Atoms_ProtBoundConf>  (202) 
nan

>  <Num_Resolved_Atoms>  (202) 
nan

>  <Num_Not_Resolved_Atoms>  (202) 
nan

$$$$
CHEMBL3687429
     RDKit          3D

  0  0  0  0  0  0  0  0  0  0999 V3000
M  V30 BEGIN CTAB
M  V30 COUNTS 63 66 0 0 0
M  V30 BEGIN ATOM
M  V30 1 C 1.722444 -2.736936 2.455700 0
M  V30 2 C 2.257499 -2.119866 1.193170 0 CFG=1
M  V30 3 C 1.318392 -2.480797 0.066051 0
M  V30 4 C 1.784822 -1.906850 -1.254962 0 CFG=1
M  V30 5 C 1.022859 -2.416375 -2.371678 0
M  V30 6 C 1.449893 -3.416152 -3.262263 0
M  V30 7 C 0.756321 -3.910614 -4.323796 0
M  V30 8 N -0.467965 -3.416347 -4.578931 0
M  V30 9 C -0.961452 -2.439286 -3.760593 0
M  V30 10 C -0.220612 -1.953945 -2.677365 0
M  V30 11 N -0.942252 -0.975869 -1.984654 0
M  V30 12 C -1.235097 0.416460 -1.927317 0
M  V30 13 O -0.672839 1.118056 -2.795644 0
M  V30 14 C -2.143271 0.889829 -0.885870 0
M  V30 15 C -2.360052 2.250733 -0.920771 0
M  V30 16 C -3.225482 2.759238 0.057105 0
M  V30 17 C -3.813919 1.926886 0.989184 0
M  V30 18 F -4.657435 2.377293 1.952187 0
M  V30 19 C -3.563202 0.564066 0.981660 0
M  V30 20 C -4.120713 -0.417603 1.908615 0
M  V30 21 C -3.549995 -0.791001 3.100615 0
M  V30 22 F -2.369626 -0.157354 3.383077 0
M  V30 23 C -4.173406 -1.732933 3.894566 0
M  V30 24 C -5.366211 -2.294243 3.486660 0
M  V30 25 C -5.965764 -1.929445 2.277046 0
M  V30 26 C -5.330160 -0.980308 1.485053 0
M  V30 27 F -5.930060 -0.641504 0.315260 0
M  V30 28 N -2.718717 0.077919 0.025233 0
M  V30 29 C 2.223043 -0.503583 -1.245687 0
M  V30 30 C 3.097382 -0.228071 -0.035542 0 CFG=1
M  V30 31 N 3.411500 1.188634 -0.050651 0
M  V30 32 C 2.353163 -0.604070 1.252056 0 CFG=2
M  V30 33 N 3.116933 -0.131543 2.346463 0
M  V30 34 S 2.453191 1.021303 3.370767 0
M  V30 35 C 2.041060 2.558166 2.617635 0
M  V30 36 O 3.479024 1.340846 4.434415 0
M  V30 37 O 1.257324 0.535682 4.142085 0
M  V30 38 H 0.866259 -2.217131 2.901557 0
M  V30 39 H 1.355727 -3.757293 2.194494 0
M  V30 40 H 2.583289 -2.901496 3.135578 0
M  V30 41 H 3.264757 -2.512163 1.003034 0
M  V30 42 H 0.306592 -2.232060 0.362680 0
M  V30 43 H 1.347771 -3.587058 -0.032241 0
M  V30 44 H 2.795423 -2.458849 -1.352057 0
M  V30 45 H 2.449308 -3.847061 -3.086423 0
M  V30 46 H 1.182827 -4.682425 -4.944673 0
M  V30 47 H -1.949023 -2.127493 -4.069131 0
M  V30 48 H -1.406806 -1.599559 -1.256309 0
M  V30 49 H -1.893085 2.912367 -1.660915 0
M  V30 50 H -3.443133 3.829788 0.089445 0
M  V30 51 H -3.662511 -1.974088 4.816948 0
M  V30 52 H -5.796725 -3.025620 4.160503 0
M  V30 53 H -6.907462 -2.393753 1.987991 0
M  V30 54 H 2.921978 -0.348731 -2.118156 0
M  V30 55 H 1.519915 0.302259 -1.295855 0
M  V30 56 H 3.994703 -0.874718 -0.080775 0
M  V30 57 H 4.463555 1.310172 -0.004996 0
M  V30 58 H 3.148589 1.636027 -0.966496 0
M  V30 59 H 1.353274 -0.170105 1.145776 0
M  V30 60 H 4.091489 0.119788 2.071611 0
M  V30 61 H 1.573530 2.479044 1.619209 0
M  V30 62 H 1.305632 3.115159 3.236094 0
M  V30 63 H 2.922043 3.232020 2.504520 0
M  V30 END ATOM
M  V30 BEGIN BOND
M  V30 1 1 1 2
M  V30 2 1 2 3
M  V30 3 1 3 4
M  V30 4 1 4 5
M  V30 5 2 5 6
M  V30 6 1 6 7
M  V30 7 2 7 8
M  V30 8 1 8 9
M  V30 9 2 9 10
M  V30 10 1 10 11
M  V30 11 1 11 12
M  V30 12 2 12 13
M  V30 13 1 12 14
M  V30 14 2 14 15
M  V30 15 1 15 16
M  V30 16 2 16 17
M  V30 17 1 17 18
M  V30 18 1 17 19
M  V30 19 1 19 20
M  V30 20 2 20 21
M  V30 21 1 21 22
M  V30 22 1 21 23
M  V30 23 2 23 24
M  V30 24 1 24 25
M  V30 25 2 25 26
M  V30 26 1 26 27
M  V30 27 2 19 28
M  V30 28 1 4 29
M  V30 29 1 29 30
M  V30 30 1 30 31
M  V30 31 1 30 32
M  V30 32 1 32 33
M  V30 33 1 33 34
M  V30 34 1 34 35
M  V30 35 2 34 36
M  V30 36 2 34 37
M  V30 37 1 32 2
M  V30 38 1 10 5
M  V30 39 1 28 14
M  V30 40 1 26 20
M  V30 41 1 1 38
M  V30 42 1 1 39
M  V30 43 1 1 40
M  V30 44 1 2 41 CFG=3
M  V30 45 1 3 42
M  V30 46 1 3 43
M  V30 47 1 4 44 CFG=3
M  V30 48 1 6 45
M  V30 49 1 7 46
M  V30 50 1 9 47
M  V30 51 1 11 48
M  V30 52 1 15 49
M  V30 53 1 16 50
M  V30 54 1 23 51
M  V30 55 1 24 52
M  V30 56 1 25 53
M  V30 57 1 29 54
M  V30 58 1 29 55
M  V30 59 1 30 56 CFG=3
M  V30 60 1 31 57
M  V30 61 1 31 58
M  V30 62 1 32 59 CFG=3
M  V30 63 1 33 60
M  V30 64 1 35 61
M  V30 65 1 35 62
M  V30 66 1 35 63
M  V30 END BOND
M  V30 END CTAB
M  END
>  <Dataset>  (203) 
ChEMBL_Kinases

>  <Ligand_Instance>  (203) 
nan

>  <PDB_ID>  (203) 
nan

>  <Standardized_SMILES>  (203) 
C[C@H]1C[C@@H](c2ccncc2NC(=O)c2ccc(F)c(-c3c(F)cccc3F)n2)C[C@@H](N)[C@@H]1NS(C)(=O)=O

>  <Name>  (203) 
nan

>  <Pocket>  (203) 
nan

>  <ATP_Site>  (203) 
nan

>  <Peripheral>  (203) 
nan

>  <Num_H_Atoms_ProtBoundConf>  (203) 
nan

>  <Num_Resolved_Atoms>  (203) 
nan

>  <Num_Not_Resolved_Atoms>  (203) 
nan

$$$$
CHEMBL3687427
     RDKit          3D

  0  0  0  0  0  0  0  0  0  0999 V3000
M  V30 BEGIN CTAB
M  V30 COUNTS 67 71 0 0 0
M  V30 BEGIN ATOM
M  V30 1 C 4.073306 -2.240378 6.365567 0
M  V30 2 O 4.023095 -1.715308 5.055624 0
M  V30 3 C 3.512685 -2.643416 4.172922 0
M  V30 4 C 3.447866 -2.107765 2.764854 0
M  V30 5 C 2.359659 -1.439530 2.235109 0
M  V30 6 N 2.674776 -1.113583 0.946925 0
M  V30 7 C 1.685140 -0.397541 0.164270 0 CFG=2
M  V30 8 C 2.028157 -0.371228 -1.297938 0 CFG=2
M  V30 9 N 3.296792 0.157043 -1.637923 0
M  V30 10 C 0.913939 0.322138 -2.038731 0
M  V30 11 N 0.611774 1.592997 -1.446522 0
M  V30 12 C -0.434424 2.435300 -1.840190 0
M  V30 13 C 0.036740 3.679590 -2.275808 0
M  V30 14 C -0.846630 4.665035 -2.711744 0
M  V30 15 N -2.166143 4.430599 -2.718717 0
M  V30 16 C -2.631670 3.242462 -2.303865 0
M  V30 17 C -1.799161 2.236279 -1.863797 0
M  V30 18 N -2.187734 0.951958 -1.405500 0
M  V30 19 C -2.410586 0.969121 0.018898 0
M  V30 20 O -2.224943 2.083573 0.571178 0
M  V30 21 C -2.822536 -0.243513 0.735240 0
M  V30 22 C -3.013056 -0.145210 2.086174 0
M  V30 23 C -3.395686 -1.286381 2.730592 0
M  V30 24 C -3.593871 -2.508805 2.088484 0
M  V30 25 F -3.966454 -3.660360 2.653391 0
M  V30 26 C -3.382234 -2.533225 0.718756 0
M  V30 27 C -3.525046 -3.682652 -0.159068 0
M  V30 28 C -2.405750 -4.444200 -0.333805 0
M  V30 29 F -1.228334 -4.164574 0.262679 0
M  V30 30 C -2.391444 -5.572613 -1.143695 0
M  V30 31 C -3.555986 -5.929829 -1.791859 0
M  V30 32 C -4.705665 -5.173898 -1.631359 0
M  V30 33 C -4.697610 -4.046271 -0.814538 0
M  V30 34 F -5.780727 -3.275809 -0.621293 0
M  V30 35 N -3.009833 -1.421811 0.092867 0
M  V30 36 C 1.459485 2.017612 -0.367482 0
M  V30 37 C 1.374155 0.960458 0.721884 0 CFG=2
M  V30 38 C 2.296164 1.374159 1.838584 0
M  V30 39 N 3.894952 -1.563536 0.710158 0
M  V30 40 N 4.372601 -2.162869 1.791985 0
M  V30 41 H 4.480919 -1.507098 7.085391 0
M  V30 42 H 3.002565 -2.403338 6.680958 0
M  V30 43 H 4.563232 -3.226178 6.411258 0
M  V30 44 H 4.027985 -3.614413 4.168409 0
M  V30 45 H 2.469538 -2.860783 4.521300 0
M  V30 46 H 1.441394 -1.244265 2.810901 0
M  V30 47 H 0.746989 -1.006806 0.226281 0
M  V30 48 H 2.001332 -1.430534 -1.640551 0
M  V30 49 H 3.355481 0.772943 -2.454890 0
M  V30 50 H 3.984836 0.290006 -0.897415 0
M  V30 51 H 0.011436 -0.316489 -2.056590 0
M  V30 52 H 1.199337 0.462695 -3.122881 0
M  V30 53 H 1.088179 3.991029 -2.317252 0
M  V30 54 H -0.511912 5.627403 -3.050842 0
M  V30 55 H -3.687867 2.937033 -2.265003 0
M  V30 56 H -2.352444 -0.001055 -1.846436 0
M  V30 57 H -2.888119 0.742102 2.671008 0
M  V30 58 H -3.575057 -1.327882 3.795715 0
M  V30 59 H -1.547276 -6.222911 -1.330307 0
M  V30 60 H -3.616282 -6.801969 -2.441718 0
M  V30 61 H -5.643433 -5.409831 -2.116000 0
M  V30 62 H 2.519646 2.174508 -0.645524 0
M  V30 63 H 1.121646 2.965609 0.085767 0
M  V30 64 H 0.340690 1.023859 1.129504 0
M  V30 65 H 1.902627 1.110502 2.839035 0
M  V30 66 H 3.333507 1.012902 1.712962 0
M  V30 67 H 2.356049 2.488726 1.829384 0
M  V30 END ATOM
M  V30 BEGIN BOND
M  V30 1 1 1 2
M  V30 2 1 2 3
M  V30 3 1 3 4
M  V30 4 2 4 5
M  V30 5 1 5 6
M  V30 6 1 6 7
M  V30 7 1 7 8
M  V30 8 1 8 9
M  V30 9 1 8 10
M  V30 10 1 10 11
M  V30 11 1 11 12
M  V30 12 2 12 13
M  V30 13 1 13 14
M  V30 14 2 14 15
M  V30 15 1 15 16
M  V30 16 2 16 17
M  V30 17 1 17 18
M  V30 18 1 18 19
M  V30 19 2 19 20
M  V30 20 1 19 21
M  V30 21 2 21 22
M  V30 22 1 22 23
M  V30 23 2 23 24
M  V30 24 1 24 25
M  V30 25 1 24 26
M  V30 26 1 26 27
M  V30 27 2 27 28
M  V30 28 1 28 29
M  V30 29 1 28 30
M  V30 30 2 30 31
M  V30 31 1 31 32
M  V30 32 2 32 33
M  V30 33 1 33 34
M  V30 34 2 26 35
M  V30 35 1 11 36
M  V30 36 1 36 37
M  V30 37 1 37 38
M  V30 38 1 6 39
M  V30 39 2 39 40
M  V30 40 1 40 4
M  V30 41 1 37 7
M  V30 42 1 17 12
M  V30 43 1 35 21
M  V30 44 1 33 27
M  V30 45 1 1 41
M  V30 46 1 1 42
M  V30 47 1 1 43
M  V30 48 1 3 44
M  V30 49 1 3 45
M  V30 50 1 5 46
M  V30 51 1 7 47 CFG=3
M  V30 52 1 8 48 CFG=3
M  V30 53 1 9 49
M  V30 54 1 9 50
M  V30 55 1 10 51
M  V30 56 1 10 52
M  V30 57 1 13 53
M  V30 58 1 14 54
M  V30 59 1 16 55
M  V30 60 1 18 56
M  V30 61 1 22 57
M  V30 62 1 23 58
M  V30 63 1 30 59
M  V30 64 1 31 60
M  V30 65 1 32 61
M  V30 66 1 36 62
M  V30 67 1 36 63
M  V30 68 1 37 64 CFG=1
M  V30 69 1 38 65
M  V30 70 1 38 66
M  V30 71 1 38 67
M  V30 END BOND
M  V30 END CTAB
M  END
>  <Dataset>  (204) 
ChEMBL_Kinases

>  <Ligand_Instance>  (204) 
nan

>  <PDB_ID>  (204) 
nan

>  <Standardized_SMILES>  (204) 
COCc1cn([C@@H]2[C@H](N)CN(c3ccncc3NC(=O)c3ccc(F)c(-c4c(F)cccc4F)n3)C[C@@H]2C)nn1

>  <Name>  (204) 
nan

>  <Pocket>  (204) 
nan

>  <ATP_Site>  (204) 
nan

>  <Peripheral>  (204) 
nan

>  <Num_H_Atoms_ProtBoundConf>  (204) 
nan

>  <Num_Resolved_Atoms>  (204) 
nan

>  <Num_Not_Resolved_Atoms>  (204) 
nan

$$$$
CHEMBL434158
     RDKit          3D

  0  0  0  0  0  0  0  0  0  0999 V3000
M  V30 BEGIN CTAB
M  V30 COUNTS 47 51 0 0 0
M  V30 BEGIN ATOM
M  V30 1 C 0.034667 -7.411334 -1.255029 0
M  V30 2 C 0.171834 -5.998629 -0.791761 0
M  V30 3 C 1.172784 -5.236917 -1.363723 0
M  V30 4 C 1.369739 -3.921700 -0.993865 0
M  V30 5 C 0.511173 -3.431709 -0.029967 0
M  V30 6 C 0.470922 -2.159318 0.532828 0
M  V30 7 C 1.305190 -0.976235 0.283818 0
M  V30 8 C 2.684156 -0.976787 0.506108 0
M  V30 9 C 3.460234 0.147906 0.267372 0
M  V30 10 N 2.830959 1.253413 -0.191534 0
M  V30 11 C 1.497601 1.272480 -0.412443 0
M  V30 12 N 0.763717 2.394327 -0.892052 0
M  V30 13 C 0.234634 3.276831 0.090181 0
M  V30 14 C -0.500447 4.400230 -0.223761 0
M  V30 15 C -1.042265 5.296121 0.672515 0
M  V30 16 C -0.819894 5.032147 2.028876 0
M  V30 17 C -0.093076 3.926559 2.426072 0
M  V30 18 C 0.406339 3.091624 1.448001 0
M  V30 19 N 0.747643 0.179283 -0.179763 0
M  V30 20 C -0.580740 -2.190741 1.452163 0
M  V30 21 C -0.978966 -1.044630 2.279424 0
M  V30 22 C -0.214981 -0.407872 3.231267 0
M  V30 23 C -0.751782 0.667242 3.926720 0
M  V30 24 C -2.040800 1.075761 3.649516 0
M  V30 25 C -2.838254 0.463745 2.703074 0
M  V30 26 C -2.279684 -0.609449 2.020187 0
M  V30 27 N -1.103510 -3.429419 1.402472 0
M  V30 28 N -0.462774 -4.171990 0.526866 0
M  V30 29 N -0.624534 -5.433499 0.148056 0
M  V30 30 H 0.205666 -7.443796 -2.367561 0
M  V30 31 H 0.810479 -8.062639 -0.817243 0
M  V30 32 H -0.958218 -7.838228 -1.075875 0
M  V30 33 H 1.829348 -5.653850 -2.117940 0
M  V30 34 H 2.136668 -3.268544 -1.403344 0
M  V30 35 H 3.151241 -1.889975 0.876416 0
M  V30 36 H 4.528217 0.154858 0.437305 0
M  V30 37 H 0.570362 2.641413 -1.886823 0
M  V30 38 H -0.696897 4.642163 -1.275273 0
M  V30 39 H -1.605678 6.155530 0.406897 0
M  V30 40 H -1.190069 5.655862 2.841896 0
M  V30 41 H 0.108140 3.676661 3.461244 0
M  V30 42 H 0.982642 2.215198 1.771733 0
M  V30 43 H 0.776558 -0.804380 3.370526 0
M  V30 44 H -0.134955 1.153132 4.669804 0
M  V30 45 H -2.458973 1.915817 4.193676 0
M  V30 46 H -3.856781 0.800500 2.496442 0
M  V30 47 H -2.937550 -1.071432 1.278101 0
M  V30 END ATOM
M  V30 BEGIN BOND
M  V30 1 1 1 2
M  V30 2 1 2 3
M  V30 3 2 3 4
M  V30 4 1 4 5
M  V30 5 2 5 6
M  V30 6 1 6 7
M  V30 7 2 7 8
M  V30 8 1 8 9
M  V30 9 2 9 10
M  V30 10 1 10 11
M  V30 11 1 11 12
M  V30 12 1 12 13
M  V30 13 2 13 14
M  V30 14 1 14 15
M  V30 15 2 15 16
M  V30 16 1 16 17
M  V30 17 2 17 18
M  V30 18 2 11 19
M  V30 19 1 6 20
M  V30 20 1 20 21
M  V30 21 2 21 22
M  V30 22 1 22 23
M  V30 23 2 23 24
M  V30 24 1 24 25
M  V30 25 2 25 26
M  V30 26 2 20 27
M  V30 27 1 27 28
M  V30 28 1 28 29
M  V30 29 2 29 2
M  V30 30 1 28 5
M  V30 31 1 19 7
M  V30 32 1 26 21
M  V30 33 1 18 13
M  V30 34 1 1 30
M  V30 35 1 1 31
M  V30 36 1 1 32
M  V30 37 1 3 33
M  V30 38 1 4 34
M  V30 39 1 8 35
M  V30 40 1 9 36
M  V30 41 1 12 37
M  V30 42 1 14 38
M  V30 43 1 15 39
M  V30 44 1 16 40
M  V30 45 1 17 41
M  V30 46 1 18 42
M  V30 47 1 22 43
M  V30 48 1 23 44
M  V30 49 1 24 45
M  V30 50 1 25 46
M  V30 51 1 26 47
M  V30 END BOND
M  V30 END CTAB
M  END
>  <Dataset>  (205) 
ChEMBL_Kinases

>  <Ligand_Instance>  (205) 
nan

>  <PDB_ID>  (205) 
nan

>  <Standardized_SMILES>  (205) 
Cc1ccc2c(-c3ccnc(Nc4ccccc4)n3)c(-c3ccccc3)nn2n1

>  <Name>  (205) 
nan

>  <Pocket>  (205) 
nan

>  <ATP_Site>  (205) 
nan

>  <Peripheral>  (205) 
nan

>  <Num_H_Atoms_ProtBoundConf>  (205) 
nan

>  <Num_Resolved_Atoms>  (205) 
nan

>  <Num_Not_Resolved_Atoms>  (205) 
nan

$$$$
CHEMBL269881
     RDKit          3D

  0  0  0  0  0  0  0  0  0  0999 V3000
M  V30 BEGIN CTAB
M  V30 COUNTS 35 37 0 0 0
M  V30 BEGIN ATOM
M  V30 1 N 0.155283 2.151699 -2.116275 0
M  V30 2 C 0.706006 1.949743 -0.814648 0
M  V30 3 N -0.015087 1.176740 -0.028844 0
M  V30 4 C 0.244239 0.811381 1.232755 0
M  V30 5 O -0.332350 0.053658 2.198039 0
M  V30 6 C -1.458505 -0.692100 2.313251 0
M  V30 7 C -1.630838 -1.866119 1.370969 0
M  V30 8 C -0.463653 -2.763945 1.603572 0
M  V30 9 C -0.141101 -3.562535 0.355027 0
M  V30 10 C 0.259141 -2.481997 -0.653383 0
M  V30 11 C -1.021652 -1.836176 -1.095514 0
M  V30 12 C -1.958443 -1.484768 -0.008686 0
M  V30 13 C 1.444844 1.346476 1.729220 0
M  V30 14 N 2.167913 1.312478 2.883296 0
M  V30 15 C 3.284200 2.048552 2.772315 0
M  V30 16 N 3.346178 2.596054 1.550141 0
M  V30 17 C 2.242862 2.173243 0.928474 0
M  V30 18 N 1.851284 2.454182 -0.326654 0
M  V30 19 H 0.340568 1.382263 -2.823059 0
M  V30 20 H -0.403826 3.027914 -2.342506 0
M  V30 21 H -2.348164 -0.011696 2.114928 0
M  V30 22 H -1.603803 -1.059305 3.376163 0
M  V30 23 H -2.522809 -2.450768 1.793125 0
M  V30 24 H 0.457945 -2.219894 1.901800 0
M  V30 25 H -0.682007 -3.449730 2.441544 0
M  V30 26 H -1.031394 -4.071442 -0.043500 0
M  V30 27 H 0.715604 -4.226690 0.507908 0
M  V30 28 H 0.723592 -2.979526 -1.510408 0
M  V30 29 H 0.905287 -1.766172 -0.135252 0
M  V30 30 H -0.754630 -0.930968 -1.673429 0
M  V30 31 H -1.479180 -2.520652 -1.868894 0
M  V30 32 H -2.264100 -0.395228 -0.028700 0
M  V30 33 H -2.946841 -1.976591 -0.296829 0
M  V30 34 H 4.016165 2.175269 3.553867 0
M  V30 35 H 4.091435 3.215193 1.169476 0
M  V30 END ATOM
M  V30 BEGIN BOND
M  V30 1 1 1 2
M  V30 2 2 2 3
M  V30 3 1 3 4
M  V30 4 1 4 5
M  V30 5 1 5 6
M  V30 6 1 6 7
M  V30 7 1 7 8
M  V30 8 1 8 9
M  V30 9 1 9 10
M  V30 10 1 10 11
M  V30 11 1 11 12
M  V30 12 2 4 13
M  V30 13 1 13 14
M  V30 14 2 14 15
M  V30 15 1 15 16
M  V30 16 1 16 17
M  V30 17 2 17 18
M  V30 18 1 18 2
M  V30 19 1 12 7
M  V30 20 1 17 13
M  V30 21 1 1 19
M  V30 22 1 1 20
M  V30 23 1 6 21
M  V30 24 1 6 22
M  V30 25 1 7 23
M  V30 26 1 8 24
M  V30 27 1 8 25
M  V30 28 1 9 26
M  V30 29 1 9 27
M  V30 30 1 10 28
M  V30 31 1 10 29
M  V30 32 1 11 30
M  V30 33 1 11 31
M  V30 34 1 12 32
M  V30 35 1 12 33
M  V30 36 1 15 34
M  V30 37 1 16 35
M  V30 END BOND
M  V30 END CTAB
M  END
>  <Dataset>  (206) 
ChEMBL_Kinases

>  <Ligand_Instance>  (206) 
nan

>  <PDB_ID>  (206) 
nan

>  <Standardized_SMILES>  (206) 
Nc1nc(OCC2CCCCC2)c2nc[nH]c2n1

>  <Name>  (206) 
nan

>  <Pocket>  (206) 
nan

>  <ATP_Site>  (206) 
nan

>  <Peripheral>  (206) 
nan

>  <Num_H_Atoms_ProtBoundConf>  (206) 
nan

>  <Num_Resolved_Atoms>  (206) 
nan

>  <Num_Not_Resolved_Atoms>  (206) 
nan

$$$$
CHEMBL3687426
     RDKit          3D

  0  0  0  0  0  0  0  0  0  0999 V3000
M  V30 BEGIN CTAB
M  V30 COUNTS 59 62 0 0 0
M  V30 BEGIN ATOM
M  V30 1 C 3.223762 -3.380774 1.557500 0
M  V30 2 O 3.973814 -2.239647 1.253230 0
M  V30 3 N 3.692724 -1.335421 0.269611 0
M  V30 4 C 3.220798 -0.160689 0.517899 0
M  V30 5 C 2.913749 0.386428 1.881810 0 CFG=2
M  V30 6 N 3.310218 -0.540778 2.895649 0
M  V30 7 C 1.423573 0.750925 1.971074 0
M  V30 8 C 1.192196 1.732392 0.857393 0 CFG=2
M  V30 9 C 0.003104 2.544095 0.969156 0
M  V30 10 C 0.036179 3.799464 1.593987 0
M  V30 11 C -1.026864 4.657257 1.769792 0
M  V30 12 N -2.233954 4.287740 1.308820 0
M  V30 13 C -2.366121 3.083585 0.686004 0
M  V30 14 C -1.269233 2.259751 0.534551 0
M  V30 15 N -1.561080 1.037479 -0.123195 0
M  V30 16 C -1.648038 0.547285 -1.464834 0
M  V30 17 O -1.429663 1.305475 -2.465680 0
M  V30 18 C -2.000396 -0.862615 -1.575545 0
M  V30 19 C -2.090143 -1.351116 -2.861799 0
M  V30 20 C -2.417564 -2.675432 -3.109375 0
M  V30 21 C -2.656871 -3.512299 -2.016582 0
M  V30 22 F -2.983569 -4.822888 -2.158592 0
M  V30 23 C -2.559267 -2.992758 -0.729495 0
M  V30 24 C -2.788051 -3.778791 0.477984 0
M  V30 25 C -3.968973 -3.978440 1.161909 0
M  V30 26 F -5.035047 -3.355545 0.623655 0
M  V30 27 C -3.955459 -4.773235 2.300750 0
M  V30 28 C -2.783395 -5.356313 2.745730 0
M  V30 29 C -1.596476 -5.159108 2.063383 0
M  V30 30 C -1.603894 -4.368055 0.927907 0
M  V30 31 F -0.385766 -4.242779 0.338400 0
M  V30 32 N -2.235786 -1.690190 -0.543603 0
M  V30 33 C 1.399777 1.033242 -0.461466 0
M  V30 34 C 2.920983 0.813093 -0.592980 0 CFG=2
M  V30 35 C 3.296716 0.261344 -1.932684 0
M  V30 36 H 2.118479 -3.232801 1.493902 0
M  V30 37 H 3.494673 -4.282405 0.978870 0
M  V30 38 H 3.419971 -3.635260 2.622043 0
M  V30 39 H 3.453037 1.341770 2.047476 0
M  V30 40 H 2.475968 -1.109293 3.197105 0
M  V30 41 H 3.654691 -0.017653 3.722537 0
M  V30 42 H 1.308384 1.260744 2.945287 0
M  V30 43 H 0.877658 -0.186564 1.864820 0
M  V30 44 H 2.070107 2.450015 0.930770 0
M  V30 45 H 0.995741 4.163968 1.995096 0
M  V30 46 H -0.910320 5.594804 2.257807 0
M  V30 47 H -3.347351 2.846388 0.342201 0
M  V30 48 H -1.745655 0.404514 0.712162 0
M  V30 49 H -1.904626 -0.705199 -3.734238 0
M  V30 50 H -2.490982 -3.069130 -4.109612 0
M  V30 51 H -4.923341 -4.887729 2.790559 0
M  V30 52 H -2.842931 -5.965317 3.641898 0
M  V30 53 H -0.684084 -5.639155 2.447417 0
M  V30 54 H 0.933543 0.015315 -0.368463 0
M  V30 55 H 1.041477 1.584897 -1.330550 0
M  V30 56 H 3.447747 1.746112 -0.373184 0
M  V30 57 H 2.564559 -0.509724 -2.223897 0
M  V30 58 H 4.279908 -0.210287 -1.861503 0
M  V30 59 H 3.370234 1.104380 -2.649315 0
M  V30 END ATOM
M  V30 BEGIN BOND
M  V30 1 1 1 2
M  V30 2 1 2 3
M  V30 3 2 3 4
M  V30 4 1 4 5
M  V30 5 1 5 6
M  V30 6 1 5 7
M  V30 7 1 7 8
M  V30 8 1 8 9
M  V30 9 2 9 10
M  V30 10 1 10 11
M  V30 11 2 11 12
M  V30 12 1 12 13
M  V30 13 2 13 14
M  V30 14 1 14 15
M  V30 15 1 15 16
M  V30 16 2 16 17
M  V30 17 1 16 18
M  V30 18 2 18 19
M  V30 19 1 19 20
M  V30 20 2 20 21
M  V30 21 1 21 22
M  V30 22 1 21 23
M  V30 23 1 23 24
M  V30 24 2 24 25
M  V30 25 1 25 26
M  V30 26 1 25 27
M  V30 27 2 27 28
M  V30 28 1 28 29
M  V30 29 2 29 30
M  V30 30 1 30 31
M  V30 31 2 23 32
M  V30 32 1 8 33
M  V30 33 1 33 34
M  V30 34 1 34 35
M  V30 35 1 34 4
M  V30 36 1 14 9
M  V30 37 1 32 18
M  V30 38 1 30 24
M  V30 39 1 1 36
M  V30 40 1 1 37
M  V30 41 1 1 38
M  V30 42 1 5 39 CFG=1
M  V30 43 1 6 40
M  V30 44 1 6 41
M  V30 45 1 7 42
M  V30 46 1 7 43
M  V30 47 1 8 44 CFG=1
M  V30 48 1 10 45
M  V30 49 1 11 46
M  V30 50 1 13 47
M  V30 51 1 15 48
M  V30 52 1 19 49
M  V30 53 1 20 50
M  V30 54 1 27 51
M  V30 55 1 28 52
M  V30 56 1 29 53
M  V30 57 1 33 54
M  V30 58 1 33 55
M  V30 59 1 34 56 CFG=1
M  V30 60 1 35 57
M  V30 61 1 35 58
M  V30 62 1 35 59
M  V30 END BOND
M  V30 END CTAB
M  END
>  <Dataset>  (207) 
ChEMBL_Kinases

>  <Ligand_Instance>  (207) 
nan

>  <PDB_ID>  (207) 
nan

>  <Standardized_SMILES>  (207) 
CO/N=C1\[C@H](N)C[C@H](c2ccncc2NC(=O)c2ccc(F)c(-c3c(F)cccc3F)n2)C[C@@H]1C

>  <Name>  (207) 
nan

>  <Pocket>  (207) 
nan

>  <ATP_Site>  (207) 
nan

>  <Peripheral>  (207) 
nan

>  <Num_H_Atoms_ProtBoundConf>  (207) 
nan

>  <Num_Resolved_Atoms>  (207) 
nan

>  <Num_Not_Resolved_Atoms>  (207) 
nan

$$$$
CHEMBL270002
     RDKit          3D

  0  0  0  0  0  0  0  0  0  0999 V3000
M  V30 BEGIN CTAB
M  V30 COUNTS 59 63 0 0 0
M  V30 BEGIN ATOM
M  V30 1 C 3.267281 -1.105528 4.225615 0
M  V30 2 C 2.279802 -0.878700 5.325880 0
M  V30 3 C 2.796688 0.093019 6.370485 0
M  V30 4 S 0.660747 -0.515273 4.757530 0
M  V30 5 O 0.217751 -1.671213 3.896011 0
M  V30 6 O -0.246574 -0.534947 5.968794 0
M  V30 7 N 0.503826 0.921574 3.863549 0
M  V30 8 C 0.757579 2.148615 4.306884 0
M  V30 9 N 1.199502 2.627303 5.567713 0
M  V30 10 N 0.539407 3.082301 3.352992 0
M  V30 11 C 0.131095 2.473056 2.246089 0
M  V30 12 C -0.228387 2.909133 0.988593 0
M  V30 13 C -0.609514 1.964972 0.058558 0
M  V30 14 C -0.652137 0.610450 0.312516 0
M  V30 15 C -1.041428 -0.412776 -0.647651 0
M  V30 16 N -2.104279 -1.230207 -0.671755 0
M  V30 17 C -2.138795 -2.053738 -1.724266 0
M  V30 18 C -3.078113 -3.080657 -2.124721 0
M  V30 19 C -4.183120 -3.438092 -1.388720 0
M  V30 20 Cl -4.585502 -2.687853 0.139084 0
M  V30 21 C -5.092976 -4.409360 -1.744696 0
M  V30 22 C -4.906296 -5.097251 -2.932000 0
M  V30 23 C -3.800870 -4.738427 -3.667370 0
M  V30 24 C -2.880350 -3.757409 -3.310115 0
M  V30 25 C -1.787063 -3.538475 -4.260023 0
M  V30 26 F -1.866924 -2.223131 -4.716497 0
M  V30 27 F -0.526801 -3.818630 -3.750250 0
M  V30 28 F -1.907033 -4.361943 -5.373594 0
M  V30 29 N -1.026327 -1.704711 -2.367572 0
M  V30 30 C -0.338807 -0.738287 -1.774231 0
M  V30 31 C 0.904259 -0.226393 -2.329836 0
M  V30 32 C 1.197530 1.009708 -2.856655 0
M  V30 33 C 2.436419 1.352108 -3.342327 0
M  V30 34 C 3.386619 0.355843 -3.266767 0
M  V30 35 C 3.176399 -0.896498 -2.758822 0
M  V30 36 C 1.900659 -1.205320 -2.274099 0
M  V30 37 C -0.277805 0.230342 1.602513 0
M  V30 38 C 0.114627 1.115140 2.585652 0
M  V30 39 H 4.173239 -0.472649 4.332766 0
M  V30 40 H 2.808191 -1.002905 3.202330 0
M  V30 41 H 3.661795 -2.162863 4.214039 0
M  V30 42 H 2.180898 -1.861020 5.882211 0
M  V30 43 H 3.542671 -0.417766 7.050484 0
M  V30 44 H 3.377898 0.921331 5.921620 0
M  V30 45 H 1.993070 0.415787 7.061224 0
M  V30 46 H 0.867994 2.747743 6.555011 0
M  V30 47 H 2.164781 3.017682 5.675077 0
M  V30 48 H -0.217486 3.947377 0.723613 0
M  V30 49 H -0.895006 2.305823 -0.925650 0
M  V30 50 H -2.772085 -1.137035 0.108850 0
M  V30 51 H -5.959913 -4.690597 -1.167325 0
M  V30 52 H -5.587378 -5.866857 -3.258545 0
M  V30 53 H -3.685856 -5.302214 -4.598076 0
M  V30 54 H 0.355763 1.684437 -2.852977 0
M  V30 55 H 2.585152 2.342618 -3.738792 0
M  V30 56 H 4.388897 0.586241 -3.643824 0
M  V30 57 H 3.985605 -1.605306 -2.743924 0
M  V30 58 H 1.815507 -2.215647 -1.888990 0
M  V30 59 H -0.305956 -0.817863 1.813935 0
M  V30 END ATOM
M  V30 BEGIN BOND
M  V30 1 1 1 2
M  V30 2 1 2 3
M  V30 3 1 2 4
M  V30 4 2 4 5
M  V30 5 2 4 6
M  V30 6 1 4 7
M  V30 7 1 7 8
M  V30 8 1 8 9
M  V30 9 2 8 10
M  V30 10 1 10 11
M  V30 11 2 11 12
M  V30 12 1 12 13
M  V30 13 2 13 14
M  V30 14 1 14 15
M  V30 15 1 15 16
M  V30 16 1 16 17
M  V30 17 1 17 18
M  V30 18 2 18 19
M  V30 19 1 19 20
M  V30 20 1 19 21
M  V30 21 2 21 22
M  V30 22 1 22 23
M  V30 23 2 23 24
M  V30 24 1 24 25
M  V30 25 1 25 26
M  V30 26 1 25 27
M  V30 27 1 25 28
M  V30 28 2 17 29
M  V30 29 1 29 30
M  V30 30 1 30 31
M  V30 31 2 31 32
M  V30 32 1 32 33
M  V30 33 2 33 34
M  V30 34 1 34 35
M  V30 35 2 35 36
M  V30 36 1 14 37
M  V30 37 2 37 38
M  V30 38 1 38 7
M  V30 39 1 38 11
M  V30 40 2 30 15
M  V30 41 1 36 31
M  V30 42 1 24 18
M  V30 43 1 1 39
M  V30 44 1 1 40
M  V30 45 1 1 41
M  V30 46 1 2 42
M  V30 47 1 3 43
M  V30 48 1 3 44
M  V30 49 1 3 45
M  V30 50 1 9 46
M  V30 51 1 9 47
M  V30 52 1 12 48
M  V30 53 1 13 49
M  V30 54 1 16 50
M  V30 55 1 21 51
M  V30 56 1 22 52
M  V30 57 1 23 53
M  V30 58 1 32 54
M  V30 59 1 33 55
M  V30 60 1 34 56
M  V30 61 1 35 57
M  V30 62 1 36 58
M  V30 63 1 37 59
M  V30 END BOND
M  V30 END CTAB
M  END
>  <Dataset>  (208) 
ChEMBL_Kinases

>  <Ligand_Instance>  (208) 
nan

>  <PDB_ID>  (208) 
nan

>  <Standardized_SMILES>  (208) 
CC(C)S(=O)(=O)n1c(N)nc2ccc(-c3[nH]c(-c4c(Cl)cccc4C(F)(F)F)nc3-c3ccccc3)cc21

>  <Name>  (208) 
nan

>  <Pocket>  (208) 
nan

>  <ATP_Site>  (208) 
nan

>  <Peripheral>  (208) 
nan

>  <Num_H_Atoms_ProtBoundConf>  (208) 
nan

>  <Num_Resolved_Atoms>  (208) 
nan

>  <Num_Not_Resolved_Atoms>  (208) 
nan

$$$$
CHEMBL270021
     RDKit          3D

  0  0  0  0  0  0  0  0  0  0999 V3000
M  V30 BEGIN CTAB
M  V30 COUNTS 66 71 0 0 0
M  V30 BEGIN ATOM
M  V30 1 O 4.363497 1.840449 5.187774 0
M  V30 2 C 3.449805 1.012901 4.854431 0
M  V30 3 N 3.070385 -0.225614 5.463263 0
M  V30 4 C 1.996824 -0.793438 4.733799 0
M  V30 5 O 1.603511 -1.873781 5.194781 0
M  V30 6 C 1.667827 0.077132 3.638143 0
M  V30 7 C 2.537096 1.139981 3.725204 0
M  V30 8 C 2.477851 2.178319 2.792069 0
M  V30 9 C 3.370819 3.330328 2.833312 0
M  V30 10 C 4.539340 3.156260 2.103385 0
M  V30 11 C 5.483127 4.172952 2.051888 0
M  V30 12 C 5.278766 5.379721 2.726509 0
M  V30 13 C 4.100378 5.531629 3.451608 0
M  V30 14 C 3.165171 4.536403 3.508269 0
M  V30 15 Cl 1.660347 4.645840 4.395614 0
M  V30 16 C 1.532080 2.109967 1.788794 0
M  V30 17 C 0.690089 1.017787 1.756794 0
M  V30 18 C 0.737117 -0.004399 2.663066 0
M  V30 19 C -0.199230 -0.940714 2.400040 0
M  V30 20 C -0.677952 -2.122229 2.858016 0
M  V30 21 C -1.739051 -2.787721 2.232665 0
M  V30 22 O -2.084713 -3.987579 2.854459 0
M  V30 23 C -2.390215 -2.290168 1.088080 0
M  V30 24 O -3.370584 -3.139423 0.697351 0
M  V30 25 C -4.189432 -2.982772 -0.412678 0
M  V30 26 C -3.506563 -2.982080 -1.744270 0
M  V30 27 C -2.749245 -4.265398 -2.003181 0
M  V30 28 N -2.077449 -4.292844 -3.250910 0
M  V30 29 C -2.867706 -4.336387 -4.430133 0
M  V30 30 C -1.803579 -4.632244 -5.497335 0
M  V30 31 C -0.658680 -5.309696 -4.788191 0
M  V30 32 C -1.213526 -5.447393 -3.382842 0
M  V30 33 C -1.878874 -1.097278 0.659691 0
M  V30 34 C -0.836236 -0.439675 1.270691 0
M  V30 35 N -0.312451 0.734584 0.873692 0
M  V30 36 C -0.693682 1.568690 -0.254056 0
M  V30 37 C -1.757617 2.532014 0.217425 0
M  V30 38 O -2.191639 3.383114 -0.812526 0
M  V30 39 H 3.619711 -0.517471 6.322835 0
M  V30 40 H 4.816090 2.267486 1.536497 0
M  V30 41 H 6.412330 4.075325 1.490195 0
M  V30 42 H 6.009467 6.179232 2.692961 0
M  V30 43 H 3.899474 6.466480 3.998000 0
M  V30 44 H 1.454959 2.890293 1.051241 0
M  V30 45 H -0.225591 -2.534036 3.708336 0
M  V30 46 H -3.073785 -4.260983 2.745447 0
M  V30 47 H -4.925581 -2.154186 -0.308649 0
M  V30 48 H -4.850980 -3.906497 -0.422934 0
M  V30 49 H -4.341072 -2.994513 -2.517233 0
M  V30 50 H -2.963003 -2.076201 -1.921271 0
M  V30 51 H -1.992682 -4.396731 -1.203061 0
M  V30 52 H -3.442039 -5.137539 -1.937025 0
M  V30 53 H -3.314709 -3.365303 -4.720628 0
M  V30 54 H -3.591174 -5.175218 -4.463709 0
M  V30 55 H -1.400341 -3.654755 -5.895599 0
M  V30 56 H -2.199829 -5.208365 -6.337924 0
M  V30 57 H -0.421507 -6.272997 -5.257455 0
M  V30 58 H 0.271965 -4.695298 -4.799594 0
M  V30 59 H -0.352527 -5.443729 -2.687369 0
M  V30 60 H -1.769360 -6.411397 -3.350255 0
M  V30 61 H -2.376898 -0.714004 -0.191541 0
M  V30 62 H 0.176323 2.185845 -0.571378 0
M  V30 63 H -1.059785 0.909079 -1.055466 0
M  V30 64 H -1.325860 3.145842 1.039263 0
M  V30 65 H -2.623559 1.988127 0.681815 0
M  V30 66 H -1.378866 3.839975 -1.152953 0
M  V30 END ATOM
M  V30 BEGIN BOND
M  V30 1 2 1 2
M  V30 2 1 2 3
M  V30 3 1 3 4
M  V30 4 2 4 5
M  V30 5 1 4 6
M  V30 6 2 6 7
M  V30 7 1 7 8
M  V30 8 1 8 9
M  V30 9 2 9 10
M  V30 10 1 10 11
M  V30 11 2 11 12
M  V30 12 1 12 13
M  V30 13 2 13 14
M  V30 14 1 14 15
M  V30 15 2 8 16
M  V30 16 1 16 17
M  V30 17 2 17 18
M  V30 18 1 18 19
M  V30 19 2 19 20
M  V30 20 1 20 21
M  V30 21 1 21 22
M  V30 22 2 21 23
M  V30 23 1 23 24
M  V30 24 1 24 25
M  V30 25 1 25 26
M  V30 26 1 26 27
M  V30 27 1 27 28
M  V30 28 1 28 29
M  V30 29 1 29 30
M  V30 30 1 30 31
M  V30 31 1 31 32
M  V30 32 1 23 33
M  V30 33 2 33 34
M  V30 34 1 34 35
M  V30 35 1 35 36
M  V30 36 1 36 37
M  V30 37 1 37 38
M  V30 38 1 7 2
M  V30 39 1 14 9
M  V30 40 1 35 17
M  V30 41 1 18 6
M  V30 42 1 34 19
M  V30 43 1 32 28
M  V30 44 1 3 39
M  V30 45 1 10 40
M  V30 46 1 11 41
M  V30 47 1 12 42
M  V30 48 1 13 43
M  V30 49 1 16 44
M  V30 50 1 20 45
M  V30 51 1 22 46
M  V30 52 1 25 47
M  V30 53 1 25 48
M  V30 54 1 26 49
M  V30 55 1 26 50
M  V30 56 1 27 51
M  V30 57 1 27 52
M  V30 58 1 29 53
M  V30 59 1 29 54
M  V30 60 1 30 55
M  V30 61 1 30 56
M  V30 62 1 31 57
M  V30 63 1 31 58
M  V30 64 1 32 59
M  V30 65 1 32 60
M  V30 66 1 33 61
M  V30 67 1 36 62
M  V30 68 1 36 63
M  V30 69 1 37 64
M  V30 70 1 37 65
M  V30 71 1 38 66
M  V30 END BOND
M  V30 END CTAB
M  END
>  <Dataset>  (209) 
ChEMBL_Kinases

>  <Ligand_Instance>  (209) 
nan

>  <PDB_ID>  (209) 
nan

>  <Standardized_SMILES>  (209) 
O=C1NC(=O)c2c1c(-c1ccccc1Cl)cc1c2c2cc(O)c(OCCCN3CCCC3)cc2n1CCO

>  <Name>  (209) 
nan

>  <Pocket>  (209) 
nan

>  <ATP_Site>  (209) 
nan

>  <Peripheral>  (209) 
nan

>  <Num_H_Atoms_ProtBoundConf>  (209) 
nan

>  <Num_Resolved_Atoms>  (209) 
nan

>  <Num_Not_Resolved_Atoms>  (209) 
nan

$$$$
CHEMBL270157
     RDKit          3D

  0  0  0  0  0  0  0  0  0  0999 V3000
M  V30 BEGIN CTAB
M  V30 COUNTS 68 74 0 0 0
M  V30 BEGIN ATOM
M  V30 1 N 6.936439 -0.040658 5.503765 0
M  V30 2 C 5.729950 0.663012 5.756841 0
M  V30 3 N 5.398309 1.384511 6.849502 0
M  V30 4 N 4.187081 1.893564 6.720486 0
M  V30 5 C 3.655473 1.540243 5.546159 0
M  V30 6 N 2.499701 1.747107 4.882869 0
M  V30 7 C 2.270454 1.226462 3.663312 0
M  V30 8 C 1.058021 1.392143 2.874248 0
M  V30 9 C 1.035919 1.992989 1.646845 0
M  V30 10 C -0.138670 2.124283 0.935813 0
M  V30 11 C -1.364019 1.655222 1.423242 0
M  V30 12 C -2.552343 1.844887 0.596992 0
M  V30 13 N -2.859687 0.841268 -0.349419 0
M  V30 14 C -3.112407 -0.452202 0.134402 0
M  V30 15 C -2.447352 -1.569797 -0.602870 0
M  V30 16 C -2.517146 -1.450460 -2.100685 0
M  V30 17 N -3.589483 -2.245574 -2.667627 0
M  V30 18 C -4.902653 -1.912398 -2.805350 0
M  V30 19 O -5.430922 -0.822418 -2.453578 0
M  V30 20 N -5.598380 -2.914180 -3.380090 0
M  V30 21 C -4.767717 -3.919943 -3.631556 0
M  V30 22 C -4.867133 -5.191078 -4.194085 0
M  V30 23 C -3.736851 -5.978007 -4.288590 0
M  V30 24 C -2.490201 -5.580801 -3.854014 0
M  V30 25 C -2.399288 -4.313960 -3.295084 0
M  V30 26 C -3.534851 -3.504933 -3.192319 0
M  V30 27 C -2.454621 -0.046373 -2.599909 0
M  V30 28 C -2.085943 0.954104 -1.530873 0
M  V30 29 C -1.278328 1.060578 2.663643 0
M  V30 30 C -0.132044 0.911148 3.400571 0
M  V30 31 C 3.229570 0.451331 3.044624 0
M  V30 32 C 3.094946 -0.171618 1.713340 0
M  V30 33 C 2.176125 -1.126219 1.334749 0
M  V30 34 C 2.199776 -1.595053 0.042647 0
M  V30 35 C 3.108536 -1.147033 -0.892063 0
M  V30 36 C 4.040508 -0.177414 -0.504555 0
M  V30 37 C 4.019277 0.293349 0.787123 0
M  V30 38 C 4.441537 0.199000 3.671404 0
M  V30 39 C 4.613323 0.765182 4.926397 0
M  V30 40 H 7.063078 -1.023235 5.179215 0
M  V30 41 H 7.082927 -1.005967 5.184508 0
M  V30 42 H 3.641690 2.502299 7.398885 0
M  V30 43 H 1.999596 2.338489 1.310522 0
M  V30 44 H 0.018118 2.624164 -0.012130 0
M  V30 45 H -2.441051 2.865143 0.121987 0
M  V30 46 H -3.438200 1.925202 1.298096 0
M  V30 47 H -4.233846 -0.600771 0.116042 0
M  V30 48 H -2.856635 -0.526341 1.206185 0
M  V30 49 H -2.958571 -2.520957 -0.325635 0
M  V30 50 H -1.400138 -1.670633 -0.246623 0
M  V30 51 H -1.568081 -1.934771 -2.476608 0
M  V30 52 H -6.613134 -2.956028 -3.614042 0
M  V30 53 H -5.815543 -5.539183 -4.544246 0
M  V30 54 H -3.757799 -6.975355 -4.717798 0
M  V30 55 H -1.592748 -6.180455 -3.918521 0
M  V30 56 H -1.426389 -3.952587 -2.934070 0
M  V30 57 H -1.681877 0.110960 -3.407470 0
M  V30 58 H -3.423878 0.203666 -3.074897 0
M  V30 59 H -1.003658 0.873721 -1.264484 0
M  V30 60 H -2.225865 1.964414 -1.965262 0
M  V30 61 H -2.173631 0.688036 3.100343 0
M  V30 62 H -0.146653 0.429289 4.373244 0
M  V30 63 H 1.490929 -1.434809 2.116580 0
M  V30 64 H 1.434054 -2.349916 -0.165425 0
M  V30 65 H 3.021733 -1.596614 -1.876169 0
M  V30 66 H 4.741035 0.147450 -1.278669 0
M  V30 67 H 4.791277 1.038764 0.955659 0
M  V30 68 H 5.221130 -0.405100 3.219245 0
M  V30 END ATOM
M  V30 BEGIN BOND
M  V30 1 1 1 2
M  V30 2 2 2 3
M  V30 3 1 3 4
M  V30 4 1 4 5
M  V30 5 2 5 6
M  V30 6 1 6 7
M  V30 7 1 7 8
M  V30 8 2 8 9
M  V30 9 1 9 10
M  V30 10 2 10 11
M  V30 11 1 11 12
M  V30 12 1 12 13
M  V30 13 1 13 14
M  V30 14 1 14 15
M  V30 15 1 15 16
M  V30 16 1 16 17
M  V30 17 1 17 18
M  V30 18 2 18 19
M  V30 19 1 18 20
M  V30 20 1 20 21
M  V30 21 2 21 22
M  V30 22 1 22 23
M  V30 23 2 23 24
M  V30 24 1 24 25
M  V30 25 2 25 26
M  V30 26 1 16 27
M  V30 27 1 27 28
M  V30 28 1 11 29
M  V30 29 2 29 30
M  V30 30 2 7 31
M  V30 31 1 31 32
M  V30 32 2 32 33
M  V30 33 1 33 34
M  V30 34 2 34 35
M  V30 35 1 35 36
M  V30 36 2 36 37
M  V30 37 1 31 38
M  V30 38 2 38 39
M  V30 39 1 39 2
M  V30 40 1 39 5
M  V30 41 1 30 8
M  V30 42 1 37 32
M  V30 43 1 28 13
M  V30 44 1 26 17
M  V30 45 1 26 21
M  V30 46 1 1 40
M  V30 47 1 1 41
M  V30 48 1 4 42
M  V30 49 1 9 43
M  V30 50 1 10 44
M  V30 51 1 12 45
M  V30 52 1 12 46
M  V30 53 1 14 47
M  V30 54 1 14 48
M  V30 55 1 15 49
M  V30 56 1 15 50
M  V30 57 1 16 51
M  V30 58 1 20 52
M  V30 59 1 22 53
M  V30 60 1 23 54
M  V30 61 1 24 55
M  V30 62 1 25 56
M  V30 63 1 27 57
M  V30 64 1 27 58
M  V30 65 1 28 59
M  V30 66 1 28 60
M  V30 67 1 29 61
M  V30 68 1 30 62
M  V30 69 1 33 63
M  V30 70 1 34 64
M  V30 71 1 35 65
M  V30 72 1 36 66
M  V30 73 1 37 67
M  V30 74 1 38 68
M  V30 END BOND
M  V30 END CTAB
M  END
>  <Dataset>  (210) 
ChEMBL_Kinases

>  <Ligand_Instance>  (210) 
nan

>  <PDB_ID>  (210) 
nan

>  <Standardized_SMILES>  (210) 
Nc1n[nH]c2nc(-c3ccc(CN4CCC(n5c(=O)[nH]c6ccccc65)CC4)cc3)c(-c3ccccc3)cc12

>  <Name>  (210) 
nan

>  <Pocket>  (210) 
nan

>  <ATP_Site>  (210) 
nan

>  <Peripheral>  (210) 
nan

>  <Num_H_Atoms_ProtBoundConf>  (210) 
nan

>  <Num_Resolved_Atoms>  (210) 
nan

>  <Num_Not_Resolved_Atoms>  (210) 
nan

$$$$
CHEMBL3687425
     RDKit          3D

  0  0  0  0  0  0  0  0  0  0999 V3000
M  V30 BEGIN CTAB
M  V30 COUNTS 59 62 0 0 0
M  V30 BEGIN ATOM
M  V30 1 C 4.695438 -3.573653 -0.442616 0
M  V30 2 O 4.477920 -2.179897 -0.590911 0
M  V30 3 N 4.172730 -1.380656 0.506609 0
M  V30 4 C 3.177600 -0.566019 0.396551 0
M  V30 5 C 2.833797 0.294568 1.549555 0 CFG=2
M  V30 6 N 2.976202 -0.399997 2.791626 0
M  V30 7 C 1.527840 0.989758 1.368925 0
M  V30 8 C 1.571841 1.732746 0.045957 0 CFG=2
M  V30 9 C 0.482288 2.725568 -0.067206 0
M  V30 10 C 0.647281 4.107310 0.102056 0
M  V30 11 C -0.327633 5.061531 0.007885 0
M  V30 12 N -1.574714 4.659285 -0.274238 0
M  V30 13 C -1.811339 3.347703 -0.450284 0
M  V30 14 C -0.819513 2.393838 -0.352761 0
M  V30 15 N -1.301359 1.082868 -0.552300 0
M  V30 16 C -1.600039 0.122708 -1.558260 0
M  V30 17 O -1.416655 0.414642 -2.788877 0
M  V30 18 C -2.108862 -1.163415 -1.109358 0
M  V30 19 C -2.385237 -2.070479 -2.106833 0
M  V30 20 C -2.867121 -3.319630 -1.855845 0
M  V30 21 C -3.102031 -3.730489 -0.547253 0
M  V30 22 F -3.581671 -4.964437 -0.246175 0
M  V30 23 C -2.816453 -2.802011 0.431910 0
M  V30 24 C -3.024301 -3.124247 1.838000 0
M  V30 25 C -4.195940 -2.899491 2.536638 0
M  V30 26 F -5.183944 -2.327612 1.777541 0
M  V30 27 C -4.336880 -3.224588 3.861927 0
M  V30 28 C -3.308436 -3.798677 4.576917 0
M  V30 29 C -2.121519 -4.040166 3.918514 0
M  V30 30 C -1.983802 -3.707186 2.569815 0
M  V30 31 F -0.791724 -3.963616 1.956650 0
M  V30 32 N -2.344292 -1.584619 0.147173 0
M  V30 33 C 1.898976 0.930316 -1.142667 0
M  V30 34 C 2.377352 -0.472066 -0.847350 0 CFG=2
M  V30 35 C 1.271360 -1.501891 -0.836135 0
M  V30 36 H 3.821973 -4.130224 -0.847939 0
M  V30 37 H 5.564138 -3.944014 -1.028319 0
M  V30 38 H 4.770095 -3.815288 0.648744 0
M  V30 39 H 3.621248 1.104412 1.544308 0
M  V30 40 H 3.443012 0.168316 3.532549 0
M  V30 41 H 3.600936 -1.224686 2.625735 0
M  V30 42 H 1.506369 1.809904 2.147910 0
M  V30 43 H 0.628334 0.413709 1.545961 0
M  V30 44 H 2.495316 2.399342 0.216150 0
M  V30 45 H 1.662289 4.464986 0.334587 0
M  V30 46 H -0.094480 6.098877 0.156828 0
M  V30 47 H -2.856415 3.140864 -0.673295 0
M  V30 48 H -1.466229 0.819283 0.465887 0
M  V30 49 H -2.222894 -1.812120 -3.164942 0
M  V30 50 H -3.076909 -4.015191 -2.654016 0
M  V30 51 H -5.279362 -3.020996 4.342398 0
M  V30 52 H -3.404157 -4.059828 5.618655 0
M  V30 53 H -1.260782 -4.489199 4.406186 0
M  V30 54 H 1.127004 0.848881 -1.931029 0
M  V30 55 H 2.763429 1.397269 -1.722878 0
M  V30 56 H 3.057937 -0.816598 -1.665315 0
M  V30 57 H 1.794111 -2.485328 -0.662718 0
M  V30 58 H 0.562116 -1.403654 0.000027 0
M  V30 59 H 0.804630 -1.531650 -1.841105 0
M  V30 END ATOM
M  V30 BEGIN BOND
M  V30 1 1 1 2
M  V30 2 1 2 3
M  V30 3 2 3 4
M  V30 4 1 4 5
M  V30 5 1 5 6
M  V30 6 1 5 7
M  V30 7 1 7 8
M  V30 8 1 8 9
M  V30 9 2 9 10
M  V30 10 1 10 11
M  V30 11 2 11 12
M  V30 12 1 12 13
M  V30 13 2 13 14
M  V30 14 1 14 15
M  V30 15 1 15 16
M  V30 16 2 16 17
M  V30 17 1 16 18
M  V30 18 2 18 19
M  V30 19 1 19 20
M  V30 20 2 20 21
M  V30 21 1 21 22
M  V30 22 1 21 23
M  V30 23 1 23 24
M  V30 24 2 24 25
M  V30 25 1 25 26
M  V30 26 1 25 27
M  V30 27 2 27 28
M  V30 28 1 28 29
M  V30 29 2 29 30
M  V30 30 1 30 31
M  V30 31 2 23 32
M  V30 32 1 8 33
M  V30 33 1 33 34
M  V30 34 1 34 35
M  V30 35 1 34 4
M  V30 36 1 14 9
M  V30 37 1 32 18
M  V30 38 1 30 24
M  V30 39 1 1 36
M  V30 40 1 1 37
M  V30 41 1 1 38
M  V30 42 1 5 39 CFG=1
M  V30 43 1 6 40
M  V30 44 1 6 41
M  V30 45 1 7 42
M  V30 46 1 7 43
M  V30 47 1 8 44 CFG=1
M  V30 48 1 10 45
M  V30 49 1 11 46
M  V30 50 1 13 47
M  V30 51 1 15 48
M  V30 52 1 19 49
M  V30 53 1 20 50
M  V30 54 1 27 51
M  V30 55 1 28 52
M  V30 56 1 29 53
M  V30 57 1 33 54
M  V30 58 1 33 55
M  V30 59 1 34 56 CFG=3
M  V30 60 1 35 57
M  V30 61 1 35 58
M  V30 62 1 35 59
M  V30 END BOND
M  V30 END CTAB
M  END
>  <Dataset>  (211) 
ChEMBL_Kinases

>  <Ligand_Instance>  (211) 
nan

>  <PDB_ID>  (211) 
nan

>  <Standardized_SMILES>  (211) 
CO/N=C1/[C@H](N)C[C@H](c2ccncc2NC(=O)c2ccc(F)c(-c3c(F)cccc3F)n2)C[C@@H]1C

>  <Name>  (211) 
nan

>  <Pocket>  (211) 
nan

>  <ATP_Site>  (211) 
nan

>  <Peripheral>  (211) 
nan

>  <Num_H_Atoms_ProtBoundConf>  (211) 
nan

>  <Num_Resolved_Atoms>  (211) 
nan

>  <Num_Not_Resolved_Atoms>  (211) 
nan

$$$$
CHEMBL434368
     RDKit          3D

  0  0  0  0  0  0  0  0  0  0999 V3000
M  V30 BEGIN CTAB
M  V30 COUNTS 44 45 0 0 0
M  V30 BEGIN ATOM
M  V30 1 C 3.721208 -3.924734 4.224896 0
M  V30 2 S 4.881163 -3.461155 2.984159 0
M  V30 3 O 6.139114 -2.957100 3.660009 0
M  V30 4 O 5.299173 -4.706234 2.242463 0
M  V30 5 C 4.251395 -2.284022 1.860003 0
M  V30 6 C 3.608183 -2.786907 0.769886 0
M  V30 7 C 3.090193 -1.883541 -0.156243 0
M  V30 8 C 3.180711 -0.487864 -0.051619 0
M  V30 9 C 2.564815 0.300753 -1.146571 0
M  V30 10 N 1.178409 0.546027 -0.771131 0
M  V30 11 C 0.719044 1.496258 0.158817 0
M  V30 12 O 1.510104 2.255301 0.775150 0
M  V30 13 C -0.713786 1.634163 0.442315 0
M  V30 14 C -1.181990 2.568723 1.341154 0
M  V30 15 C -2.534718 2.627119 1.540634 0
M  V30 16 N -3.122204 3.572974 2.461759 0
M  V30 17 C -3.450179 1.797030 0.886501 0
M  V30 18 C -4.873144 1.883857 1.118120 0
M  V30 19 N -6.011998 1.968439 1.294978 0
M  V30 20 C -2.926965 0.879216 -0.003044 0
M  V30 21 C -3.787861 -0.041001 -0.740822 0
M  V30 22 C -3.245312 -0.904037 -1.585634 0
M  V30 23 C -4.045807 -1.844720 -2.348410 0
M  V30 24 O -5.293364 -1.855635 -2.216488 0
M  V30 25 O -3.422629 -2.724269 -3.217467 0
M  V30 26 N -1.594209 0.847879 -0.175935 0
M  V30 27 C 3.841403 -0.055178 1.070464 0
M  V30 28 C 4.363114 -0.923788 2.002120 0
M  V30 29 H 3.086110 -3.064051 4.467304 0
M  V30 30 H 4.203983 -4.229684 5.175282 0
M  V30 31 H 3.096703 -4.784739 3.849893 0
M  V30 32 H 3.482680 -3.839926 0.593097 0
M  V30 33 H 2.575666 -2.317970 -1.027111 0
M  V30 34 H 3.108494 1.249587 -1.334713 0
M  V30 35 H 2.594133 -0.277841 -2.066886 0
M  V30 36 H 0.422587 -0.041743 -1.235140 0
M  V30 37 H -0.504761 3.217060 1.856113 0
M  V30 38 H -3.812801 4.307161 2.281949 0
M  V30 39 H -2.907622 3.636910 3.495562 0
M  V30 40 H -4.857220 -0.008540 -0.590332 0
M  V30 41 H -2.166676 -0.881122 -1.687247 0
M  V30 42 H -3.858451 -3.650782 -3.344821 0
M  V30 43 H 3.917532 1.022300 1.156236 0
M  V30 44 H 4.873668 -0.544990 2.868335 0
M  V30 END ATOM
M  V30 BEGIN BOND
M  V30 1 1 1 2
M  V30 2 2 2 3
M  V30 3 2 2 4
M  V30 4 1 2 5
M  V30 5 2 5 6
M  V30 6 1 6 7
M  V30 7 2 7 8
M  V30 8 1 8 9
M  V30 9 1 9 10
M  V30 10 1 10 11
M  V30 11 2 11 12
M  V30 12 1 11 13
M  V30 13 2 13 14
M  V30 14 1 14 15
M  V30 15 1 15 16
M  V30 16 2 15 17
M  V30 17 1 17 18
M  V30 18 3 18 19
M  V30 19 1 17 20
M  V30 20 1 20 21
M  V30 21 2 21 22
M  V30 22 1 22 23
M  V30 23 2 23 24
M  V30 24 1 23 25
M  V30 25 2 20 26
M  V30 26 1 8 27
M  V30 27 2 27 28
M  V30 28 1 28 5
M  V30 29 1 26 13
M  V30 30 1 1 29
M  V30 31 1 1 30
M  V30 32 1 1 31
M  V30 33 1 6 32
M  V30 34 1 7 33
M  V30 35 1 9 34
M  V30 36 1 9 35
M  V30 37 1 10 36
M  V30 38 1 14 37
M  V30 39 1 16 38
M  V30 40 1 16 39
M  V30 41 1 21 40
M  V30 42 1 22 41
M  V30 43 1 25 42
M  V30 44 1 27 43
M  V30 45 1 28 44
M  V30 END BOND
M  V30 END CTAB
M  END
>  <Dataset>  (212) 
ChEMBL_Kinases

>  <Ligand_Instance>  (212) 
nan

>  <PDB_ID>  (212) 
nan

>  <Standardized_SMILES>  (212) 
CS(=O)(=O)c1ccc(CNC(=O)c2cc(N)c(C#N)c(/C=C/C(=O)O)n2)cc1

>  <Name>  (212) 
nan

>  <Pocket>  (212) 
nan

>  <ATP_Site>  (212) 
nan

>  <Peripheral>  (212) 
nan

>  <Num_H_Atoms_ProtBoundConf>  (212) 
nan

>  <Num_Resolved_Atoms>  (212) 
nan

>  <Num_Not_Resolved_Atoms>  (212) 
nan

$$$$
CHEMBL3687443
     RDKit          3D

  0  0  0  0  0  0  0  0  0  0999 V3000
M  V30 BEGIN CTAB
M  V30 COUNTS 59 62 0 0 0
M  V30 BEGIN ATOM
M  V30 1 C 5.887913 1.003033 -1.069243 0
M  V30 2 S 4.307001 0.206768 -1.312833 0
M  V30 3 C 3.828235 -0.850794 0.072618 0 CFG=2
M  V30 4 C 2.490822 -1.494749 -0.335812 0 CFG=2
M  V30 5 N 2.656406 -2.617656 -1.202741 0
M  V30 6 C 1.700548 -0.361284 -1.010806 0
M  V30 7 C 1.319178 0.599205 0.054225 0 CFG=2
M  V30 8 C 0.510676 1.751593 -0.348765 0
M  V30 9 C 1.010672 2.957854 -0.799373 0
M  V30 10 C 0.263893 4.034652 -1.169595 0
M  V30 11 N -1.075317 3.977623 -1.112973 0
M  V30 12 C -1.665727 2.846062 -0.687303 0
M  V30 13 C -0.891998 1.764587 -0.316189 0
M  V30 14 N -1.594776 0.607268 0.126491 0
M  V30 15 C -1.970328 -0.309031 -0.927350 0
M  V30 16 O -1.653749 -0.014750 -2.131669 0
M  V30 17 C -2.687689 -1.517515 -0.572324 0
M  V30 18 C -3.030664 -2.370235 -1.630656 0
M  V30 19 C -3.717683 -3.564606 -1.457647 0
M  V30 20 C -4.092690 -3.953180 -0.187138 0
M  V30 21 F -4.760222 -5.100007 0.039902 0
M  V30 22 C -3.736510 -3.086993 0.826051 0
M  V30 23 C -4.086583 -3.401639 2.224592 0
M  V30 24 C -5.303471 -2.942651 2.687774 0
M  V30 25 F -6.151760 -2.226068 1.885275 0
M  V30 26 C -5.715504 -3.191007 3.988647 0
M  V30 27 C -4.896644 -3.909718 4.838234 0
M  V30 28 C -3.689282 -4.362413 4.371009 0
M  V30 29 C -3.255312 -4.127120 3.075591 0
M  V30 30 F -2.066542 -4.555963 2.566452 0
M  V30 31 N -3.064435 -1.919505 0.652020 0
M  V30 32 C 2.618953 1.149753 0.662649 0
M  V30 33 C 3.450782 0.038893 1.239227 0 CFG=2
M  V30 34 C 4.700218 0.626851 1.824874 0
M  V30 35 H 5.718931 2.086555 -0.889674 0
M  V30 36 H 6.500646 0.616187 -0.245899 0
M  V30 37 H 6.546446 0.918331 -1.978971 0
M  V30 38 H 4.585348 -1.597521 0.337583 0
M  V30 39 H 1.939067 -1.737520 0.594915 0
M  V30 40 H 1.914409 -3.324087 -0.914105 0
M  V30 41 H 3.572574 -3.076857 -0.985464 0
M  V30 42 H 2.273529 0.136829 -1.801151 0
M  V30 43 H 0.862915 -0.872195 -1.505476 0
M  V30 44 H 0.846079 0.023382 0.898779 0
M  V30 45 H 2.071595 3.094563 -0.877908 0
M  V30 46 H 0.697041 4.966351 -1.518654 0
M  V30 47 H -2.744050 2.795886 -0.640460 0
M  V30 48 H -1.843197 0.393446 1.130305 0
M  V30 49 H -2.753890 -2.101911 -2.652453 0
M  V30 50 H -3.950806 -4.177984 -2.331682 0
M  V30 51 H -6.654522 -2.861717 4.415452 0
M  V30 52 H -5.113078 -4.162968 5.870500 0
M  V30 53 H -2.963814 -4.941558 4.960722 0
M  V30 54 H 3.195700 1.562356 -0.187829 0
M  V30 55 H 2.408936 1.883923 1.456872 0
M  V30 56 H 2.878354 -0.544695 2.013436 0
M  V30 57 H 4.593368 0.801427 2.929740 0
M  V30 58 H 4.950423 1.569428 1.302849 0
M  V30 59 H 5.498455 -0.151844 1.764906 0
M  V30 END ATOM
M  V30 BEGIN BOND
M  V30 1 1 1 2
M  V30 2 1 2 3
M  V30 3 1 3 4
M  V30 4 1 4 5
M  V30 5 1 4 6
M  V30 6 1 6 7
M  V30 7 1 7 8
M  V30 8 2 8 9
M  V30 9 1 9 10
M  V30 10 2 10 11
M  V30 11 1 11 12
M  V30 12 2 12 13
M  V30 13 1 13 14
M  V30 14 1 14 15
M  V30 15 2 15 16
M  V30 16 1 15 17
M  V30 17 2 17 18
M  V30 18 1 18 19
M  V30 19 2 19 20
M  V30 20 1 20 21
M  V30 21 1 20 22
M  V30 22 1 22 23
M  V30 23 2 23 24
M  V30 24 1 24 25
M  V30 25 1 24 26
M  V30 26 2 26 27
M  V30 27 1 27 28
M  V30 28 2 28 29
M  V30 29 1 29 30
M  V30 30 2 22 31
M  V30 31 1 7 32
M  V30 32 1 32 33
M  V30 33 1 33 34
M  V30 34 1 33 3
M  V30 35 1 13 8
M  V30 36 1 31 17
M  V30 37 1 29 23
M  V30 38 1 1 35
M  V30 39 1 1 36
M  V30 40 1 1 37
M  V30 41 1 3 38 CFG=1
M  V30 42 1 4 39 CFG=1
M  V30 43 1 5 40
M  V30 44 1 5 41
M  V30 45 1 6 42
M  V30 46 1 6 43
M  V30 47 1 7 44 CFG=1
M  V30 48 1 9 45
M  V30 49 1 10 46
M  V30 50 1 12 47
M  V30 51 1 14 48
M  V30 52 1 18 49
M  V30 53 1 19 50
M  V30 54 1 26 51
M  V30 55 1 27 52
M  V30 56 1 28 53
M  V30 57 1 32 54
M  V30 58 1 32 55
M  V30 59 1 33 56 CFG=1
M  V30 60 1 34 57
M  V30 61 1 34 58
M  V30 62 1 34 59
M  V30 END BOND
M  V30 END CTAB
M  END
>  <Dataset>  (213) 
ChEMBL_Kinases

>  <Ligand_Instance>  (213) 
nan

>  <PDB_ID>  (213) 
nan

>  <Standardized_SMILES>  (213) 
CS[C@@H]1[C@H](N)C[C@H](c2ccncc2NC(=O)c2ccc(F)c(-c3c(F)cccc3F)n2)C[C@@H]1C

>  <Name>  (213) 
nan

>  <Pocket>  (213) 
nan

>  <ATP_Site>  (213) 
nan

>  <Peripheral>  (213) 
nan

>  <Num_H_Atoms_ProtBoundConf>  (213) 
nan

>  <Num_Resolved_Atoms>  (213) 
nan

>  <Num_Not_Resolved_Atoms>  (213) 
nan

$$$$
CHEMBL261413
     RDKit          3D

  0  0  0  0  0  0  0  0  0  0999 V3000
M  V30 BEGIN CTAB
M  V30 COUNTS 68 71 0 0 0
M  V30 BEGIN ATOM
M  V30 1 C 3.082163 1.243644 2.156849 0
M  V30 2 C 1.988475 0.242184 2.466556 0
M  V30 3 C 0.674336 0.877313 2.244939 0
M  V30 4 O 1.377825 1.873872 1.934201 0
M  V30 5 C -0.773006 0.887328 2.222551 0
M  V30 6 C -1.269998 2.114860 1.824261 0
M  V30 7 C -0.502151 3.265615 1.462000 0
M  V30 8 C -0.123118 3.452401 0.140861 0
M  V30 9 C 0.618674 4.534578 -0.297603 0
M  V30 10 C 1.014831 5.501537 0.633699 0
M  V30 11 C 0.635263 5.311023 1.946309 0
M  V30 12 C -0.104327 4.235515 2.393715 0
M  V30 13 C -2.652042 2.214504 1.779643 0
M  V30 14 C -3.277178 3.385032 1.398208 0
M  V30 15 C -4.637097 3.465047 1.359734 0
M  V30 16 Cl -5.460762 4.919656 0.885264 0
M  V30 17 C -5.358865 2.347226 1.711634 0
M  V30 18 C -4.751439 1.171479 2.094642 0
M  V30 19 C -3.384070 1.101348 2.129988 0
M  V30 20 C -2.790358 -0.082579 2.515126 0
M  V30 21 O -3.546464 -1.059658 2.821601 0
M  V30 22 N -1.430616 -0.210927 2.568635 0
M  V30 23 C -0.871987 -1.440454 2.968682 0
M  V30 24 C -0.598984 -2.453112 1.931439 0
M  V30 25 C -1.501126 -3.433321 1.483899 0
M  V30 26 C -0.950961 -4.234775 0.505610 0
M  V30 27 S -1.698476 -5.573957 -0.323298 0
M  V30 28 C -1.814246 -5.366826 -2.061605 0
M  V30 29 O -1.040396 -6.880729 0.048263 0
M  V30 30 O -3.125434 -5.689049 0.196000 0
M  V30 31 N 0.283003 -3.718747 0.379974 0
M  V30 32 C 1.325134 -4.154024 -0.517811 0
M  V30 33 C 1.364012 -3.464866 -1.832791 0
M  V30 34 C 2.463832 -3.954547 -2.744771 0
M  V30 35 C 2.424996 -3.197694 -4.054260 0
M  V30 36 C 3.823775 -3.816032 -2.144711 0
M  V30 37 O 2.236996 -5.310120 -2.998232 0
M  V30 38 N 0.470450 -2.700924 1.201163 0
M  V30 39 H 3.075375 2.145364 2.757612 0
M  V30 40 H 3.032434 1.462786 1.074456 0
M  V30 41 H 4.061772 0.734857 2.360716 0
M  V30 42 H 2.089877 -0.184628 3.483949 0
M  V30 43 H 2.219403 -0.614821 1.791123 0
M  V30 44 H -0.423583 2.707286 -0.600521 0
M  V30 45 H 0.890491 4.636860 -1.341368 0
M  V30 46 H 1.596197 6.353049 0.298689 0
M  V30 47 H 0.955594 6.080123 2.661186 0
M  V30 48 H -0.389585 4.110321 3.431112 0
M  V30 49 H -2.645586 4.227486 1.133836 0
M  V30 50 H -6.423771 2.358312 1.698127 0
M  V30 51 H -5.354995 0.311051 2.365299 0
M  V30 52 H -1.609093 -1.922882 3.652941 0
M  V30 53 H 0.010640 -1.334274 3.669805 0
M  V30 54 H -2.528486 -3.554070 1.864510 0
M  V30 55 H -0.944300 -5.828698 -2.580835 0
M  V30 56 H -1.905204 -4.275316 -2.305649 0
M  V30 57 H -2.721474 -5.833078 -2.499509 0
M  V30 58 H 2.346668 -4.022979 -0.054228 0
M  V30 59 H 1.219038 -5.269668 -0.610103 0
M  V30 60 H 1.508815 -2.380957 -1.635518 0
M  V30 61 H 0.384322 -3.557644 -2.329709 0
M  V30 62 H 3.072872 -3.714517 -4.808615 0
M  V30 63 H 2.834575 -2.179948 -3.962619 0
M  V30 64 H 1.399854 -3.126611 -4.465717 0
M  V30 65 H 4.548455 -3.604526 -2.960182 0
M  V30 66 H 3.907104 -2.967523 -1.441929 0
M  V30 67 H 4.196701 -4.774244 -1.690920 0
M  V30 68 H 2.658002 -5.563793 -3.851535 0
M  V30 END ATOM
M  V30 BEGIN BOND
M  V30 1 1 1 2
M  V30 2 1 2 3
M  V30 3 2 3 4
M  V30 4 1 3 5
M  V30 5 2 5 6
M  V30 6 1 6 7
M  V30 7 2 7 8
M  V30 8 1 8 9
M  V30 9 2 9 10
M  V30 10 1 10 11
M  V30 11 2 11 12
M  V30 12 1 6 13
M  V30 13 2 13 14
M  V30 14 1 14 15
M  V30 15 1 15 16
M  V30 16 2 15 17
M  V30 17 1 17 18
M  V30 18 2 18 19
M  V30 19 1 19 20
M  V30 20 2 20 21
M  V30 21 1 20 22
M  V30 22 1 22 23
M  V30 23 1 23 24
M  V30 24 1 24 25
M  V30 25 2 25 26
M  V30 26 1 26 27
M  V30 27 1 27 28
M  V30 28 2 27 29
M  V30 29 2 27 30
M  V30 30 1 26 31
M  V30 31 1 31 32
M  V30 32 1 32 33
M  V30 33 1 33 34
M  V30 34 1 34 35
M  V30 35 1 34 36
M  V30 36 1 34 37
M  V30 37 1 31 38
M  V30 38 1 22 5
M  V30 39 2 38 24
M  V30 40 1 12 7
M  V30 41 1 19 13
M  V30 42 1 1 39
M  V30 43 1 1 40
M  V30 44 1 1 41
M  V30 45 1 2 42
M  V30 46 1 2 43
M  V30 47 1 8 44
M  V30 48 1 9 45
M  V30 49 1 10 46
M  V30 50 1 11 47
M  V30 51 1 12 48
M  V30 52 1 14 49
M  V30 53 1 17 50
M  V30 54 1 18 51
M  V30 55 1 23 52
M  V30 56 1 23 53
M  V30 57 1 25 54
M  V30 58 1 28 55
M  V30 59 1 28 56
M  V30 60 1 28 57
M  V30 61 1 32 58
M  V30 62 1 32 59
M  V30 63 1 33 60
M  V30 64 1 33 61
M  V30 65 1 35 62
M  V30 66 1 35 63
M  V30 67 1 35 64
M  V30 68 1 36 65
M  V30 69 1 36 66
M  V30 70 1 36 67
M  V30 71 1 37 68
M  V30 END BOND
M  V30 END CTAB
M  END
>  <Dataset>  (214) 
ChEMBL_Kinases

>  <Ligand_Instance>  (214) 
nan

>  <PDB_ID>  (214) 
nan

>  <Standardized_SMILES>  (214) 
CCC(=O)c1c(-c2ccccc2)c2cc(Cl)ccc2c(=O)n1Cc1cc(S(C)(=O)=O)n(CCC(C)(C)O)n1

>  <Name>  (214) 
nan

>  <Pocket>  (214) 
nan

>  <ATP_Site>  (214) 
nan

>  <Peripheral>  (214) 
nan

>  <Num_H_Atoms_ProtBoundConf>  (214) 
nan

>  <Num_Resolved_Atoms>  (214) 
nan

>  <Num_Not_Resolved_Atoms>  (214) 
nan

$$$$
CHEMBL3687442
     RDKit          3D

  0  0  0  0  0  0  0  0  0  0999 V3000
M  V30 BEGIN CTAB
M  V30 COUNTS 60 63 0 0 0
M  V30 BEGIN ATOM
M  V30 1 C 3.094107 -2.342224 2.645315 0
M  V30 2 C 1.876296 -1.943233 1.799946 0 CFG=1
M  V30 3 C 2.288147 -0.787597 0.959928 0
M  V30 4 C 2.062326 -1.106683 -0.499577 0 CFG=1
M  V30 5 C 2.484171 -0.027329 -1.409359 0
M  V30 6 C 3.776347 -0.136132 -1.930084 0
M  V30 7 C 4.346323 0.767086 -2.799765 0
M  V30 8 N 3.564697 1.828345 -3.154568 0
M  V30 9 C 2.332614 1.923522 -2.652125 0
M  V30 10 C 1.719138 1.054178 -1.785014 0
M  V30 11 N 0.411871 1.179988 -1.263329 0
M  V30 12 C -0.564567 2.177067 -1.493535 0
M  V30 13 O -0.287529 3.122726 -2.271235 0
M  V30 14 C -1.881924 2.171352 -0.877102 0
M  V30 15 C -2.794199 3.167449 -1.134390 0
M  V30 16 C -4.061180 3.202232 -0.568768 0
M  V30 17 C -4.436514 2.190915 0.297972 0
M  V30 18 F -5.672304 2.191345 0.872639 0
M  V30 19 C -3.514326 1.201166 0.546286 0
M  V30 20 C -3.890727 0.131610 1.452764 0
M  V30 21 C -3.599202 0.336056 2.799990 0
M  V30 22 F -3.002160 1.466097 3.222329 0
M  V30 23 C -3.950504 -0.670851 3.675353 0
M  V30 24 C -4.560987 -1.817472 3.214786 0
M  V30 25 C -4.852117 -2.022563 1.872345 0
M  V30 26 C -4.498663 -1.013746 1.005584 0
M  V30 27 F -4.756487 -1.148375 -0.337069 0
M  V30 28 N -2.291528 1.225380 -0.039176 0
M  V30 29 C 2.895311 -2.358406 -0.745134 0
M  V30 30 C 2.145513 -3.516989 -0.139222 0 CFG=1
M  V30 31 N 3.079587 -4.600330 0.087470 0
M  V30 32 C 1.391306 -3.156842 1.097832 0 CFG=2
M  V30 33 S -0.359757 -3.164287 0.816630 0 CHG=1 VAL=3
M  V30 34 C -1.306799 -3.083731 2.274875 0
M  V30 35 O -0.843849 -4.393842 -0.175053 0 CHG=-1 VAL=1
M  V30 36 H 3.715418 -3.033153 2.059389 0
M  V30 37 H 3.620414 -1.458821 3.019728 0
M  V30 38 H 2.697470 -2.888672 3.521101 0
M  V30 39 H 1.141354 -1.583905 2.542268 0
M  V30 40 H 3.364085 -0.536245 1.058764 0
M  V30 41 H 1.761930 0.168239 1.248990 0
M  V30 42 H 0.998582 -1.286077 -0.648085 0
M  V30 43 H 4.432964 -0.957601 -1.679532 0
M  V30 44 H 5.342788 0.665323 -3.189177 0
M  V30 45 H 1.819793 2.794233 -3.002195 0
M  V30 46 H 0.049728 0.463839 -0.599038 0
M  V30 47 H -2.534322 3.974503 -1.807405 0
M  V30 48 H -4.727293 4.022086 -0.819904 0
M  V30 49 H -3.726190 -0.516632 4.722115 0
M  V30 50 H -4.824321 -2.585579 3.915231 0
M  V30 51 H -5.330610 -2.916080 1.495388 0
M  V30 52 H 3.851681 -2.211896 -0.198520 0
M  V30 53 H 3.127503 -2.533536 -1.792988 0
M  V30 54 H 1.415296 -3.863805 -0.900522 0
M  V30 55 H 3.888154 -4.552969 -0.598178 0
M  V30 56 H 2.637484 -5.538991 -0.048114 0
M  V30 57 H 1.545582 -4.009801 1.818685 0
M  V30 58 H -1.793154 -2.064628 2.318708 0
M  V30 59 H -0.717067 -3.130952 3.210323 0
M  V30 60 H -2.143022 -3.809729 2.250296 0
M  V30 END ATOM
M  V30 BEGIN BOND
M  V30 1 1 1 2
M  V30 2 1 2 3
M  V30 3 1 3 4
M  V30 4 1 4 5
M  V30 5 2 5 6
M  V30 6 1 6 7
M  V30 7 2 7 8
M  V30 8 1 8 9
M  V30 9 2 9 10
M  V30 10 1 10 11
M  V30 11 1 11 12
M  V30 12 2 12 13
M  V30 13 1 12 14
M  V30 14 2 14 15
M  V30 15 1 15 16
M  V30 16 2 16 17
M  V30 17 1 17 18
M  V30 18 1 17 19
M  V30 19 1 19 20
M  V30 20 2 20 21
M  V30 21 1 21 22
M  V30 22 1 21 23
M  V30 23 2 23 24
M  V30 24 1 24 25
M  V30 25 2 25 26
M  V30 26 1 26 27
M  V30 27 2 19 28
M  V30 28 1 4 29
M  V30 29 1 29 30
M  V30 30 1 30 31
M  V30 31 1 30 32
M  V30 32 1 32 33
M  V30 33 1 33 34
M  V30 34 1 33 35 CFG=1
M  V30 35 1 32 2
M  V30 36 1 10 5
M  V30 37 1 28 14
M  V30 38 1 26 20
M  V30 39 1 1 36
M  V30 40 1 1 37
M  V30 41 1 1 38
M  V30 42 1 2 39 CFG=1
M  V30 43 1 3 40
M  V30 44 1 3 41
M  V30 45 1 4 42 CFG=1
M  V30 46 1 6 43
M  V30 47 1 7 44
M  V30 48 1 9 45
M  V30 49 1 11 46
M  V30 50 1 15 47
M  V30 51 1 16 48
M  V30 52 1 23 49
M  V30 53 1 24 50
M  V30 54 1 25 51
M  V30 55 1 29 52
M  V30 56 1 29 53
M  V30 57 1 30 54 CFG=3
M  V30 58 1 31 55
M  V30 59 1 31 56
M  V30 60 1 32 57 CFG=1
M  V30 61 1 34 58
M  V30 62 1 34 59
M  V30 63 1 34 60
M  V30 END BOND
M  V30 END CTAB
M  END
>  <Dataset>  (215) 
ChEMBL_Kinases

>  <Ligand_Instance>  (215) 
nan

>  <PDB_ID>  (215) 
nan

>  <Standardized_SMILES>  (215) 
C[C@H]1C[C@@H](c2ccncc2NC(=O)c2ccc(F)c(-c3c(F)cccc3F)n2)C[C@@H](N)[C@@H]1[S@+](C)[O-]

>  <Name>  (215) 
nan

>  <Pocket>  (215) 
nan

>  <ATP_Site>  (215) 
nan

>  <Peripheral>  (215) 
nan

>  <Num_H_Atoms_ProtBoundConf>  (215) 
nan

>  <Num_Resolved_Atoms>  (215) 
nan

>  <Num_Not_Resolved_Atoms>  (215) 
nan

$$$$
CHEMBL3687441
     RDKit          3D

  0  0  0  0  0  0  0  0  0  0999 V3000
M  V30 BEGIN CTAB
M  V30 COUNTS 62 65 0 0 0
M  V30 BEGIN ATOM
M  V30 1 C -6.185082 0.750324 -2.831515 0
M  V30 2 C -5.268657 0.140608 -1.820941 0
M  V30 3 O -5.867792 -0.322792 -0.812082 0
M  V30 4 N -3.868878 0.144709 -2.100006 0
M  V30 5 C -2.934383 -0.443222 -1.128825 0 CFG=1
M  V30 6 C -2.221387 -1.560245 -1.910515 0 CFG=2
M  V30 7 N -1.793425 -2.540216 -0.967213 0
M  V30 8 C -1.174842 -0.915673 -2.746440 0
M  V30 9 C 0.013251 -0.503157 -1.917776 0 CFG=2
M  V30 10 C 1.114095 -1.437252 -1.975302 0
M  V30 11 C 1.566632 -1.429349 -3.320016 0
M  V30 12 C 2.630925 -2.281777 -3.670026 0
M  V30 13 N 3.235637 -3.096162 -2.799297 0
M  V30 14 C 2.808541 -3.102738 -1.528747 0
M  V30 15 C 1.769566 -2.285117 -1.142945 0
M  V30 16 N 1.455281 -2.371682 0.226653 0
M  V30 17 C 0.742023 -3.105914 1.232450 0
M  V30 18 O 0.059670 -4.128678 0.938295 0
M  V30 19 C 0.863542 -2.594908 2.598282 0
M  V30 20 C 0.215202 -3.320184 3.574760 0
M  V30 21 C 0.346752 -2.828739 4.860487 0
M  V30 22 C 1.076892 -1.681971 5.182773 0
M  V30 23 F 1.221487 -1.189950 6.425375 0
M  V30 24 C 1.699875 -1.007087 4.150520 0
M  V30 25 C 2.481466 0.196792 4.371915 0
M  V30 26 C 3.854095 0.072124 4.635060 0
M  V30 27 F 4.469703 -1.131551 4.689309 0
M  V30 28 C 4.672721 1.165490 4.857799 0
M  V30 29 C 4.119786 2.447931 4.820906 0
M  V30 30 C 2.779957 2.582578 4.563582 0
M  V30 31 C 1.967066 1.482544 4.341244 0
M  V30 32 F 0.620399 1.567766 4.078103 0
M  V30 33 N 1.556043 -1.498667 2.937247 0
M  V30 34 C -0.515324 -0.114414 -0.559578 0
M  V30 35 C -1.880736 0.546533 -0.678064 0 CFG=2
M  V30 36 C -2.278750 1.025132 0.693321 0
M  V30 37 H -6.518851 -0.034402 -3.531217 0
M  V30 38 H -7.064849 1.246371 -2.360873 0
M  V30 39 H -5.670962 1.519672 -3.439369 0
M  V30 40 H -3.562196 0.571341 -2.996982 0
M  V30 41 H -3.545899 -0.846037 -0.303168 0
M  V30 42 H -2.959591 -2.037724 -2.609155 0
M  V30 43 H -1.862638 -3.497896 -1.407525 0
M  V30 44 H -2.369104 -2.506358 -0.080847 0
M  V30 45 H -1.611626 0.038092 -3.141733 0
M  V30 46 H -0.892411 -1.459601 -3.681566 0
M  V30 47 H 0.352940 0.503695 -2.350974 0
M  V30 48 H 1.240905 -0.871012 -4.186603 0
M  V30 49 H 3.052990 -2.354600 -4.672047 0
M  V30 50 H 3.304155 -3.767748 -0.836255 0
M  V30 51 H 2.017215 -1.519919 0.541072 0
M  V30 52 H -0.344561 -4.198988 3.310244 0
M  V30 53 H -0.128766 -3.335902 5.692391 0
M  V30 54 H 5.740845 1.041653 5.065367 0
M  V30 55 H 4.698298 3.324119 4.984733 0
M  V30 56 H 2.287676 3.542436 4.521088 0
M  V30 57 H -0.545551 -0.913958 0.189538 0
M  V30 58 H 0.146910 0.685425 -0.090827 0
M  V30 59 H -1.820001 1.339844 -1.424961 0
M  V30 60 H -3.094721 0.415301 1.131891 0
M  V30 61 H -1.446331 0.965405 1.446004 0
M  V30 62 H -2.556425 2.097458 0.646673 0
M  V30 END ATOM
M  V30 BEGIN BOND
M  V30 1 1 1 2
M  V30 2 2 2 3
M  V30 3 1 2 4
M  V30 4 1 4 5
M  V30 5 1 5 6
M  V30 6 1 6 7
M  V30 7 1 6 8
M  V30 8 1 8 9
M  V30 9 1 9 10
M  V30 10 2 10 11
M  V30 11 1 11 12
M  V30 12 2 12 13
M  V30 13 1 13 14
M  V30 14 2 14 15
M  V30 15 1 15 16
M  V30 16 1 16 17
M  V30 17 2 17 18
M  V30 18 1 17 19
M  V30 19 2 19 20
M  V30 20 1 20 21
M  V30 21 2 21 22
M  V30 22 1 22 23
M  V30 23 1 22 24
M  V30 24 1 24 25
M  V30 25 2 25 26
M  V30 26 1 26 27
M  V30 27 1 26 28
M  V30 28 2 28 29
M  V30 29 1 29 30
M  V30 30 2 30 31
M  V30 31 1 31 32
M  V30 32 2 24 33
M  V30 33 1 9 34
M  V30 34 1 34 35
M  V30 35 1 35 36
M  V30 36 1 35 5
M  V30 37 1 15 10
M  V30 38 1 33 19
M  V30 39 1 31 25
M  V30 40 1 1 37
M  V30 41 1 1 38
M  V30 42 1 1 39
M  V30 43 1 4 40
M  V30 44 1 5 41 CFG=1
M  V30 45 1 6 42 CFG=3
M  V30 46 1 7 43
M  V30 47 1 7 44
M  V30 48 1 8 45
M  V30 49 1 8 46
M  V30 50 1 9 47 CFG=3
M  V30 51 1 11 48
M  V30 52 1 12 49
M  V30 53 1 14 50
M  V30 54 1 16 51
M  V30 55 1 20 52
M  V30 56 1 21 53
M  V30 57 1 28 54
M  V30 58 1 29 55
M  V30 59 1 30 56
M  V30 60 1 34 57
M  V30 61 1 34 58
M  V30 62 1 35 59 CFG=3
M  V30 63 1 36 60
M  V30 64 1 36 61
M  V30 65 1 36 62
M  V30 END BOND
M  V30 END CTAB
M  END
>  <Dataset>  (216) 
ChEMBL_Kinases

>  <Ligand_Instance>  (216) 
nan

>  <PDB_ID>  (216) 
nan

>  <Standardized_SMILES>  (216) 
CC(=O)N[C@H]1[C@H](N)C[C@H](c2ccncc2NC(=O)c2ccc(F)c(-c3c(F)cccc3F)n2)C[C@@H]1C

>  <Name>  (216) 
nan

>  <Pocket>  (216) 
nan

>  <ATP_Site>  (216) 
nan

>  <Peripheral>  (216) 
nan

>  <Num_H_Atoms_ProtBoundConf>  (216) 
nan

>  <Num_Resolved_Atoms>  (216) 
nan

>  <Num_Not_Resolved_Atoms>  (216) 
nan

$$$$
CHEMBL437943
     RDKit          3D

  0  0  0  0  0  0  0  0  0  0999 V3000
M  V30 BEGIN CTAB
M  V30 COUNTS 40 43 0 0 0
M  V30 BEGIN ATOM
M  V30 1 C 0.398363 -3.557369 0.631566 0
M  V30 2 C 1.815665 -3.134647 0.258140 0
M  V30 3 C 2.648821 -4.311645 -0.064494 0
M  V30 4 N 2.974108 -4.509469 -1.443268 0
M  V30 5 C 2.877404 -3.559333 -2.501680 0
M  V30 6 O 3.333161 -3.775741 -3.637419 0
M  V30 7 C 2.199953 -2.322037 -2.129254 0
M  V30 8 N 1.913077 -1.203322 -2.826112 0
M  V30 9 C 1.266634 -0.327797 -2.032152 0
M  V30 10 C 0.758808 0.942169 -2.244950 0
M  V30 11 C 0.114121 1.659890 -1.229771 0
M  V30 12 C -0.021676 1.089810 0.020451 0
M  V30 13 C -0.700764 1.870101 1.055096 0
M  V30 14 O -1.112906 3.011167 0.724116 0
M  V30 15 N -0.898449 1.386811 2.376879 0
M  V30 16 C -1.553620 2.117559 3.406855 0
M  V30 17 C -2.924875 1.957669 3.529350 0
M  V30 18 C -3.607344 2.658819 4.529991 0
M  V30 19 C -2.889305 3.504515 5.382952 0
M  V30 20 N -1.559883 3.612838 5.207998 0
M  V30 21 C -0.860631 2.966035 4.268914 0
M  V30 22 C 0.485940 -0.178435 0.231427 0
M  V30 23 C 1.122284 -0.892451 -0.762588 0
M  V30 24 C 1.713947 -2.138667 -0.850013 0
M  V30 25 H 0.325422 -3.705306 1.725911 0
M  V30 26 H -0.330466 -2.756392 0.340235 0
M  V30 27 H 0.156502 -4.540313 0.137916 0
M  V30 28 H 2.225434 -2.623465 1.172208 0
M  V30 29 H 2.157164 -5.205306 0.384099 0
M  V30 30 H 3.634697 -4.241334 0.479293 0
M  V30 31 H 3.318274 -5.485783 -1.638529 0
M  V30 32 H 2.152609 -1.032739 -3.831575 0
M  V30 33 H 0.885081 1.360068 -3.246274 0
M  V30 34 H -0.234087 2.631436 -1.520437 0
M  V30 35 H -0.555805 0.440344 2.648833 0
M  V30 36 H -3.543037 1.328532 2.914095 0
M  V30 37 H -4.674888 2.622446 4.731394 0
M  V30 38 H -3.396928 4.061693 6.170159 0
M  V30 39 H 0.203378 3.062713 4.140907 0
M  V30 40 H 0.387296 -0.631511 1.195560 0
M  V30 END ATOM
M  V30 BEGIN BOND
M  V30 1 1 1 2
M  V30 2 1 2 3
M  V30 3 1 3 4
M  V30 4 1 4 5
M  V30 5 2 5 6
M  V30 6 1 5 7
M  V30 7 1 7 8
M  V30 8 1 8 9
M  V30 9 2 9 10
M  V30 10 1 10 11
M  V30 11 2 11 12
M  V30 12 1 12 13
M  V30 13 2 13 14
M  V30 14 1 13 15
M  V30 15 1 15 16
M  V30 16 2 16 17
M  V30 17 1 17 18
M  V30 18 2 18 19
M  V30 19 1 19 20
M  V30 20 2 20 21
M  V30 21 1 12 22
M  V30 22 2 22 23
M  V30 23 1 23 24
M  V30 24 1 24 2
M  V30 25 2 24 7
M  V30 26 1 23 9
M  V30 27 1 21 16
M  V30 28 1 1 25
M  V30 29 1 1 26
M  V30 30 1 1 27
M  V30 31 1 2 28
M  V30 32 1 3 29
M  V30 33 1 3 30
M  V30 34 1 4 31
M  V30 35 1 8 32
M  V30 36 1 10 33
M  V30 37 1 11 34
M  V30 38 1 15 35
M  V30 39 1 17 36
M  V30 40 1 18 37
M  V30 41 1 19 38
M  V30 42 1 21 39
M  V30 43 1 22 40
M  V30 END BOND
M  V30 END CTAB
M  END
>  <Dataset>  (217) 
ChEMBL_Kinases

>  <Ligand_Instance>  (217) 
nan

>  <PDB_ID>  (217) 
nan

>  <Standardized_SMILES>  (217) 
CC1CNC(=O)c2[nH]c3ccc(C(=O)Nc4cccnc4)cc3c21

>  <Name>  (217) 
nan

>  <Pocket>  (217) 
nan

>  <ATP_Site>  (217) 
nan

>  <Peripheral>  (217) 
nan

>  <Num_H_Atoms_ProtBoundConf>  (217) 
nan

>  <Num_Resolved_Atoms>  (217) 
nan

>  <Num_Not_Resolved_Atoms>  (217) 
nan

$$$$
CHEMBL3687440
     RDKit          3D

  0  0  0  0  0  0  0  0  0  0999 V3000
M  V30 BEGIN CTAB
M  V30 COUNTS 57 60 0 0 0
M  V30 BEGIN ATOM
M  V30 1 C 3.037928 -3.107261 1.064825 0
M  V30 2 C 2.232875 -2.337121 0.009246 0 CFG=1
M  V30 3 C 2.026872 -0.964986 0.585618 0
M  V30 4 C 1.595777 0.053741 -0.420562 0 CFG=1
M  V30 5 C 1.747765 1.393431 0.169061 0
M  V30 6 C 2.935163 2.104800 -0.038719 0
M  V30 7 C 3.222938 3.386037 0.447890 0
M  V30 8 N 2.248388 3.988982 1.193406 0
M  V30 9 C 1.096327 3.313063 1.402564 0
M  V30 10 C 0.792299 2.063556 0.939164 0
M  V30 11 N -0.424256 1.408777 1.197937 0
M  V30 12 C -1.558422 1.852926 1.912505 0
M  V30 13 O -1.556037 2.997842 2.424714 0
M  V30 14 C -2.771825 1.070633 2.113212 0
M  V30 15 C -3.849329 1.543116 2.814534 0
M  V30 16 C -5.005320 0.816493 3.014107 0
M  V30 17 C -5.106891 -0.447176 2.493898 0
M  V30 18 F -6.251052 -1.149392 2.698967 0
M  V30 19 C -4.019294 -0.913761 1.790623 0
M  V30 20 C -4.118092 -2.259382 1.232426 0
M  V30 21 C -3.686497 -3.283669 2.041130 0
M  V30 22 F -3.197503 -3.038678 3.289399 0
M  V30 23 C -3.736744 -4.603490 1.607270 0
M  V30 24 C -4.234380 -4.882364 0.330169 0
M  V30 25 C -4.665356 -3.860313 -0.477556 0
M  V30 26 C -4.610616 -2.536861 -0.031881 0
M  V30 27 F -5.028607 -1.502192 -0.804995 0
M  V30 28 N -2.900376 -0.181759 1.610308 0
M  V30 29 C 2.257666 -0.096400 -1.756555 0
M  V30 30 C 2.160650 -1.518871 -2.277207 0 CFG=1
M  V30 31 N 2.709861 -1.572554 -3.597695 0
M  V30 32 C 2.934485 -2.378220 -1.302065 0 CFG=1
M  V30 33 N 4.324929 -2.014284 -1.240989 0
M  V30 34 N 4.849856 -1.508983 -2.253858 0 CHG=1 VAL=4
M  V30 35 N 5.503283 -0.895026 -3.101066 0 CHG=-1 VAL=2
M  V30 36 H 3.558332 -3.982811 0.636144 0
M  V30 37 H 3.820616 -2.444907 1.506119 0
M  V30 38 H 2.389012 -3.420044 1.908396 0
M  V30 39 H 1.267354 -2.846052 -0.063308 0
M  V30 40 H 2.969644 -0.664213 1.087545 0
M  V30 41 H 1.257969 -1.047595 1.382773 0
M  V30 42 H 0.500290 -0.101263 -0.632608 0
M  V30 43 H 3.787628 1.754192 -0.599163 0
M  V30 44 H 4.149456 3.916055 0.273411 0
M  V30 45 H 0.437470 3.900411 1.994522 0
M  V30 46 H -0.613469 0.442410 0.858895 0
M  V30 47 H -3.781879 2.538970 3.230232 0
M  V30 48 H -5.813139 1.259220 3.579571 0
M  V30 49 H -3.381949 -5.388019 2.285625 0
M  V30 50 H -4.269419 -5.909659 0.002361 0
M  V30 51 H -5.058178 -4.042410 -1.476600 0
M  V30 52 H 1.764689 0.550523 -2.503956 0
M  V30 53 H 3.306021 0.212466 -1.682535 0
M  V30 54 H 1.117943 -1.835436 -2.277996 0
M  V30 55 H 2.584558 -0.624176 -4.042808 0
M  V30 56 H 2.220160 -2.307418 -4.180764 0
M  V30 57 H 2.892439 -3.414650 -1.674589 0
M  V30 END ATOM
M  V30 BEGIN BOND
M  V30 1 1 1 2
M  V30 2 1 2 3
M  V30 3 1 3 4
M  V30 4 1 4 5
M  V30 5 2 5 6
M  V30 6 1 6 7
M  V30 7 2 7 8
M  V30 8 1 8 9
M  V30 9 2 9 10
M  V30 10 1 10 11
M  V30 11 1 11 12
M  V30 12 2 12 13
M  V30 13 1 12 14
M  V30 14 2 14 15
M  V30 15 1 15 16
M  V30 16 2 16 17
M  V30 17 1 17 18
M  V30 18 1 17 19
M  V30 19 1 19 20
M  V30 20 2 20 21
M  V30 21 1 21 22
M  V30 22 1 21 23
M  V30 23 2 23 24
M  V30 24 1 24 25
M  V30 25 2 25 26
M  V30 26 1 26 27
M  V30 27 2 19 28
M  V30 28 1 4 29
M  V30 29 1 29 30
M  V30 30 1 30 31
M  V30 31 1 30 32
M  V30 32 1 32 33
M  V30 33 2 33 34
M  V30 34 2 34 35
M  V30 35 1 32 2
M  V30 36 1 10 5
M  V30 37 1 28 14
M  V30 38 1 26 20
M  V30 39 1 1 36
M  V30 40 1 1 37
M  V30 41 1 1 38
M  V30 42 1 2 39 CFG=3
M  V30 43 1 3 40
M  V30 44 1 3 41
M  V30 45 1 4 42 CFG=3
M  V30 46 1 6 43
M  V30 47 1 7 44
M  V30 48 1 9 45
M  V30 49 1 11 46
M  V30 50 1 15 47
M  V30 51 1 16 48
M  V30 52 1 23 49
M  V30 53 1 24 50
M  V30 54 1 25 51
M  V30 55 1 29 52
M  V30 56 1 29 53
M  V30 57 1 30 54 CFG=3
M  V30 58 1 31 55
M  V30 59 1 31 56
M  V30 60 1 32 57 CFG=3
M  V30 END BOND
M  V30 END CTAB
M  END
>  <Dataset>  (218) 
ChEMBL_Kinases

>  <Ligand_Instance>  (218) 
nan

>  <PDB_ID>  (218) 
nan

>  <Standardized_SMILES>  (218) 
C[C@H]1C[C@@H](c2ccncc2NC(=O)c2ccc(F)c(-c3c(F)cccc3F)n2)C[C@@H](N)[C@H]1N=[N+]=[N-]

>  <Name>  (218) 
nan

>  <Pocket>  (218) 
nan

>  <ATP_Site>  (218) 
nan

>  <Peripheral>  (218) 
nan

>  <Num_H_Atoms_ProtBoundConf>  (218) 
nan

>  <Num_Resolved_Atoms>  (218) 
nan

>  <Num_Not_Resolved_Atoms>  (218) 
nan

$$$$
CHEMBL3687439
     RDKit          3D

  0  0  0  0  0  0  0  0  0  0999 V3000
M  V30 BEGIN CTAB
M  V30 COUNTS 57 60 0 0 0
M  V30 BEGIN ATOM
M  V30 1 C 2.858720 -2.969868 0.360226 0
M  V30 2 C 3.571222 -1.712484 -0.092398 0 CFG=2
M  V30 3 C 3.058647 -0.565312 0.708408 0
M  V30 4 C 2.332007 0.485714 -0.148290 0 CFG=2
M  V30 5 C 2.133114 1.624654 0.699041 0
M  V30 6 C 3.100964 2.639145 0.774329 0
M  V30 7 C 2.953759 3.745580 1.582174 0
M  V30 8 N 1.864786 3.921234 2.352992 0
M  V30 9 C 0.900936 2.981615 2.323831 0
M  V30 10 C 1.050897 1.874021 1.513432 0
M  V30 11 N -0.017202 0.970578 1.574391 0
M  V30 12 C -1.039080 1.336202 0.631469 0
M  V30 13 O -0.708291 2.376796 -0.007411 0
M  V30 14 C -2.289882 0.613326 0.431205 0
M  V30 15 C -3.130924 1.140881 -0.525677 0
M  V30 16 C -4.349789 0.562119 -0.820488 0
M  V30 17 C -4.756868 -0.582707 -0.145580 0
M  V30 18 F -5.946155 -1.170401 -0.414717 0
M  V30 19 C -3.879465 -1.085909 0.814168 0
M  V30 20 C -4.229933 -2.271299 1.558023 0
M  V30 21 C -4.918297 -2.131305 2.749610 0
M  V30 22 F -5.281115 -0.926717 3.255647 0
M  V30 23 C -5.242543 -3.298510 3.444670 0
M  V30 24 C -4.905545 -4.556386 2.990505 0
M  V30 25 C -4.218608 -4.686470 1.800516 0
M  V30 26 C -3.888504 -3.543652 1.097650 0
M  V30 27 F -3.215983 -3.706134 -0.062983 0
M  V30 28 N -2.697046 -0.502657 1.082301 0
M  V30 29 C 1.266684 -0.191244 -0.858750 0
M  V30 30 C 1.926296 -1.153000 -1.859359 0 CFG=2
M  V30 31 N 1.231648 -2.424478 -1.920122 0
M  V30 32 C 3.357465 -1.435069 -1.552050 0 CFG=2
M  V30 33 N 3.679007 -2.672196 -2.287122 0
M  V30 34 N 3.887829 -2.622212 -3.510849 0 CHG=1 VAL=4
M  V30 35 N 3.645783 -2.671277 -4.719945 0 CHG=-1 VAL=2
M  V30 36 H 3.430711 -3.449400 1.206479 0
M  V30 37 H 2.818264 -3.730501 -0.436895 0
M  V30 38 H 1.858632 -2.732758 0.801669 0
M  V30 39 H 4.655476 -1.900145 0.112035 0
M  V30 40 H 2.387957 -0.861776 1.545597 0
M  V30 41 H 3.936083 -0.045353 1.181555 0
M  V30 42 H 3.119268 0.761657 -0.914831 0
M  V30 43 H 4.013474 2.568353 0.177420 0
M  V30 44 H 3.725920 4.499178 1.606369 0
M  V30 45 H 0.041351 3.154766 2.954816 0
M  V30 46 H -0.204497 0.100522 2.164747 0
M  V30 47 H -2.937031 2.035645 -1.131547 0
M  V30 48 H -5.041635 0.961316 -1.579417 0
M  V30 49 H -5.782158 -3.189776 4.377934 0
M  V30 50 H -5.213888 -5.396039 3.622465 0
M  V30 51 H -3.969245 -5.665520 1.469337 0
M  V30 52 H 0.608744 -0.852144 -0.259614 0
M  V30 53 H 0.723709 0.534448 -1.501967 0
M  V30 54 H 1.898951 -0.753048 -2.900151 0
M  V30 55 H 0.193527 -2.309945 -1.953226 0
M  V30 56 H 1.610109 -2.936290 -2.730274 0
M  V30 57 H 4.083760 -0.699524 -1.940256 0
M  V30 END ATOM
M  V30 BEGIN BOND
M  V30 1 1 1 2
M  V30 2 1 2 3
M  V30 3 1 3 4
M  V30 4 1 4 5
M  V30 5 2 5 6
M  V30 6 1 6 7
M  V30 7 2 7 8
M  V30 8 1 8 9
M  V30 9 2 9 10
M  V30 10 1 10 11
M  V30 11 1 11 12
M  V30 12 2 12 13
M  V30 13 1 12 14
M  V30 14 2 14 15
M  V30 15 1 15 16
M  V30 16 2 16 17
M  V30 17 1 17 18
M  V30 18 1 17 19
M  V30 19 1 19 20
M  V30 20 2 20 21
M  V30 21 1 21 22
M  V30 22 1 21 23
M  V30 23 2 23 24
M  V30 24 1 24 25
M  V30 25 2 25 26
M  V30 26 1 26 27
M  V30 27 2 19 28
M  V30 28 1 4 29
M  V30 29 1 29 30
M  V30 30 1 30 31
M  V30 31 1 30 32
M  V30 32 1 32 33
M  V30 33 2 33 34
M  V30 34 2 34 35
M  V30 35 1 32 2
M  V30 36 1 10 5
M  V30 37 1 28 14
M  V30 38 1 26 20
M  V30 39 1 1 36
M  V30 40 1 1 37
M  V30 41 1 1 38
M  V30 42 1 2 39 CFG=3
M  V30 43 1 3 40
M  V30 44 1 3 41
M  V30 45 1 4 42 CFG=3
M  V30 46 1 6 43
M  V30 47 1 7 44
M  V30 48 1 9 45
M  V30 49 1 11 46
M  V30 50 1 15 47
M  V30 51 1 16 48
M  V30 52 1 23 49
M  V30 53 1 24 50
M  V30 54 1 25 51
M  V30 55 1 29 52
M  V30 56 1 29 53
M  V30 57 1 30 54 CFG=3
M  V30 58 1 31 55
M  V30 59 1 31 56
M  V30 60 1 32 57 CFG=3
M  V30 END BOND
M  V30 END CTAB
M  END
>  <Dataset>  (219) 
ChEMBL_Kinases

>  <Ligand_Instance>  (219) 
nan

>  <PDB_ID>  (219) 
nan

>  <Standardized_SMILES>  (219) 
C[C@@H]1C[C@H](c2ccncc2NC(=O)c2ccc(F)c(-c3c(F)cccc3F)n2)C[C@H](N)[C@@H]1N=[N+]=[N-]

>  <Name>  (219) 
nan

>  <Pocket>  (219) 
nan

>  <ATP_Site>  (219) 
nan

>  <Peripheral>  (219) 
nan

>  <Num_H_Atoms_ProtBoundConf>  (219) 
nan

>  <Num_Resolved_Atoms>  (219) 
nan

>  <Num_Not_Resolved_Atoms>  (219) 
nan

$$$$
CHEMBL263448
     RDKit          3D

  0  0  0  0  0  0  0  0  0  0999 V3000
M  V30 BEGIN CTAB
M  V30 COUNTS 47 51 0 0 0
M  V30 BEGIN ATOM
M  V30 1 F 5.132511 0.646607 4.000401 0
M  V30 2 C 4.572463 -0.156139 3.030215 0
M  V30 3 F 3.409996 -0.739843 3.513957 0
M  V30 4 F 5.416562 -1.224804 2.688206 0
M  V30 5 C 4.271852 0.587305 1.771765 0
M  V30 6 C 5.400826 1.048875 1.093061 0
M  V30 7 C 5.225268 1.751606 -0.098415 0
M  V30 8 C 3.990455 2.020435 -0.652104 0
M  V30 9 C 2.914372 1.534393 0.072027 0
M  V30 10 N 1.596805 1.759664 -0.427794 0
M  V30 11 C 0.297339 1.462810 0.034665 0
M  V30 12 N -0.219412 2.494722 0.743624 0
M  V30 13 C -1.473739 2.370005 1.266886 0
M  V30 14 C -2.189405 1.185156 1.058085 0
M  V30 15 C -1.632594 0.141041 0.325260 0
M  V30 16 C -2.419914 -1.057519 0.147113 0
M  V30 17 C -2.060738 -2.332255 0.605618 0
M  V30 18 C -0.843300 -2.702129 1.348274 0
M  V30 19 C 0.192598 -3.541182 0.986997 0
M  V30 20 C 1.234983 -3.734667 1.865502 0
M  V30 21 C 1.226756 -3.091094 3.084191 0
M  V30 22 C 0.209701 -2.247308 3.477838 0
M  V30 23 C -0.837696 -2.065352 2.571047 0
M  V30 24 N -3.026823 -3.221556 0.267149 0
M  V30 25 N -3.994540 -2.564471 -0.392697 0
M  V30 26 N -5.154345 -2.971987 -0.935561 0
M  V30 27 C -5.970153 -2.105741 -1.556029 0
M  V30 28 C -5.637032 -0.767199 -1.653414 0
M  V30 29 C -4.452842 -0.310820 -1.107784 0
M  V30 30 C -3.652667 -1.256978 -0.478821 0
M  V30 31 N -0.393512 0.304432 -0.173708 0
M  V30 32 C 3.037275 0.836764 1.250602 0
M  V30 33 H 6.402416 0.895318 1.432891 0
M  V30 34 H 6.126079 2.109116 -0.622556 0
M  V30 35 H 3.884653 2.570555 -1.581656 0
M  V30 36 H 1.445545 2.255111 -1.348583 0
M  V30 37 H -1.937932 3.166931 1.843494 0
M  V30 38 H -3.198672 1.129346 1.498601 0
M  V30 39 H 0.020509 -3.955514 -0.011639 0
M  V30 40 H 1.996552 -4.406402 1.492264 0
M  V30 41 H 2.065768 -3.271850 3.743617 0
M  V30 42 H 0.299301 -1.798557 4.439355 0
M  V30 43 H -1.590250 -1.379195 2.976948 0
M  V30 44 H -6.894864 -2.467336 -1.980688 0
M  V30 45 H -6.240871 -0.035760 -2.131456 0
M  V30 46 H -4.163716 0.731071 -1.167518 0
M  V30 47 H 2.204519 0.460124 1.812367 0
M  V30 END ATOM
M  V30 BEGIN BOND
M  V30 1 1 1 2
M  V30 2 1 2 3
M  V30 3 1 2 4
M  V30 4 1 2 5
M  V30 5 2 5 6
M  V30 6 1 6 7
M  V30 7 2 7 8
M  V30 8 1 8 9
M  V30 9 1 9 10
M  V30 10 1 10 11
M  V30 11 2 11 12
M  V30 12 1 12 13
M  V30 13 2 13 14
M  V30 14 1 14 15
M  V30 15 1 15 16
M  V30 16 1 16 17
M  V30 17 1 17 18
M  V30 18 2 18 19
M  V30 19 1 19 20
M  V30 20 2 20 21
M  V30 21 1 21 22
M  V30 22 2 22 23
M  V30 23 2 17 24
M  V30 24 1 24 25
M  V30 25 1 25 26
M  V30 26 2 26 27
M  V30 27 1 27 28
M  V30 28 2 28 29
M  V30 29 1 29 30
M  V30 30 2 15 31
M  V30 31 2 9 32
M  V30 32 1 32 5
M  V30 33 1 31 11
M  V30 34 2 30 16
M  V30 35 1 23 18
M  V30 36 1 30 25
M  V30 37 1 6 33
M  V30 38 1 7 34
M  V30 39 1 8 35
M  V30 40 1 10 36
M  V30 41 1 13 37
M  V30 42 1 14 38
M  V30 43 1 19 39
M  V30 44 1 20 40
M  V30 45 1 21 41
M  V30 46 1 22 42
M  V30 47 1 23 43
M  V30 48 1 27 44
M  V30 49 1 28 45
M  V30 50 1 29 46
M  V30 51 1 32 47
M  V30 END BOND
M  V30 END CTAB
M  END
>  <Dataset>  (220) 
ChEMBL_Kinases

>  <Ligand_Instance>  (220) 
nan

>  <PDB_ID>  (220) 
nan

>  <Standardized_SMILES>  (220) 
FC(F)(F)c1cccc(Nc2nccc(-c3c(-c4ccccc4)nn4ncccc34)n2)c1

>  <Name>  (220) 
nan

>  <Pocket>  (220) 
nan

>  <ATP_Site>  (220) 
nan

>  <Peripheral>  (220) 
nan

>  <Num_H_Atoms_ProtBoundConf>  (220) 
nan

>  <Num_Resolved_Atoms>  (220) 
nan

>  <Num_Not_Resolved_Atoms>  (220) 
nan

$$$$
CHEMBL3687432
     RDKit          3D

  0  0  0  0  0  0  0  0  0  0999 V3000
M  V30 BEGIN CTAB
M  V30 COUNTS 68 71 0 0 0
M  V30 BEGIN ATOM
M  V30 1 C 3.355082 -3.016254 4.435087 0
M  V30 2 O 4.375392 -2.093522 4.411127 0
M  V30 3 C 3.901234 -0.807562 4.516896 0
M  V30 4 C 2.959612 -0.400049 3.417168 0
M  V30 5 S 3.722585 -0.494349 1.817636 0
M  V30 6 O 4.968893 0.316587 1.778820 0
M  V30 7 O 4.080350 -1.910946 1.515534 0
M  V30 8 C 2.508129 0.010286 0.628886 0 CFG=2
M  V30 9 C 2.960302 -0.159641 -0.780800 0 CFG=2
M  V30 10 N 3.703453 0.964484 -1.304356 0
M  V30 11 C 1.693296 -0.248079 -1.647666 0
M  V30 12 C 0.635475 0.697736 -1.132824 0 CFG=2
M  V30 13 C -0.082604 1.255386 -2.298145 0
M  V30 14 C 0.190801 2.372762 -3.049214 0
M  V30 15 C -0.596627 2.746995 -4.116117 0
M  V30 16 N -1.681124 2.047827 -4.493531 0
M  V30 17 C -1.984769 0.950819 -3.788886 0
M  V30 18 C -1.217678 0.549200 -2.716173 0
M  V30 19 N -1.701113 -0.645833 -2.089379 0
M  V30 20 C -1.500896 -2.027948 -2.229522 0
M  V30 21 O -0.712171 -2.472259 -3.099341 0
M  V30 22 C -2.268427 -2.844141 -1.303895 0
M  V30 23 C -2.088645 -4.205564 -1.422014 0
M  V30 24 C -2.765030 -5.078209 -0.596874 0
M  V30 25 C -3.632184 -4.580047 0.358381 0
M  V30 26 F -4.380485 -5.285961 1.254800 0
M  V30 27 C -3.794773 -3.215472 0.456789 0
M  V30 28 C -4.645547 -2.453395 1.376699 0
M  V30 29 C -5.913723 -2.233568 0.860372 0
M  V30 30 F -6.360876 -2.656577 -0.352580 0
M  V30 31 C -6.884421 -1.532765 1.561871 0
M  V30 32 C -6.557804 -1.042259 2.821504 0
M  V30 33 C -5.302802 -1.263271 3.325212 0
M  V30 34 C -4.341146 -1.958880 2.627576 0
M  V30 35 F -3.077790 -2.233839 3.026883 0
M  V30 36 N -3.119868 -2.400546 -0.363057 0
M  V30 37 C 1.204377 1.829368 -0.337410 0
M  V30 38 C 1.941452 1.356832 0.901053 0 CFG=2
M  V30 39 C 2.910462 2.429493 1.254449 0
M  V30 40 H 3.847083 -4.026935 4.343631 0
M  V30 41 H 2.792818 -3.041501 5.395777 0
M  V30 42 H 2.636066 -2.957817 3.616261 0
M  V30 43 H 4.676707 -0.055031 4.696016 0
M  V30 44 H 3.270625 -0.793864 5.454067 0
M  V30 45 H 2.636642 0.638601 3.633662 0
M  V30 46 H 2.056070 -1.014465 3.403689 0
M  V30 47 H 1.671781 -0.730402 0.763400 0
M  V30 48 H 3.580359 -1.057319 -0.919146 0
M  V30 49 H 3.443936 1.189672 -2.287646 0
M  V30 50 H 4.738810 0.845584 -1.267663 0
M  V30 51 H 1.917816 -0.125735 -2.721615 0
M  V30 52 H 1.308473 -1.278812 -1.507194 0
M  V30 53 H -0.095741 0.144278 -0.474513 0
M  V30 54 H 1.063186 2.929741 -2.743251 0
M  V30 55 H -0.314149 3.642352 -4.659239 0
M  V30 56 H -2.865509 0.424578 -4.132858 0
M  V30 57 H -2.352216 -0.210639 -1.375358 0
M  V30 58 H -1.424614 -4.640101 -2.150146 0
M  V30 59 H -2.687706 -6.153306 -0.616696 0
M  V30 60 H -7.880280 -1.328182 1.222361 0
M  V30 61 H -7.271180 -0.496560 3.400170 0
M  V30 62 H -4.998734 -0.902986 4.299348 0
M  V30 63 H 1.864947 2.478301 -0.964005 0
M  V30 64 H 0.364311 2.471658 -0.005171 0
M  V30 65 H 1.218583 1.250862 1.760715 0
M  V30 66 H 3.951219 2.270878 0.985382 0
M  V30 67 H 2.900843 2.654453 2.359633 0
M  V30 68 H 2.632241 3.424995 0.800202 0
M  V30 END ATOM
M  V30 BEGIN BOND
M  V30 1 1 1 2
M  V30 2 1 2 3
M  V30 3 1 3 4
M  V30 4 1 4 5
M  V30 5 2 5 6
M  V30 6 2 5 7
M  V30 7 1 5 8
M  V30 8 1 8 9
M  V30 9 1 9 10
M  V30 10 1 9 11
M  V30 11 1 11 12
M  V30 12 1 12 13
M  V30 13 2 13 14
M  V30 14 1 14 15
M  V30 15 2 15 16
M  V30 16 1 16 17
M  V30 17 2 17 18
M  V30 18 1 18 19
M  V30 19 1 19 20
M  V30 20 2 20 21
M  V30 21 1 20 22
M  V30 22 2 22 23
M  V30 23 1 23 24
M  V30 24 2 24 25
M  V30 25 1 25 26
M  V30 26 1 25 27
M  V30 27 1 27 28
M  V30 28 2 28 29
M  V30 29 1 29 30
M  V30 30 1 29 31
M  V30 31 2 31 32
M  V30 32 1 32 33
M  V30 33 2 33 34
M  V30 34 1 34 35
M  V30 35 2 27 36
M  V30 36 1 12 37
M  V30 37 1 37 38
M  V30 38 1 38 39
M  V30 39 1 38 8
M  V30 40 1 18 13
M  V30 41 1 36 22
M  V30 42 1 34 28
M  V30 43 1 1 40
M  V30 44 1 1 41
M  V30 45 1 1 42
M  V30 46 1 3 43
M  V30 47 1 3 44
M  V30 48 1 4 45
M  V30 49 1 4 46
M  V30 50 1 8 47 CFG=3
M  V30 51 1 9 48 CFG=1
M  V30 52 1 10 49
M  V30 53 1 10 50
M  V30 54 1 11 51
M  V30 55 1 11 52
M  V30 56 1 12 53 CFG=1
M  V30 57 1 14 54
M  V30 58 1 15 55
M  V30 59 1 17 56
M  V30 60 1 19 57
M  V30 61 1 23 58
M  V30 62 1 24 59
M  V30 63 1 31 60
M  V30 64 1 32 61
M  V30 65 1 33 62
M  V30 66 1 37 63
M  V30 67 1 37 64
M  V30 68 1 38 65 CFG=1
M  V30 69 1 39 66
M  V30 70 1 39 67
M  V30 71 1 39 68
M  V30 END BOND
M  V30 END CTAB
M  END
>  <Dataset>  (221) 
ChEMBL_Kinases

>  <Ligand_Instance>  (221) 
nan

>  <PDB_ID>  (221) 
nan

>  <Standardized_SMILES>  (221) 
COCCS(=O)(=O)[C@@H]1[C@H](N)C[C@H](c2ccncc2NC(=O)c2ccc(F)c(-c3c(F)cccc3F)n2)C[C@@H]1C

>  <Name>  (221) 
nan

>  <Pocket>  (221) 
nan

>  <ATP_Site>  (221) 
nan

>  <Peripheral>  (221) 
nan

>  <Num_H_Atoms_ProtBoundConf>  (221) 
nan

>  <Num_Resolved_Atoms>  (221) 
nan

>  <Num_Not_Resolved_Atoms>  (221) 
nan

$$$$
CHEMBL437030
     RDKit          3D

  0  0  0  0  0  0  0  0  0  0999 V3000
M  V30 BEGIN CTAB
M  V30 COUNTS 55 59 0 0 0
M  V30 BEGIN ATOM
M  V30 1 C 5.567228 -0.979506 2.744216 0
M  V30 2 C 4.119401 -1.308398 3.007525 0
M  V30 3 C 4.037102 -1.654417 4.506194 0
M  V30 4 S 3.032844 0.054915 2.757325 0
M  V30 5 O 3.571940 1.191843 3.627398 0
M  V30 6 O 1.659491 -0.215519 3.299862 0
M  V30 7 N 2.949396 0.614075 1.151008 0
M  V30 8 C 3.875367 1.134472 0.332151 0
M  V30 9 N 5.234715 1.359429 0.668999 0
M  V30 10 N 3.403432 1.446146 -0.878514 0
M  V30 11 C 2.084095 1.119848 -0.882701 0
M  V30 12 C 1.137622 1.236249 -1.875992 0
M  V30 13 C -0.155423 0.826701 -1.627692 0
M  V30 14 C -0.450294 0.308906 -0.372562 0
M  V30 15 C -1.834983 -0.104505 -0.179367 0
M  V30 16 N -2.799664 0.342583 0.642152 0
M  V30 17 C -3.896859 -0.421169 0.385879 0
M  V30 18 C -5.170795 -0.250216 1.077131 0
M  V30 19 C -5.279055 0.737171 2.041184 0
M  V30 20 C -6.485491 0.900287 2.696442 0
M  V30 21 N -7.562972 0.126670 2.426161 0
M  V30 22 C -7.425305 -0.834293 1.474341 0
M  V30 23 C -6.245591 -1.049927 0.781351 0
M  V30 24 N -3.614082 -1.323717 -0.576959 0
M  V30 25 C -2.326782 -1.141893 -0.944629 0
M  V30 26 C -1.818751 -2.027999 -1.986682 0
M  V30 27 C -0.770768 -2.833592 -1.554197 0
M  V30 28 C -0.124370 -3.753376 -2.354171 0
M  V30 29 C -0.565256 -3.866841 -3.677218 0
M  V30 30 C -1.602176 -3.072794 -4.113041 0
M  V30 31 C -2.233420 -2.159909 -3.294734 0
M  V30 32 C 0.532446 0.217144 0.576420 0
M  V30 33 C 1.833623 0.610569 0.379115 0
M  V30 34 H 5.749024 -1.186778 1.654997 0
M  V30 35 H 6.165125 -1.747568 3.296164 0
M  V30 36 H 5.819921 0.041468 3.046768 0
M  V30 37 H 3.862205 -2.201858 2.401697 0
M  V30 38 H 3.107819 -2.237878 4.701135 0
M  V30 39 H 4.959999 -2.167942 4.845105 0
M  V30 40 H 3.943807 -0.723831 5.104356 0
M  V30 41 H 6.205240 0.986411 0.580321 0
M  V30 42 H 5.622084 2.164929 1.222671 0
M  V30 43 H 1.459576 1.653458 -2.826641 0
M  V30 44 H -0.853637 0.941171 -2.441850 0
M  V30 45 H -2.654067 1.131853 1.319207 0
M  V30 46 H -4.469490 1.398639 2.318951 0
M  V30 47 H -6.588439 1.661744 3.447301 0
M  V30 48 H -8.287778 -1.458858 1.253193 0
M  V30 49 H -6.183760 -1.832571 0.026783 0
M  V30 50 H -0.363482 -2.812248 -0.540233 0
M  V30 51 H 0.678836 -4.375772 -2.035331 0
M  V30 52 H -0.089993 -4.574220 -4.342758 0
M  V30 53 H -1.967431 -3.133510 -5.124234 0
M  V30 54 H -3.046494 -1.504491 -3.552912 0
M  V30 55 H 0.199349 -0.192021 1.496161 0
M  V30 END ATOM
M  V30 BEGIN BOND
M  V30 1 1 1 2
M  V30 2 1 2 3
M  V30 3 1 2 4
M  V30 4 2 4 5
M  V30 5 2 4 6
M  V30 6 1 4 7
M  V30 7 1 7 8
M  V30 8 1 8 9
M  V30 9 2 8 10
M  V30 10 1 10 11
M  V30 11 2 11 12
M  V30 12 1 12 13
M  V30 13 2 13 14
M  V30 14 1 14 15
M  V30 15 1 15 16
M  V30 16 1 16 17
M  V30 17 1 17 18
M  V30 18 2 18 19
M  V30 19 1 19 20
M  V30 20 2 20 21
M  V30 21 1 21 22
M  V30 22 2 22 23
M  V30 23 2 17 24
M  V30 24 1 24 25
M  V30 25 1 25 26
M  V30 26 2 26 27
M  V30 27 1 27 28
M  V30 28 2 28 29
M  V30 29 1 29 30
M  V30 30 2 30 31
M  V30 31 1 14 32
M  V30 32 2 32 33
M  V30 33 1 33 7
M  V30 34 1 33 11
M  V30 35 2 25 15
M  V30 36 1 31 26
M  V30 37 1 23 18
M  V30 38 1 1 34
M  V30 39 1 1 35
M  V30 40 1 1 36
M  V30 41 1 2 37
M  V30 42 1 3 38
M  V30 43 1 3 39
M  V30 44 1 3 40
M  V30 45 1 9 41
M  V30 46 1 9 42
M  V30 47 1 12 43
M  V30 48 1 13 44
M  V30 49 1 16 45
M  V30 50 1 19 46
M  V30 51 1 20 47
M  V30 52 1 22 48
M  V30 53 1 23 49
M  V30 54 1 27 50
M  V30 55 1 28 51
M  V30 56 1 29 52
M  V30 57 1 30 53
M  V30 58 1 31 54
M  V30 59 1 32 55
M  V30 END BOND
M  V30 END CTAB
M  END
>  <Dataset>  (222) 
ChEMBL_Kinases

>  <Ligand_Instance>  (222) 
nan

>  <PDB_ID>  (222) 
nan

>  <Standardized_SMILES>  (222) 
CC(C)S(=O)(=O)n1c(N)nc2ccc(-c3[nH]c(-c4ccncc4)nc3-c3ccccc3)cc21

>  <Name>  (222) 
nan

>  <Pocket>  (222) 
nan

>  <ATP_Site>  (222) 
nan

>  <Peripheral>  (222) 
nan

>  <Num_H_Atoms_ProtBoundConf>  (222) 
nan

>  <Num_Resolved_Atoms>  (222) 
nan

>  <Num_Not_Resolved_Atoms>  (222) 
nan

$$$$
CHEMBL3687438
     RDKit          3D

  0  0  0  0  0  0  0  0  0  0999 V3000
M  V30 BEGIN CTAB
M  V30 COUNTS 63 66 0 0 0
M  V30 BEGIN ATOM
M  V30 1 C 1.394101 -2.489292 2.792976 0
M  V30 2 C 2.124910 -2.329746 1.478406 0 CFG=1
M  V30 3 C 1.254893 -2.927512 0.412599 0
M  V30 4 C 1.542545 -2.379879 -0.964281 0 CFG=1
M  V30 5 C 0.708583 -3.034107 -1.954853 0
M  V30 6 C 1.113593 -4.226414 -2.576783 0
M  V30 7 C 0.405114 -4.941371 -3.519287 0
M  V30 8 N -0.811484 -4.453753 -3.893982 0
M  V30 9 C -1.287172 -3.305509 -3.346636 0
M  V30 10 C -0.527936 -2.638539 -2.408830 0
M  V30 11 N -1.133100 -1.461210 -1.916094 0
M  V30 12 C -1.076403 -0.115028 -2.449244 0
M  V30 13 O -0.441751 0.185968 -3.480176 0
M  V30 14 C -1.827549 0.881593 -1.681253 0
M  V30 15 C -1.817547 2.188254 -2.129468 0
M  V30 16 C -2.509690 3.169098 -1.442786 0
M  V30 17 C -3.216328 2.843484 -0.301407 0
M  V30 18 F -3.947954 3.658392 0.498959 0
M  V30 19 C -3.215284 1.531876 0.132256 0
M  V30 20 C -3.867431 0.921788 1.288418 0
M  V30 21 C -3.074920 0.925316 2.420632 0
M  V30 22 F -1.822600 1.437217 2.476237 0
M  V30 23 C -3.524466 0.386344 3.620473 0
M  V30 24 C -4.801107 -0.169921 3.685417 0
M  V30 25 C -5.581800 -0.166546 2.546809 0
M  V30 26 C -5.134506 0.368228 1.357815 0
M  V30 27 F -5.833611 0.412980 0.197709 0
M  V30 28 N -2.534045 0.592471 -0.552164 0
M  V30 29 C 1.653808 -0.899238 -0.996622 0
M  V30 30 C 2.929944 -0.603539 -0.178904 0 CFG=1
M  V30 31 N 3.255413 0.793921 -0.260640 0
M  V30 32 C 2.518285 -0.918795 1.258934 0 CFG=1
M  V30 33 N 1.567120 0.075279 1.636828 0
M  V30 34 S 2.131487 1.198310 2.793230 0
M  V30 35 C 2.564232 0.383264 4.314118 0
M  V30 36 O 1.059734 2.210687 3.102976 0
M  V30 37 O 3.306224 1.986776 2.286537 0
M  V30 38 H 0.469433 -1.906212 2.844536 0
M  V30 39 H 1.053846 -3.566268 2.796724 0
M  V30 40 H 2.061673 -2.397883 3.667362 0
M  V30 41 H 3.065246 -2.924741 1.591246 0
M  V30 42 H 0.173398 -2.829001 0.643521 0
M  V30 43 H 1.460810 -4.018476 0.382781 0
M  V30 44 H 2.597411 -2.746805 -1.176125 0
M  V30 45 H 2.096341 -4.633562 -2.283589 0
M  V30 46 H 0.834141 -5.848442 -3.919967 0
M  V30 47 H -2.256914 -2.967097 -3.682090 0
M  V30 48 H -1.665693 -1.711001 -1.052435 0
M  V30 49 H -1.289186 2.500548 -3.004919 0
M  V30 50 H -2.558945 4.202800 -1.714777 0
M  V30 51 H -2.964127 0.353208 4.543348 0
M  V30 52 H -5.171668 -0.593354 4.603155 0
M  V30 53 H -6.565675 -0.582998 2.556466 0
M  V30 54 H 1.767104 -0.548876 -2.020764 0
M  V30 55 H 0.876634 -0.375322 -0.394761 0
M  V30 56 H 3.754707 -1.273191 -0.516250 0
M  V30 57 H 4.296647 0.868293 -0.461806 0
M  V30 58 H 2.798221 1.195924 -1.109822 0
M  V30 59 H 3.452148 -0.702798 1.852087 0
M  V30 60 H 0.592327 -0.211857 1.723444 0
M  V30 61 H 1.731335 -0.218562 4.684603 0
M  V30 62 H 3.448010 -0.265125 4.146597 0
M  V30 63 H 2.744010 1.177382 5.073806 0
M  V30 END ATOM
M  V30 BEGIN BOND
M  V30 1 1 1 2
M  V30 2 1 2 3
M  V30 3 1 3 4
M  V30 4 1 4 5
M  V30 5 2 5 6
M  V30 6 1 6 7
M  V30 7 2 7 8
M  V30 8 1 8 9
M  V30 9 2 9 10
M  V30 10 1 10 11
M  V30 11 1 11 12
M  V30 12 2 12 13
M  V30 13 1 12 14
M  V30 14 2 14 15
M  V30 15 1 15 16
M  V30 16 2 16 17
M  V30 17 1 17 18
M  V30 18 1 17 19
M  V30 19 1 19 20
M  V30 20 2 20 21
M  V30 21 1 21 22
M  V30 22 1 21 23
M  V30 23 2 23 24
M  V30 24 1 24 25
M  V30 25 2 25 26
M  V30 26 1 26 27
M  V30 27 2 19 28
M  V30 28 1 4 29
M  V30 29 1 29 30
M  V30 30 1 30 31
M  V30 31 1 30 32
M  V30 32 1 32 33
M  V30 33 1 33 34
M  V30 34 1 34 35
M  V30 35 2 34 36
M  V30 36 2 34 37
M  V30 37 1 32 2
M  V30 38 1 10 5
M  V30 39 1 28 14
M  V30 40 1 26 20
M  V30 41 1 1 38
M  V30 42 1 1 39
M  V30 43 1 1 40
M  V30 44 1 2 41 CFG=1
M  V30 45 1 3 42
M  V30 46 1 3 43
M  V30 47 1 4 44 CFG=3
M  V30 48 1 6 45
M  V30 49 1 7 46
M  V30 50 1 9 47
M  V30 51 1 11 48
M  V30 52 1 15 49
M  V30 53 1 16 50
M  V30 54 1 23 51
M  V30 55 1 24 52
M  V30 56 1 25 53
M  V30 57 1 29 54
M  V30 58 1 29 55
M  V30 59 1 30 56 CFG=3
M  V30 60 1 31 57
M  V30 61 1 31 58
M  V30 62 1 32 59 CFG=1
M  V30 63 1 33 60
M  V30 64 1 35 61
M  V30 65 1 35 62
M  V30 66 1 35 63
M  V30 END BOND
M  V30 END CTAB
M  END
>  <Dataset>  (223) 
ChEMBL_Kinases

>  <Ligand_Instance>  (223) 
nan

>  <PDB_ID>  (223) 
nan

>  <Standardized_SMILES>  (223) 
C[C@H]1C[C@@H](c2ccncc2NC(=O)c2ccc(F)c(-c3c(F)cccc3F)n2)C[C@@H](N)[C@H]1NS(C)(=O)=O

>  <Name>  (223) 
nan

>  <Pocket>  (223) 
nan

>  <ATP_Site>  (223) 
nan

>  <Peripheral>  (223) 
nan

>  <Num_H_Atoms_ProtBoundConf>  (223) 
nan

>  <Num_Resolved_Atoms>  (223) 
nan

>  <Num_Not_Resolved_Atoms>  (223) 
nan

$$$$
CHEMBL436137
     RDKit          3D

  0  0  0  0  0  0  0  0  0  0999 V3000
M  V30 BEGIN CTAB
M  V30 COUNTS 65 69 0 0 0
M  V30 BEGIN ATOM
M  V30 1 C 1.159489 4.376754 4.511445 0
M  V30 2 C 2.436415 3.678882 4.785900 0
M  V30 3 C 3.242491 3.938412 5.884616 0
M  V30 4 C 4.432130 3.279313 6.124097 0
M  V30 5 C 4.798981 2.322216 5.197814 0
M  V30 6 C 4.017610 2.025191 4.072156 0
M  V30 7 C 4.537457 0.973121 3.173079 0
M  V30 8 C 2.815472 2.713221 3.859743 0
M  V30 9 C 2.100419 2.316715 2.680965 0
M  V30 10 C 1.229544 1.252939 2.830148 0
M  V30 11 C 0.499373 0.810419 1.744815 0
M  V30 12 C -0.442290 -0.329200 1.885467 0
M  V30 13 C 0.688229 1.474025 0.547578 0
M  V30 14 N -0.004949 1.067119 -0.525117 0
M  V30 15 C 0.076956 1.613016 -1.742634 0
M  V30 16 N -0.635690 1.185734 -2.889727 0
M  V30 17 C -1.536512 0.120674 -3.116809 0
M  V30 18 C -2.176162 -0.179575 -4.291122 0
M  V30 19 C -3.024010 -1.268335 -4.362393 0
M  V30 20 C -3.283490 -2.117860 -3.274243 0
M  V30 21 O -4.145580 -3.092614 -3.617580 0
M  V30 22 C -4.713164 -4.162933 -3.051742 0
M  V30 23 C -3.927981 -5.367799 -2.703922 0
M  V30 24 N -2.844765 -5.368297 -1.873580 0
M  V30 25 C -1.561078 -4.918027 -2.125189 0
M  V30 26 C -0.906146 -4.611678 -0.778827 0
M  V30 27 C -1.698788 -5.470825 0.171764 0
M  V30 28 C -3.096573 -5.421428 -0.475512 0
M  V30 29 C -2.615164 -1.759360 -2.137700 0
M  V30 30 C -1.765234 -0.686760 -2.027643 0
M  V30 31 N 0.924418 2.657887 -1.908414 0
M  V30 32 N 1.637899 3.103481 -0.878119 0
M  V30 33 C 1.539641 2.536746 0.342427 0
M  V30 34 C 2.258483 2.960054 1.442973 0
M  V30 35 H 1.080353 5.161425 5.306566 0
M  V30 36 H 0.266690 3.753065 4.630554 0
M  V30 37 H 1.190825 4.969463 3.574949 0
M  V30 38 H 2.932434 4.689664 6.588359 0
M  V30 39 H 5.051614 3.478776 6.968759 0
M  V30 40 H 5.728332 1.788644 5.361805 0
M  V30 41 H 3.767326 0.435073 2.589876 0
M  V30 42 H 5.439156 1.262329 2.599216 0
M  V30 43 H 4.929709 0.161540 3.860577 0
M  V30 44 H 1.072936 0.730459 3.749496 0
M  V30 45 H -1.376101 -0.125519 1.304600 0
M  V30 46 H -0.034963 -1.282272 1.493137 0
M  V30 47 H -0.722430 -0.490771 2.936094 0
M  V30 48 H -0.511423 1.734796 -3.791008 0
M  V30 49 H -1.967972 0.479614 -5.117315 0
M  V30 50 H -3.451374 -1.367624 -5.363982 0
M  V30 51 H -5.363579 -3.870812 -2.134888 0
M  V30 52 H -5.566721 -4.496356 -3.753921 0
M  V30 53 H -4.709134 -6.164134 -2.334027 0
M  V30 54 H -3.602387 -5.867951 -3.702693 0
M  V30 55 H -1.364604 -4.154540 -2.873006 0
M  V30 56 H -0.950090 -5.825677 -2.512480 0
M  V30 57 H -1.067318 -3.573520 -0.505142 0
M  V30 58 H 0.171218 -4.900574 -0.796012 0
M  V30 59 H -1.738679 -5.081274 1.207729 0
M  V30 60 H -1.313133 -6.514550 0.142998 0
M  V30 61 H -3.650248 -6.319571 -0.157252 0
M  V30 62 H -3.554005 -4.486939 -0.096349 0
M  V30 63 H -2.923563 -2.489665 -1.378902 0
M  V30 64 H -1.402226 -0.678051 -1.015260 0
M  V30 65 H 2.940860 3.785919 1.347600 0
M  V30 END ATOM
M  V30 BEGIN BOND
M  V30 1 1 1 2
M  V30 2 2 2 3
M  V30 3 1 3 4
M  V30 4 2 4 5
M  V30 5 1 5 6
M  V30 6 1 6 7
M  V30 7 2 6 8
M  V30 8 1 8 9
M  V30 9 2 9 10
M  V30 10 1 10 11
M  V30 11 1 11 12
M  V30 12 2 11 13
M  V30 13 1 13 14
M  V30 14 2 14 15
M  V30 15 1 15 16
M  V30 16 1 16 17
M  V30 17 2 17 18
M  V30 18 1 18 19
M  V30 19 2 19 20
M  V30 20 1 20 21
M  V30 21 1 21 22
M  V30 22 1 22 23
M  V30 23 1 23 24
M  V30 24 1 24 25
M  V30 25 1 25 26
M  V30 26 1 26 27
M  V30 27 1 27 28
M  V30 28 1 20 29
M  V30 29 2 29 30
M  V30 30 1 15 31
M  V30 31 2 31 32
M  V30 32 1 32 33
M  V30 33 2 33 34
M  V30 34 1 8 2
M  V30 35 1 34 9
M  V30 36 1 33 13
M  V30 37 1 30 17
M  V30 38 1 28 24
M  V30 39 1 1 35
M  V30 40 1 1 36
M  V30 41 1 1 37
M  V30 42 1 3 38
M  V30 43 1 4 39
M  V30 44 1 5 40
M  V30 45 1 7 41
M  V30 46 1 7 42
M  V30 47 1 7 43
M  V30 48 1 10 44
M  V30 49 1 12 45
M  V30 50 1 12 46
M  V30 51 1 12 47
M  V30 52 1 16 48
M  V30 53 1 18 49
M  V30 54 1 19 50
M  V30 55 1 22 51
M  V30 56 1 22 52
M  V30 57 1 23 53
M  V30 58 1 23 54
M  V30 59 1 25 55
M  V30 60 1 25 56
M  V30 61 1 26 57
M  V30 62 1 26 58
M  V30 63 1 27 59
M  V30 64 1 27 60
M  V30 65 1 28 61
M  V30 66 1 28 62
M  V30 67 1 29 63
M  V30 68 1 30 64
M  V30 69 1 34 65
M  V30 END BOND
M  V30 END CTAB
M  END
>  <Dataset>  (224) 
ChEMBL_Kinases

>  <Ligand_Instance>  (224) 
nan

>  <PDB_ID>  (224) 
nan

>  <Standardized_SMILES>  (224) 
Cc1cccc(C)c1-c1cc(C)c2nc(Nc3ccc(OCCN4CCCC4)cc3)nnc2c1

>  <Name>  (224) 
nan

>  <Pocket>  (224) 
nan

>  <ATP_Site>  (224) 
nan

>  <Peripheral>  (224) 
nan

>  <Num_H_Atoms_ProtBoundConf>  (224) 
nan

>  <Num_Resolved_Atoms>  (224) 
nan

>  <Num_Not_Resolved_Atoms>  (224) 
nan

$$$$
CHEMBL3687437
     RDKit          3D

  0  0  0  0  0  0  0  0  0  0999 V3000
M  V30 BEGIN CTAB
M  V30 COUNTS 63 66 0 0 0
M  V30 BEGIN ATOM
M  V30 1 C 0.607304 -0.839942 2.669989 0
M  V30 2 C 1.805205 -1.484806 2.006318 0 CFG=2
M  V30 3 C 2.635534 -0.577939 1.184653 0
M  V30 4 C 2.421611 -0.568791 -0.282520 0 CFG=2
M  V30 5 C 2.667857 0.691598 -0.963254 0
M  V30 6 C 3.922937 0.985268 -1.518125 0
M  V30 7 C 4.206191 2.165805 -2.172537 0
M  V30 8 N 3.277789 3.126841 -2.321781 0
M  V30 9 C 2.068027 2.918674 -1.822378 0
M  V30 10 C 1.790903 1.737423 -1.169525 0
M  V30 11 N 0.468021 1.614624 -0.666616 0
M  V30 12 C 0.012846 2.007642 0.647266 0
M  V30 13 O 0.830072 2.513950 1.459256 0
M  V30 14 C -1.385838 1.747520 0.847471 0
M  V30 15 C -1.845041 2.114675 2.118123 0
M  V30 16 C -3.179390 1.918981 2.458867 0
M  V30 17 C -4.048217 1.362487 1.542755 0
M  V30 18 F -5.359589 1.111437 1.724114 0
M  V30 19 C -3.551668 1.016508 0.304439 0
M  V30 20 C -4.284771 0.413320 -0.821817 0
M  V30 21 C -4.949493 1.052944 -1.845564 0
M  V30 22 F -4.901304 2.405212 -1.776414 0
M  V30 23 C -5.580122 0.303605 -2.813881 0
M  V30 24 C -5.536752 -1.094446 -2.744001 0
M  V30 25 C -4.867010 -1.737021 -1.712485 0
M  V30 26 C -4.236223 -0.977547 -0.744270 0
M  V30 27 F -3.613991 -1.704966 0.211356 0
M  V30 28 N -2.257662 1.214645 -0.004977 0
M  V30 29 C 1.105207 -1.233080 -0.560226 0
M  V30 30 C 1.056877 -2.646729 -0.023771 0 CFG=2
M  V30 31 N -0.340802 -3.067734 -0.251410 0
M  V30 32 C 1.408020 -2.789667 1.408102 0 CFG=2
M  V30 33 N 0.340446 -3.405884 2.181409 0
M  V30 34 S 0.835226 -4.952708 2.793144 0
M  V30 35 C 2.241277 -4.663346 3.872900 0
M  V30 36 O -0.236715 -5.517629 3.689799 0
M  V30 37 O 1.196220 -5.901908 1.709581 0
M  V30 38 H -0.332855 -0.935911 2.124490 0
M  V30 39 H 0.440202 -1.412439 3.632139 0
M  V30 40 H 0.842232 0.190358 3.031267 0
M  V30 41 H 2.469922 -1.769385 2.895379 0
M  V30 42 H 2.595333 0.434391 1.653976 0
M  V30 43 H 3.721004 -0.851992 1.357585 0
M  V30 44 H 3.186487 -1.295882 -0.715753 0
M  V30 45 H 4.749280 0.290999 -1.462465 0
M  V30 46 H 5.177417 2.373528 -2.591124 0
M  V30 47 H 1.323563 3.690839 -1.942498 0
M  V30 48 H -0.010082 1.199987 -1.476414 0
M  V30 49 H -1.245251 2.560148 2.914219 0
M  V30 50 H -3.609622 2.174004 3.412924 0
M  V30 51 H -6.091736 0.856447 -3.602761 0
M  V30 52 H -6.040034 -1.648792 -3.517854 0
M  V30 53 H -4.871486 -2.823219 -1.715480 0
M  V30 54 H 0.954542 -1.375990 -1.674284 0
M  V30 55 H 0.221094 -0.743563 -0.152032 0
M  V30 56 H 1.633561 -3.348750 -0.664270 0
M  V30 57 H -0.341394 -4.126531 -0.244640 0
M  V30 58 H -0.500429 -2.844889 -1.281273 0
M  V30 59 H 2.246743 -3.554417 1.469370 0
M  V30 60 H -0.542182 -3.537021 1.693325 0
M  V30 61 H 2.167382 -3.663742 4.377887 0
M  V30 62 H 3.153305 -4.602750 3.228199 0
M  V30 63 H 2.324558 -5.427013 4.656384 0
M  V30 END ATOM
M  V30 BEGIN BOND
M  V30 1 1 1 2
M  V30 2 1 2 3
M  V30 3 1 3 4
M  V30 4 1 4 5
M  V30 5 2 5 6
M  V30 6 1 6 7
M  V30 7 2 7 8
M  V30 8 1 8 9
M  V30 9 2 9 10
M  V30 10 1 10 11
M  V30 11 1 11 12
M  V30 12 2 12 13
M  V30 13 1 12 14
M  V30 14 2 14 15
M  V30 15 1 15 16
M  V30 16 2 16 17
M  V30 17 1 17 18
M  V30 18 1 17 19
M  V30 19 1 19 20
M  V30 20 2 20 21
M  V30 21 1 21 22
M  V30 22 1 21 23
M  V30 23 2 23 24
M  V30 24 1 24 25
M  V30 25 2 25 26
M  V30 26 1 26 27
M  V30 27 2 19 28
M  V30 28 1 4 29
M  V30 29 1 29 30
M  V30 30 1 30 31
M  V30 31 1 30 32
M  V30 32 1 32 33
M  V30 33 1 33 34
M  V30 34 1 34 35
M  V30 35 2 34 36
M  V30 36 2 34 37
M  V30 37 1 32 2
M  V30 38 1 10 5
M  V30 39 1 28 14
M  V30 40 1 26 20
M  V30 41 1 1 38
M  V30 42 1 1 39
M  V30 43 1 1 40
M  V30 44 1 2 41 CFG=1
M  V30 45 1 3 42
M  V30 46 1 3 43
M  V30 47 1 4 44 CFG=3
M  V30 48 1 6 45
M  V30 49 1 7 46
M  V30 50 1 9 47
M  V30 51 1 11 48
M  V30 52 1 15 49
M  V30 53 1 16 50
M  V30 54 1 23 51
M  V30 55 1 24 52
M  V30 56 1 25 53
M  V30 57 1 29 54
M  V30 58 1 29 55
M  V30 59 1 30 56 CFG=3
M  V30 60 1 31 57
M  V30 61 1 31 58
M  V30 62 1 32 59 CFG=3
M  V30 63 1 33 60
M  V30 64 1 35 61
M  V30 65 1 35 62
M  V30 66 1 35 63
M  V30 END BOND
M  V30 END CTAB
M  END
>  <Dataset>  (225) 
ChEMBL_Kinases

>  <Ligand_Instance>  (225) 
nan

>  <PDB_ID>  (225) 
nan

>  <Standardized_SMILES>  (225) 
C[C@@H]1C[C@H](c2ccncc2NC(=O)c2ccc(F)c(-c3c(F)cccc3F)n2)C[C@H](N)[C@@H]1NS(C)(=O)=O

>  <Name>  (225) 
nan

>  <Pocket>  (225) 
nan

>  <ATP_Site>  (225) 
nan

>  <Peripheral>  (225) 
nan

>  <Num_H_Atoms_ProtBoundConf>  (225) 
nan

>  <Num_Resolved_Atoms>  (225) 
nan

>  <Num_Not_Resolved_Atoms>  (225) 
nan

$$$$
CHEMBL3687436
     RDKit          3D

  0  0  0  0  0  0  0  0  0  0999 V3000
M  V30 BEGIN CTAB
M  V30 COUNTS 62 65 0 0 0
M  V30 BEGIN ATOM
M  V30 1 C 3.249631 -2.256882 5.650852 0
M  V30 2 C 2.298040 -1.898714 4.542426 0
M  V30 3 O 1.209683 -2.564548 4.478479 0
M  V30 4 N 2.603951 -0.863856 3.611557 0
M  V30 5 C 1.631498 -0.564548 2.553495 0 CFG=2
M  V30 6 C 2.311624 -0.889289 1.262173 0 CFG=2
M  V30 7 N 3.729276 -0.535598 1.285666 0
M  V30 8 C 1.621556 -0.361058 0.049460 0
M  V30 9 C 0.932335 0.953059 0.274828 0 CFG=2
M  V30 10 C 0.918412 1.832575 -0.905786 0
M  V30 11 C 1.959552 2.712633 -1.078970 0
M  V30 12 C 1.874284 3.510051 -2.218795 0
M  V30 13 N 0.897222 3.504035 -3.144427 0
M  V30 14 C -0.120734 2.634502 -2.963055 0
M  V30 15 C -0.111205 1.801459 -1.848320 0
M  V30 16 N -1.154073 0.845074 -1.575495 0
M  V30 17 C -2.344743 1.068778 -0.816202 0
M  V30 18 O -2.575917 2.193003 -0.300912 0
M  V30 19 C -3.254444 -0.061833 -0.679087 0
M  V30 20 C -4.409577 0.092340 0.036169 0
M  V30 21 C -5.328183 -0.921754 0.218058 0
M  V30 22 C -5.030540 -2.148040 -0.370125 0
M  V30 23 F -5.860029 -3.225693 -0.261005 0
M  V30 24 C -3.869813 -2.319061 -1.094325 0
M  V30 25 C -3.457572 -3.554209 -1.751284 0
M  V30 26 C -2.699212 -4.338068 -0.893345 0
M  V30 27 F -2.358493 -4.045370 0.387503 0
M  V30 28 C -2.194071 -5.571338 -1.309277 0
M  V30 29 C -2.466314 -5.999887 -2.603008 0
M  V30 30 C -3.221241 -5.210809 -3.444891 0
M  V30 31 C -3.719892 -3.992487 -3.033057 0
M  V30 32 F -4.468379 -3.129792 -3.756192 0
M  V30 33 N -3.011649 -1.278880 -1.232656 0
M  V30 34 C 1.575771 1.620899 1.471642 0
M  V30 35 C 1.099824 0.815692 2.676007 0 CFG=2
M  V30 36 C 1.435500 1.485167 3.985105 0
M  V30 37 H 2.629494 -2.580949 6.518667 0
M  V30 38 H 3.963241 -3.029595 5.326669 0
M  V30 39 H 3.806614 -1.362600 6.001052 0
M  V30 40 H 3.503115 -0.327514 3.679788 0
M  V30 41 H 0.785489 -1.282702 2.728397 0
M  V30 42 H 2.327767 -2.017382 1.204692 0
M  V30 43 H 4.245735 -1.243242 1.885161 0
M  V30 44 H 4.094075 -0.747681 0.310443 0
M  V30 45 H 2.343319 -0.362276 -0.793916 0
M  V30 46 H 0.855016 -1.131871 -0.257037 0
M  V30 47 H -0.121094 0.737374 0.550341 0
M  V30 48 H 2.806697 2.826182 -0.420212 0
M  V30 49 H 2.666446 4.218841 -2.402586 0
M  V30 50 H -0.980657 2.504722 -3.612488 0
M  V30 51 H -0.861485 -0.042658 -2.045536 0
M  V30 52 H -4.619231 1.048974 0.482082 0
M  V30 53 H -6.253440 -0.806779 0.788075 0
M  V30 54 H -1.597654 -6.234695 -0.699660 0
M  V30 55 H -2.083620 -6.951509 -2.942118 0
M  V30 56 H -3.462410 -5.494985 -4.458393 0
M  V30 57 H 2.682405 1.632100 1.395160 0
M  V30 58 H 1.268110 2.667485 1.618011 0
M  V30 59 H -0.018249 0.819265 2.589955 0
M  V30 60 H 0.542403 1.921543 4.478662 0
M  V30 61 H 1.843733 0.749996 4.714670 0
M  V30 62 H 2.140922 2.330160 3.840623 0
M  V30 END ATOM
M  V30 BEGIN BOND
M  V30 1 1 1 2
M  V30 2 2 2 3
M  V30 3 1 2 4
M  V30 4 1 4 5
M  V30 5 1 5 6
M  V30 6 1 6 7
M  V30 7 1 6 8
M  V30 8 1 8 9
M  V30 9 1 9 10
M  V30 10 2 10 11
M  V30 11 1 11 12
M  V30 12 2 12 13
M  V30 13 1 13 14
M  V30 14 2 14 15
M  V30 15 1 15 16
M  V30 16 1 16 17
M  V30 17 2 17 18
M  V30 18 1 17 19
M  V30 19 2 19 20
M  V30 20 1 20 21
M  V30 21 2 21 22
M  V30 22 1 22 23
M  V30 23 1 22 24
M  V30 24 1 24 25
M  V30 25 2 25 26
M  V30 26 1 26 27
M  V30 27 1 26 28
M  V30 28 2 28 29
M  V30 29 1 29 30
M  V30 30 2 30 31
M  V30 31 1 31 32
M  V30 32 2 24 33
M  V30 33 1 9 34
M  V30 34 1 34 35
M  V30 35 1 35 36
M  V30 36 1 35 5
M  V30 37 1 15 10
M  V30 38 1 33 19
M  V30 39 1 31 25
M  V30 40 1 1 37
M  V30 41 1 1 38
M  V30 42 1 1 39
M  V30 43 1 4 40
M  V30 44 1 5 41 CFG=1
M  V30 45 1 6 42 CFG=3
M  V30 46 1 7 43
M  V30 47 1 7 44
M  V30 48 1 8 45
M  V30 49 1 8 46
M  V30 50 1 9 47 CFG=1
M  V30 51 1 11 48
M  V30 52 1 12 49
M  V30 53 1 14 50
M  V30 54 1 16 51
M  V30 55 1 20 52
M  V30 56 1 21 53
M  V30 57 1 28 54
M  V30 58 1 29 55
M  V30 59 1 30 56
M  V30 60 1 34 57
M  V30 61 1 34 58
M  V30 62 1 35 59 CFG=3
M  V30 63 1 36 60
M  V30 64 1 36 61
M  V30 65 1 36 62
M  V30 END BOND
M  V30 END CTAB
M  END
>  <Dataset>  (226) 
ChEMBL_Kinases

>  <Ligand_Instance>  (226) 
nan

>  <PDB_ID>  (226) 
nan

>  <Standardized_SMILES>  (226) 
CC(=O)N[C@@H]1[C@H](N)C[C@H](c2ccncc2NC(=O)c2ccc(F)c(-c3c(F)cccc3F)n2)C[C@@H]1C

>  <Name>  (226) 
nan

>  <Pocket>  (226) 
nan

>  <ATP_Site>  (226) 
nan

>  <Peripheral>  (226) 
nan

>  <Num_H_Atoms_ProtBoundConf>  (226) 
nan

>  <Num_Resolved_Atoms>  (226) 
nan

>  <Num_Not_Resolved_Atoms>  (226) 
nan

$$$$
CHEMBL3687435
     RDKit          3D

  0  0  0  0  0  0  0  0  0  0999 V3000
M  V30 BEGIN CTAB
M  V30 COUNTS 62 65 0 0 0
M  V30 BEGIN ATOM
M  V30 1 C 4.926062 -4.073138 2.138859 0
M  V30 2 C 3.619943 -3.391620 1.927182 0
M  V30 3 O 2.574236 -4.070050 1.852445 0
M  V30 4 N 3.624999 -1.970051 1.817559 0
M  V30 5 C 2.460521 -1.130932 1.610301 0 CFG=2
M  V30 6 C 2.644096 -0.475980 0.263092 0 CFG=2
M  V30 7 C 4.043837 0.035532 0.051591 0
M  V30 8 C 1.613643 0.581048 -0.013829 0
M  V30 9 C 0.831329 0.978744 1.188621 0 CFG=2
M  V30 10 C 0.067276 2.218988 1.074319 0
M  V30 11 C 0.703722 3.427093 1.382378 0
M  V30 12 C 0.060975 4.648744 1.307201 0
M  V30 13 N -1.226961 4.712612 0.926248 0
M  V30 14 C -1.896099 3.586773 0.616258 0
M  V30 15 C -1.250265 2.370804 0.692760 0
M  V30 16 N -1.962501 1.171277 0.371112 0
M  V30 17 C -1.863562 0.919488 -1.028019 0
M  V30 18 O -1.180001 1.806731 -1.645046 0
M  V30 19 C -2.468308 -0.220924 -1.705103 0
M  V30 20 C -2.273689 -0.307596 -3.067742 0
M  V30 21 C -2.808690 -1.352418 -3.795418 0
M  V30 22 C -3.544281 -2.314826 -3.141702 0
M  V30 23 F -4.128892 -3.395998 -3.720782 0
M  V30 24 C -3.732052 -2.215863 -1.773419 0
M  V30 25 C -4.474522 -3.127164 -0.906493 0
M  V30 26 C -5.831163 -2.834761 -0.739961 0
M  V30 27 F -6.427650 -1.780231 -1.336458 0
M  V30 28 C -6.612753 -3.643944 0.063711 0
M  V30 29 C -6.026355 -4.732372 0.688415 0
M  V30 30 C -4.690348 -5.050849 0.546625 0
M  V30 31 C -3.956508 -4.230037 -0.252317 0
M  V30 32 F -2.628241 -4.459947 -0.456164 0
M  V30 33 N -3.190908 -1.174583 -1.092164 0
M  V30 34 C 1.809809 1.172117 2.351878 0
M  V30 35 C 2.303880 -0.181152 2.746271 0 CFG=2
M  V30 36 N 3.589985 0.008438 3.434548 0
M  V30 37 H 4.936017 -5.088711 1.691220 0
M  V30 38 H 5.104060 -4.105877 3.230969 0
M  V30 39 H 5.725647 -3.454728 1.652796 0
M  V30 40 H 4.505701 -1.388336 1.880923 0
M  V30 41 H 1.512613 -1.720967 1.546581 0
M  V30 42 H 2.497590 -1.286756 -0.482513 0
M  V30 43 H 4.760244 -0.795499 -0.187306 0
M  V30 44 H 4.416768 0.455237 1.005665 0
M  V30 45 H 4.091397 0.851650 -0.691402 0
M  V30 46 H 2.159519 1.494537 -0.383590 0
M  V30 47 H 0.952018 0.293160 -0.850524 0
M  V30 48 H 0.206312 0.109980 1.477138 0
M  V30 49 H 1.730284 3.523986 1.700414 0
M  V30 50 H 0.530475 5.593993 1.539280 0
M  V30 51 H -2.922330 3.635640 0.312430 0
M  V30 52 H -2.511634 0.484398 0.937229 0
M  V30 53 H -1.691809 0.449079 -3.597259 0
M  V30 54 H -2.687036 -1.470561 -4.869586 0
M  V30 55 H -7.662224 -3.439419 0.208709 0
M  V30 56 H -6.686567 -5.336205 1.308942 0
M  V30 57 H -4.250438 -5.905920 1.043069 0
M  V30 58 H 2.691105 1.763958 2.035060 0
M  V30 59 H 1.230784 1.646185 3.165830 0
M  V30 60 H 1.607655 -0.570542 3.538612 0
M  V30 61 H 3.533404 0.809863 4.095622 0
M  V30 62 H 3.718701 -0.874337 3.998642 0
M  V30 END ATOM
M  V30 BEGIN BOND
M  V30 1 1 1 2
M  V30 2 2 2 3
M  V30 3 1 2 4
M  V30 4 1 4 5
M  V30 5 1 5 6
M  V30 6 1 6 7
M  V30 7 1 6 8
M  V30 8 1 8 9
M  V30 9 1 9 10
M  V30 10 2 10 11
M  V30 11 1 11 12
M  V30 12 2 12 13
M  V30 13 1 13 14
M  V30 14 2 14 15
M  V30 15 1 15 16
M  V30 16 1 16 17
M  V30 17 2 17 18
M  V30 18 1 17 19
M  V30 19 2 19 20
M  V30 20 1 20 21
M  V30 21 2 21 22
M  V30 22 1 22 23
M  V30 23 1 22 24
M  V30 24 1 24 25
M  V30 25 2 25 26
M  V30 26 1 26 27
M  V30 27 1 26 28
M  V30 28 2 28 29
M  V30 29 1 29 30
M  V30 30 2 30 31
M  V30 31 1 31 32
M  V30 32 2 24 33
M  V30 33 1 9 34
M  V30 34 1 34 35
M  V30 35 1 35 36
M  V30 36 1 35 5
M  V30 37 1 15 10
M  V30 38 1 33 19
M  V30 39 1 31 25
M  V30 40 1 1 37
M  V30 41 1 1 38
M  V30 42 1 1 39
M  V30 43 1 4 40
M  V30 44 1 5 41 CFG=3
M  V30 45 1 6 42 CFG=3
M  V30 46 1 7 43
M  V30 47 1 7 44
M  V30 48 1 7 45
M  V30 49 1 8 46
M  V30 50 1 8 47
M  V30 51 1 9 48 CFG=1
M  V30 52 1 11 49
M  V30 53 1 12 50
M  V30 54 1 14 51
M  V30 55 1 16 52
M  V30 56 1 20 53
M  V30 57 1 21 54
M  V30 58 1 28 55
M  V30 59 1 29 56
M  V30 60 1 30 57
M  V30 61 1 34 58
M  V30 62 1 34 59
M  V30 63 1 35 60 CFG=1
M  V30 64 1 36 61
M  V30 65 1 36 62
M  V30 END BOND
M  V30 END CTAB
M  END
>  <Dataset>  (227) 
ChEMBL_Kinases

>  <Ligand_Instance>  (227) 
nan

>  <PDB_ID>  (227) 
nan

>  <Standardized_SMILES>  (227) 
CC(=O)N[C@@H]1[C@H](C)C[C@H](c2ccncc2NC(=O)c2ccc(F)c(-c3c(F)cccc3F)n2)C[C@@H]1N

>  <Name>  (227) 
nan

>  <Pocket>  (227) 
nan

>  <ATP_Site>  (227) 
nan

>  <Peripheral>  (227) 
nan

>  <Num_H_Atoms_ProtBoundConf>  (227) 
nan

>  <Num_Resolved_Atoms>  (227) 
nan

>  <Num_Not_Resolved_Atoms>  (227) 
nan

$$$$
CHEMBL3687434
     RDKit          3D

  0  0  0  0  0  0  0  0  0  0999 V3000
M  V30 BEGIN CTAB
M  V30 COUNTS 63 66 0 0 0
M  V30 BEGIN ATOM
M  V30 1 C 2.706734 -3.712259 5.778292 0
M  V30 2 O 2.044037 -3.037742 4.751340 0
M  V30 3 C 2.681513 -2.225590 3.856417 0
M  V30 4 O 3.911013 -2.016307 3.879523 0
M  V30 5 N 1.848455 -1.603411 2.856357 0
M  V30 6 C 2.217349 -0.709317 1.791012 0 CFG=2
M  V30 7 C 1.724678 0.684159 1.982126 0 CFG=2
M  V30 8 C 0.357378 0.831244 2.565390 0
M  V30 9 C 1.848947 1.559220 0.786805 0
M  V30 10 C 1.841464 0.878808 -0.548070 0 CFG=2
M  V30 11 C 1.433899 1.738315 -1.641632 0
M  V30 12 C 2.363716 2.540765 -2.318628 0
M  V30 13 C 2.136240 3.396314 -3.368328 0
M  V30 14 N 0.859782 3.496124 -3.828153 0
M  V30 15 C -0.121149 2.762236 -3.244416 0
M  V30 16 C 0.158253 1.916753 -2.191209 0
M  V30 17 N -0.888538 1.152034 -1.603021 0
M  V30 18 C -1.700455 1.666658 -0.549881 0
M  V30 19 O -1.589491 2.828382 -0.041374 0
M  V30 20 C -2.739436 0.752757 -0.032339 0
M  V30 21 C -3.582476 1.128639 0.984959 0
M  V30 22 C -4.562224 0.304809 1.505566 0
M  V30 23 C -4.697516 -0.965038 0.969810 0
M  V30 24 F -5.581894 -1.914707 1.331804 0
M  V30 25 C -3.855453 -1.341768 -0.047925 0
M  V30 26 C -3.796850 -2.610842 -0.771143 0
M  V30 27 C -2.902498 -3.478566 -0.151899 0
M  V30 28 F -2.165632 -3.219479 0.971036 0
M  V30 29 C -2.662338 -4.754026 -0.643618 0
M  V30 30 C -3.357186 -5.131668 -1.788754 0
M  V30 31 C -4.245761 -4.278540 -2.409665 0
M  V30 32 C -4.468528 -3.016165 -1.903360 0
M  V30 33 F -5.299024 -2.067307 -2.386731 0
M  V30 34 N -2.921507 -0.495147 -0.511638 0
M  V30 35 C 1.184032 -0.474472 -0.465696 0
M  V30 36 C 2.150034 -1.270283 0.420404 0 CFG=2
M  V30 37 N 1.878111 -2.686339 0.360675 0
M  V30 38 H 2.042929 -4.439538 6.289760 0
M  V30 39 H 3.595172 -4.213559 5.301712 0
M  V30 40 H 3.113987 -2.964157 6.490405 0
M  V30 41 H 0.816833 -1.790139 2.847534 0
M  V30 42 H 3.341926 -0.628418 1.957723 0
M  V30 43 H 2.400282 1.177554 2.758992 0
M  V30 44 H -0.264665 1.517786 1.954302 0
M  V30 45 H 0.363986 1.340007 3.570025 0
M  V30 46 H -0.228903 -0.060876 2.720065 0
M  V30 47 H 0.966920 2.261672 0.783664 0
M  V30 48 H 2.720362 2.279292 0.876436 0
M  V30 49 H 2.936392 0.649752 -0.748358 0
M  V30 50 H 3.401717 2.471875 -1.958129 0
M  V30 51 H 2.961010 3.952967 -3.789678 0
M  V30 52 H -1.128210 2.842447 -3.610169 0
M  V30 53 H -1.051079 0.186821 -1.972871 0
M  V30 54 H -3.476999 2.113728 1.398010 0
M  V30 55 H -5.241232 0.552764 2.297755 0
M  V30 56 H -1.986170 -5.468043 -0.212114 0
M  V30 57 H -3.199222 -6.120895 -2.205779 0
M  V30 58 H -4.809898 -4.518705 -3.296619 0
M  V30 59 H 1.273010 -0.940958 -1.467771 0
M  V30 60 H 0.174069 -0.470060 -0.040323 0
M  V30 61 H 3.096820 -1.195788 -0.177826 0
M  V30 62 H 2.745638 -3.217626 0.522598 0
M  V30 63 H 1.572179 -2.878715 -0.613087 0
M  V30 END ATOM
M  V30 BEGIN BOND
M  V30 1 1 1 2
M  V30 2 1 2 3
M  V30 3 2 3 4
M  V30 4 1 3 5
M  V30 5 1 5 6
M  V30 6 1 6 7
M  V30 7 1 7 8
M  V30 8 1 7 9
M  V30 9 1 9 10
M  V30 10 1 10 11
M  V30 11 2 11 12
M  V30 12 1 12 13
M  V30 13 2 13 14
M  V30 14 1 14 15
M  V30 15 2 15 16
M  V30 16 1 16 17
M  V30 17 1 17 18
M  V30 18 2 18 19
M  V30 19 1 18 20
M  V30 20 2 20 21
M  V30 21 1 21 22
M  V30 22 2 22 23
M  V30 23 1 23 24
M  V30 24 1 23 25
M  V30 25 1 25 26
M  V30 26 2 26 27
M  V30 27 1 27 28
M  V30 28 1 27 29
M  V30 29 2 29 30
M  V30 30 1 30 31
M  V30 31 2 31 32
M  V30 32 1 32 33
M  V30 33 2 25 34
M  V30 34 1 10 35
M  V30 35 1 35 36
M  V30 36 1 36 37
M  V30 37 1 36 6
M  V30 38 1 16 11
M  V30 39 1 34 20
M  V30 40 1 32 26
M  V30 41 1 1 38
M  V30 42 1 1 39
M  V30 43 1 1 40
M  V30 44 1 5 41
M  V30 45 1 6 42 CFG=1
M  V30 46 1 7 43 CFG=1
M  V30 47 1 8 44
M  V30 48 1 8 45
M  V30 49 1 8 46
M  V30 50 1 9 47
M  V30 51 1 9 48
M  V30 52 1 10 49 CFG=3
M  V30 53 1 12 50
M  V30 54 1 13 51
M  V30 55 1 15 52
M  V30 56 1 17 53
M  V30 57 1 21 54
M  V30 58 1 22 55
M  V30 59 1 29 56
M  V30 60 1 30 57
M  V30 61 1 31 58
M  V30 62 1 35 59
M  V30 63 1 35 60
M  V30 64 1 36 61 CFG=3
M  V30 65 1 37 62
M  V30 66 1 37 63
M  V30 END BOND
M  V30 END CTAB
M  END
>  <Dataset>  (228) 
ChEMBL_Kinases

>  <Ligand_Instance>  (228) 
nan

>  <PDB_ID>  (228) 
nan

>  <Standardized_SMILES>  (228) 
COC(=O)N[C@@H]1[C@H](C)C[C@H](c2ccncc2NC(=O)c2ccc(F)c(-c3c(F)cccc3F)n2)C[C@@H]1N

>  <Name>  (228) 
nan

>  <Pocket>  (228) 
nan

>  <ATP_Site>  (228) 
nan

>  <Peripheral>  (228) 
nan

>  <Num_H_Atoms_ProtBoundConf>  (228) 
nan

>  <Num_Resolved_Atoms>  (228) 
nan

>  <Num_Not_Resolved_Atoms>  (228) 
nan

$$$$
CHEMBL265903
     RDKit          3D

  0  0  0  0  0  0  0  0  0  0999 V3000
M  V30 BEGIN CTAB
M  V30 COUNTS 47 49 0 0 0
M  V30 BEGIN ATOM
M  V30 1 C 1.904382 -6.387514 -0.651545 0
M  V30 2 S 3.050328 -5.473257 0.328419 0
M  V30 3 O 4.417185 -6.061647 0.231760 0
M  V30 4 O 2.624113 -5.679550 1.776291 0
M  V30 5 N 3.012444 -3.799116 0.043242 0
M  V30 6 C 3.347719 -3.461968 -1.290421 0
M  V30 7 C 3.206887 -1.993791 -1.618553 0
M  V30 8 C 1.862209 -1.450455 -1.180748 0
M  V30 9 N 2.016652 -0.432700 -0.159343 0
M  V30 10 C 0.932509 0.257735 0.390221 0
M  V30 11 N 1.105125 1.195752 1.343386 0
M  V30 12 C 0.029266 1.831971 1.833707 0
M  V30 13 C -1.263013 1.600715 1.433373 0
M  V30 14 C -2.455339 2.223205 1.946296 0
M  V30 15 O -3.497408 1.611372 1.565940 0
M  V30 16 C -2.778245 3.350787 2.774726 0
M  V30 17 C -3.987850 3.281124 3.459105 0
M  V30 18 F -4.846777 2.225033 3.410759 0
M  V30 19 C -4.447846 4.314768 4.283212 0
M  V30 20 C -3.671420 5.436087 4.416004 0
M  V30 21 C -2.478896 5.570253 3.774679 0
M  V30 22 C -2.084993 4.519873 2.980383 0
M  V30 23 F -0.918285 4.720018 2.330232 0
M  V30 24 C -1.408291 0.638577 0.460930 0
M  V30 25 N -2.643533 0.208244 -0.128371 0
M  V30 26 N -0.307871 -0.005438 -0.033206 0
M  V30 27 C 1.035964 -2.608029 -0.596346 0
M  V30 28 C 1.855527 -3.137022 0.530259 0
M  V30 29 H 1.548268 -7.315376 -0.131228 0
M  V30 30 H 1.003389 -5.828456 -0.921094 0
M  V30 31 H 2.383679 -6.745194 -1.584148 0
M  V30 32 H 2.757085 -4.088335 -2.001794 0
M  V30 33 H 4.409694 -3.725219 -1.477648 0
M  V30 34 H 3.235773 -1.917481 -2.725683 0
M  V30 35 H 4.061599 -1.419297 -1.228860 0
M  V30 36 H 1.298582 -1.017326 -2.017739 0
M  V30 37 H 2.988053 -0.216677 0.170630 0
M  V30 38 H 0.278730 2.530088 2.597355 0
M  V30 39 H -5.379094 4.273650 4.817278 0
M  V30 40 H -4.024180 6.236371 5.053514 0
M  V30 41 H -1.884369 6.461621 3.893612 0
M  V30 42 H -2.905105 -0.712527 0.282525 0
M  V30 43 H -3.234973 0.675940 -0.845353 0
M  V30 44 H 0.010773 -2.322015 -0.353869 0
M  V30 45 H 0.938567 -3.353561 -1.439388 0
M  V30 46 H 1.278300 -3.720725 1.270182 0
M  V30 47 H 2.214773 -2.234776 1.108914 0
M  V30 END ATOM
M  V30 BEGIN BOND
M  V30 1 1 1 2
M  V30 2 2 2 3
M  V30 3 2 2 4
M  V30 4 1 2 5
M  V30 5 1 5 6
M  V30 6 1 6 7
M  V30 7 1 7 8
M  V30 8 1 8 9
M  V30 9 1 9 10
M  V30 10 2 10 11
M  V30 11 1 11 12
M  V30 12 2 12 13
M  V30 13 1 13 14
M  V30 14 2 14 15
M  V30 15 1 14 16
M  V30 16 2 16 17
M  V30 17 1 17 18
M  V30 18 1 17 19
M  V30 19 2 19 20
M  V30 20 1 20 21
M  V30 21 2 21 22
M  V30 22 1 22 23
M  V30 23 1 13 24
M  V30 24 1 24 25
M  V30 25 2 24 26
M  V30 26 1 8 27
M  V30 27 1 27 28
M  V30 28 1 28 5
M  V30 29 1 26 10
M  V30 30 1 22 16
M  V30 31 1 1 29
M  V30 32 1 1 30
M  V30 33 1 1 31
M  V30 34 1 6 32
M  V30 35 1 6 33
M  V30 36 1 7 34
M  V30 37 1 7 35
M  V30 38 1 8 36
M  V30 39 1 9 37
M  V30 40 1 12 38
M  V30 41 1 19 39
M  V30 42 1 20 40
M  V30 43 1 21 41
M  V30 44 1 25 42
M  V30 45 1 25 43
M  V30 46 1 27 44
M  V30 47 1 27 45
M  V30 48 1 28 46
M  V30 49 1 28 47
M  V30 END BOND
M  V30 END CTAB
M  END
>  <Dataset>  (229) 
ChEMBL_Kinases

>  <Ligand_Instance>  (229) 
nan

>  <PDB_ID>  (229) 
nan

>  <Standardized_SMILES>  (229) 
CS(=O)(=O)N1CCC(Nc2ncc(C(=O)c3c(F)cccc3F)c(N)n2)CC1

>  <Name>  (229) 
nan

>  <Pocket>  (229) 
nan

>  <ATP_Site>  (229) 
nan

>  <Peripheral>  (229) 
nan

>  <Num_H_Atoms_ProtBoundConf>  (229) 
nan

>  <Num_Resolved_Atoms>  (229) 
nan

>  <Num_Not_Resolved_Atoms>  (229) 
nan

$$$$
CHEMBL3687433
     RDKit          3D

  0  0  0  0  0  0  0  0  0  0999 V3000
M  V30 BEGIN CTAB
M  V30 COUNTS 61 64 0 0 0
M  V30 BEGIN ATOM
M  V30 1 C 3.086672 -1.593602 6.207150 0
M  V30 2 C 3.551171 -1.108930 4.857173 0
M  V30 3 O 4.713197 -1.115876 4.423789 0
M  V30 4 N 2.477151 -0.596854 4.036622 0
M  V30 5 C 2.669181 -0.071913 2.687621 0 CFG=2
M  V30 6 C 2.408807 1.412606 2.625716 0 CFG=2
M  V30 7 N 2.687545 1.982563 3.923884 0
M  V30 8 C 1.016804 1.739254 2.158067 0
M  V30 9 N 0.903935 1.240584 0.819674 0
M  V30 10 C 0.676596 2.144946 -0.250610 0
M  V30 11 C 0.999741 3.480725 -0.169538 0
M  V30 12 C 0.827099 4.383899 -1.195728 0
M  V30 13 N 0.305748 3.955551 -2.377051 0
M  V30 14 C -0.040748 2.662955 -2.547362 0
M  V30 15 C 0.164272 1.827781 -1.470896 0
M  V30 16 N -0.273350 0.488075 -1.772078 0
M  V30 17 C -1.645489 0.520881 -1.341813 0
M  V30 18 O -2.003752 1.654274 -0.866282 0
M  V30 19 C -2.585364 -0.618466 -1.421817 0
M  V30 20 C -3.851711 -0.386631 -0.969432 0
M  V30 21 C -4.839252 -1.345047 -0.979300 0
M  V30 22 C -4.498525 -2.599231 -1.480468 0
M  V30 23 F -5.442376 -3.569931 -1.507076 0
M  V30 24 C -3.219180 -2.793517 -1.924745 0
M  V30 25 C -2.934140 -4.116242 -2.430159 0
M  V30 26 C -3.121903 -4.388656 -3.763227 0
M  V30 27 F -3.569241 -3.398878 -4.571950 0
M  V30 28 C -2.852014 -5.658067 -4.249302 0
M  V30 29 C -2.401155 -6.603269 -3.362487 0
M  V30 30 C -2.214957 -6.318439 -2.019626 0
M  V30 31 C -2.479808 -5.060773 -1.525002 0
M  V30 32 F -2.286732 -4.810929 -0.200835 0
M  V30 33 N -2.276982 -1.825846 -1.898451 0
M  V30 34 C 1.067695 -0.176969 0.698575 0
M  V30 35 C 1.999249 -0.851586 1.628519 0 CFG=2
M  V30 36 C 1.246624 -2.008609 2.308196 0
M  V30 37 H 2.708664 -2.654902 6.127603 0
M  V30 38 H 2.246472 -0.986966 6.567340 0
M  V30 39 H 3.923253 -1.626219 6.938807 0
M  V30 40 H 1.454251 -0.535832 4.292230 0
M  V30 41 H 3.766043 -0.159093 2.526370 0
M  V30 42 H 3.101975 1.888696 1.901520 0
M  V30 43 H 3.724586 2.049822 4.075431 0
M  V30 44 H 2.317750 2.943037 4.051183 0
M  V30 45 H 0.900161 2.830920 2.229581 0
M  V30 46 H 0.234080 1.339022 2.838702 0
M  V30 47 H 1.424955 3.960514 0.697162 0
M  V30 48 H 1.070442 5.434276 -1.162592 0
M  V30 49 H -0.442212 2.391243 -3.492351 0
M  V30 50 H -0.055343 -0.479453 -2.159420 0
M  V30 51 H -4.164004 0.565776 -0.573191 0
M  V30 52 H -5.841798 -1.172992 -0.626029 0
M  V30 53 H -3.028420 -5.779792 -5.301882 0
M  V30 54 H -2.209408 -7.577742 -3.811416 0
M  V30 55 H -1.856018 -7.111969 -1.366541 0
M  V30 56 H 1.434154 -0.326350 -0.368897 0
M  V30 57 H 0.050628 -0.669321 0.658091 0
M  V30 58 H 2.769846 -1.394733 0.994044 0
M  V30 59 H 0.147036 -1.822102 2.335410 0
M  V30 60 H 1.344111 -2.960175 1.703410 0
M  V30 61 H 1.686174 -2.282112 3.281116 0
M  V30 END ATOM
M  V30 BEGIN BOND
M  V30 1 1 1 2
M  V30 2 2 2 3
M  V30 3 1 2 4
M  V30 4 1 4 5
M  V30 5 1 5 6
M  V30 6 1 6 7
M  V30 7 1 6 8
M  V30 8 1 8 9
M  V30 9 1 9 10
M  V30 10 2 10 11
M  V30 11 1 11 12
M  V30 12 2 12 13
M  V30 13 1 13 14
M  V30 14 2 14 15
M  V30 15 1 15 16
M  V30 16 1 16 17
M  V30 17 2 17 18
M  V30 18 1 17 19
M  V30 19 2 19 20
M  V30 20 1 20 21
M  V30 21 2 21 22
M  V30 22 1 22 23
M  V30 23 1 22 24
M  V30 24 1 24 25
M  V30 25 2 25 26
M  V30 26 1 26 27
M  V30 27 1 26 28
M  V30 28 2 28 29
M  V30 29 1 29 30
M  V30 30 2 30 31
M  V30 31 1 31 32
M  V30 32 2 24 33
M  V30 33 1 9 34
M  V30 34 1 34 35
M  V30 35 1 35 36
M  V30 36 1 35 5
M  V30 37 1 15 10
M  V30 38 1 33 19
M  V30 39 1 31 25
M  V30 40 1 1 37
M  V30 41 1 1 38
M  V30 42 1 1 39
M  V30 43 1 4 40
M  V30 44 1 5 41 CFG=3
M  V30 45 1 6 42 CFG=3
M  V30 46 1 7 43
M  V30 47 1 7 44
M  V30 48 1 8 45
M  V30 49 1 8 46
M  V30 50 1 11 47
M  V30 51 1 12 48
M  V30 52 1 14 49
M  V30 53 1 16 50
M  V30 54 1 20 51
M  V30 55 1 21 52
M  V30 56 1 28 53
M  V30 57 1 29 54
M  V30 58 1 30 55
M  V30 59 1 34 56
M  V30 60 1 34 57
M  V30 61 1 35 58 CFG=3
M  V30 62 1 36 59
M  V30 63 1 36 60
M  V30 64 1 36 61
M  V30 END BOND
M  V30 END CTAB
M  END
>  <Dataset>  (230) 
ChEMBL_Kinases

>  <Ligand_Instance>  (230) 
nan

>  <PDB_ID>  (230) 
nan

>  <Standardized_SMILES>  (230) 
CC(=O)N[C@@H]1[C@H](N)CN(c2ccncc2NC(=O)c2ccc(F)c(-c3c(F)cccc3F)n2)C[C@@H]1C

>  <Name>  (230) 
nan

>  <Pocket>  (230) 
nan

>  <ATP_Site>  (230) 
nan

>  <Peripheral>  (230) 
nan

>  <Num_H_Atoms_ProtBoundConf>  (230) 
nan

>  <Num_Resolved_Atoms>  (230) 
nan

>  <Num_Not_Resolved_Atoms>  (230) 
nan

$$$$
CHEMBL437107
     RDKit          3D

  0  0  0  0  0  0  0  0  0  0999 V3000
M  V30 BEGIN CTAB
M  V30 COUNTS 53 56 0 0 0
M  V30 BEGIN ATOM
M  V30 1 C 3.261163 -2.427488 1.883564 0
M  V30 2 C 1.754978 -2.577471 1.972522 0
M  V30 3 C 1.021563 -1.355386 1.746923 0
M  V30 4 O 2.234127 -1.046190 1.627547 0
M  V30 5 C 0.042795 -0.311435 1.570114 0
M  V30 6 C 0.514881 0.947105 1.280930 0
M  V30 7 C 1.931851 1.246983 1.125615 0
M  V30 8 C 2.431876 1.120476 -0.154491 0
M  V30 9 C 3.768625 1.386154 -0.392771 0
M  V30 10 C 4.550610 1.770461 0.674663 0
M  V30 11 C 4.081904 1.905451 1.961136 0
M  V30 12 C 2.731234 1.628306 2.156020 0
M  V30 13 C -0.423234 1.945599 1.138360 0
M  V30 14 C -0.019728 3.227957 0.849020 0
M  V30 15 C -0.972604 4.215226 0.709956 0
M  V30 16 Cl -0.409095 5.831963 0.341530 0
M  V30 17 C -2.305572 3.893157 0.864205 0
M  V30 18 C -2.659927 2.589027 1.154748 0
M  V30 19 C -1.739201 1.572596 1.301901 0
M  V30 20 C -2.180570 0.306076 1.590342 0
M  V30 21 O -3.438766 0.119408 1.711946 0
M  V30 22 N -1.228613 -0.660397 1.725022 0
M  V30 23 C -1.781108 -1.961818 2.035345 0
M  V30 24 C -2.125067 -2.662503 0.774583 0
M  V30 25 C -1.525369 -3.561488 -0.063040 0
M  V30 26 C -2.311733 -3.883096 -1.128560 0
M  V30 27 C -2.027219 -4.789176 -2.217868 0
M  V30 28 N -0.778172 -5.473119 -2.248674 0
M  V30 29 O -2.788208 -5.042207 -3.165160 0
M  V30 30 N -3.420805 -3.156529 -0.929085 0
M  V30 31 C -4.609556 -3.106869 -1.766708 0
M  V30 32 N -3.322216 -2.443427 0.174826 0
M  V30 33 H 3.646415 -1.757533 2.678116 0
M  V30 34 H 3.646352 -3.470651 2.099516 0
M  V30 35 H 3.634455 -2.107703 0.912722 0
M  V30 36 H 1.475327 -3.350440 1.227126 0
M  V30 37 H 1.573848 -3.051377 2.962813 0
M  V30 38 H 1.898422 0.823878 -1.064268 0
M  V30 39 H 4.287644 1.323180 -1.361148 0
M  V30 40 H 5.604562 1.992991 0.555672 0
M  V30 41 H 4.718787 2.211075 2.791538 0
M  V30 42 H 2.296155 1.713636 3.139413 0
M  V30 43 H 1.035311 3.416131 0.740575 0
M  V30 44 H -3.046260 4.681998 0.751733 0
M  V30 45 H -3.723689 2.393132 1.265339 0
M  V30 46 H -2.705944 -1.888327 2.640117 0
M  V30 47 H -1.086863 -2.564498 2.664670 0
M  V30 48 H -0.539222 -3.937802 0.152690 0
M  V30 49 H -0.725295 -6.527565 -2.346076 0
M  V30 50 H 0.073311 -4.886438 -2.171000 0
M  V30 51 H -5.055884 -2.074838 -1.726077 0
M  V30 52 H -4.357302 -3.345989 -2.813336 0
M  V30 53 H -5.322910 -3.854188 -1.336993 0
M  V30 END ATOM
M  V30 BEGIN BOND
M  V30 1 1 1 2
M  V30 2 1 2 3
M  V30 3 2 3 4
M  V30 4 1 3 5
M  V30 5 2 5 6
M  V30 6 1 6 7
M  V30 7 2 7 8
M  V30 8 1 8 9
M  V30 9 2 9 10
M  V30 10 1 10 11
M  V30 11 2 11 12
M  V30 12 1 6 13
M  V30 13 2 13 14
M  V30 14 1 14 15
M  V30 15 1 15 16
M  V30 16 2 15 17
M  V30 17 1 17 18
M  V30 18 2 18 19
M  V30 19 1 19 20
M  V30 20 2 20 21
M  V30 21 1 20 22
M  V30 22 1 22 23
M  V30 23 1 23 24
M  V30 24 1 24 25
M  V30 25 2 25 26
M  V30 26 1 26 27
M  V30 27 1 27 28
M  V30 28 2 27 29
M  V30 29 1 26 30
M  V30 30 1 30 31
M  V30 31 1 30 32
M  V30 32 1 22 5
M  V30 33 2 32 24
M  V30 34 1 12 7
M  V30 35 1 19 13
M  V30 36 1 1 33
M  V30 37 1 1 34
M  V30 38 1 1 35
M  V30 39 1 2 36
M  V30 40 1 2 37
M  V30 41 1 8 38
M  V30 42 1 9 39
M  V30 43 1 10 40
M  V30 44 1 11 41
M  V30 45 1 12 42
M  V30 46 1 14 43
M  V30 47 1 17 44
M  V30 48 1 18 45
M  V30 49 1 23 46
M  V30 50 1 23 47
M  V30 51 1 25 48
M  V30 52 1 28 49
M  V30 53 1 28 50
M  V30 54 1 31 51
M  V30 55 1 31 52
M  V30 56 1 31 53
M  V30 END BOND
M  V30 END CTAB
M  END
>  <Dataset>  (231) 
ChEMBL_Kinases

>  <Ligand_Instance>  (231) 
nan

>  <PDB_ID>  (231) 
nan

>  <Standardized_SMILES>  (231) 
CCC(=O)c1c(-c2ccccc2)c2cc(Cl)ccc2c(=O)n1Cc1cc(C(N)=O)n(C)n1

>  <Name>  (231) 
nan

>  <Pocket>  (231) 
nan

>  <ATP_Site>  (231) 
nan

>  <Peripheral>  (231) 
nan

>  <Num_H_Atoms_ProtBoundConf>  (231) 
nan

>  <Num_Resolved_Atoms>  (231) 
nan

>  <Num_Not_Resolved_Atoms>  (231) 
nan

$$$$
CHEMBL3687416
     RDKit          3D

  0  0  0  0  0  0  0  0  0  0999 V3000
M  V30 BEGIN CTAB
M  V30 COUNTS 68 71 0 0 0
M  V30 BEGIN ATOM
M  V30 1 C 5.755220 -1.681594 3.036595 0
M  V30 2 C 4.543836 -1.183102 3.784451 0
M  V30 3 C 4.235986 -2.223602 4.872525 0
M  V30 4 C 3.342917 -1.139168 2.906726 0
M  V30 5 O 2.234768 -1.722827 3.030110 0
M  V30 6 N 3.383758 -0.328842 1.722668 0
M  V30 7 C 2.297916 -0.185600 0.775878 0 CFG=2
M  V30 8 C 2.687811 -0.845352 -0.536141 0 CFG=2
M  V30 9 N 3.870717 -0.237885 -1.120048 0
M  V30 10 C 1.518337 -0.880636 -1.480401 0
M  V30 11 C 0.580156 0.287439 -1.325737 0 CFG=2
M  V30 12 C -0.073286 0.487073 -2.634270 0
M  V30 13 C 0.449719 1.301849 -3.620977 0
M  V30 14 C -0.203055 1.442155 -4.826131 0
M  V30 15 N -1.348842 0.820916 -5.114060 0
M  V30 16 C -1.876968 0.012545 -4.147999 0
M  V30 17 C -1.276034 -0.183678 -2.898057 0
M  V30 18 N -1.918921 -1.045884 -1.969119 0
M  V30 19 C -1.922996 -2.432646 -1.595992 0
M  V30 20 O -1.210000 -3.306164 -2.139282 0
M  V30 21 C -2.870686 -2.670784 -0.499828 0
M  V30 22 C -2.918364 -3.976460 -0.061748 0
M  V30 23 C -3.764587 -4.372787 0.977442 0
M  V30 24 C -4.582465 -3.442790 1.593835 0
M  V30 25 F -5.399435 -3.793882 2.588535 0
M  V30 26 C -4.486271 -2.170707 1.112244 0
M  V30 27 C -5.319272 -1.121052 1.697328 0
M  V30 28 C -6.538942 -1.083599 1.022266 0
M  V30 29 F -6.948973 -1.860401 -0.005986 0
M  V30 30 C -7.523926 -0.158487 1.388409 0
M  V30 31 C -7.253988 0.715080 2.435596 0
M  V30 32 C -6.046612 0.661381 3.086319 0
M  V30 33 C -5.069130 -0.246126 2.733840 0
M  V30 34 F -3.840333 -0.420116 3.273730 0
M  V30 35 N -3.681190 -1.789255 0.122456 0
M  V30 36 C 1.371271 1.476309 -0.866399 0
M  V30 37 C 1.948855 1.248619 0.490417 0 CFG=2
M  V30 38 C 3.191782 2.114178 0.686890 0
M  V30 39 H 6.491678 -2.180973 3.687468 0
M  V30 40 H 6.285567 -0.755774 2.679288 0
M  V30 41 H 5.477109 -2.297933 2.181565 0
M  V30 42 H 4.717018 -0.197272 4.257380 0
M  V30 43 H 3.587458 -1.774991 5.638325 0
M  V30 44 H 5.159820 -2.691592 5.268599 0
M  V30 45 H 3.654459 -3.025313 4.362510 0
M  V30 46 H 4.257761 0.212910 1.498317 0
M  V30 47 H 1.389229 -0.756738 1.111451 0
M  V30 48 H 2.999396 -1.885501 -0.242826 0
M  V30 49 H 3.753277 -0.054428 -2.134232 0
M  V30 50 H 4.740218 -0.776730 -0.905905 0
M  V30 51 H 1.967983 -0.771906 -2.510326 0
M  V30 52 H 1.020116 -1.856845 -1.499901 0
M  V30 53 H -0.230254 0.091992 -0.600145 0
M  V30 54 H 1.354962 1.830977 -3.473434 0
M  V30 55 H 0.203315 2.080352 -5.602755 0
M  V30 56 H -2.815148 -0.492742 -4.395683 0
M  V30 57 H -2.493990 -0.287688 -1.543542 0
M  V30 58 H -2.300075 -4.749243 -0.506685 0
M  V30 59 H -3.769029 -5.414687 1.291003 0
M  V30 60 H -8.490779 -0.049867 0.933367 0
M  V30 61 H -7.964110 1.460517 2.780486 0
M  V30 62 H -5.771103 1.310961 3.907542 0
M  V30 63 H 0.725813 2.392543 -0.908892 0
M  V30 64 H 2.171120 1.662723 -1.616442 0
M  V30 65 H 1.195594 1.576728 1.245247 0
M  V30 66 H 3.571750 2.105899 1.711975 0
M  V30 67 H 2.953052 3.191108 0.449415 0
M  V30 68 H 4.001796 1.858531 -0.024482 0
M  V30 END ATOM
M  V30 BEGIN BOND
M  V30 1 1 1 2
M  V30 2 1 2 3
M  V30 3 1 2 4
M  V30 4 2 4 5
M  V30 5 1 4 6
M  V30 6 1 6 7
M  V30 7 1 7 8
M  V30 8 1 8 9
M  V30 9 1 8 10
M  V30 10 1 10 11
M  V30 11 1 11 12
M  V30 12 2 12 13
M  V30 13 1 13 14
M  V30 14 2 14 15
M  V30 15 1 15 16
M  V30 16 2 16 17
M  V30 17 1 17 18
M  V30 18 1 18 19
M  V30 19 2 19 20
M  V30 20 1 19 21
M  V30 21 2 21 22
M  V30 22 1 22 23
M  V30 23 2 23 24
M  V30 24 1 24 25
M  V30 25 1 24 26
M  V30 26 1 26 27
M  V30 27 2 27 28
M  V30 28 1 28 29
M  V30 29 1 28 30
M  V30 30 2 30 31
M  V30 31 1 31 32
M  V30 32 2 32 33
M  V30 33 1 33 34
M  V30 34 2 26 35
M  V30 35 1 11 36
M  V30 36 1 36 37
M  V30 37 1 37 38
M  V30 38 1 37 7
M  V30 39 1 17 12
M  V30 40 1 35 21
M  V30 41 1 33 27
M  V30 42 1 1 39
M  V30 43 1 1 40
M  V30 44 1 1 41
M  V30 45 1 2 42
M  V30 46 1 3 43
M  V30 47 1 3 44
M  V30 48 1 3 45
M  V30 49 1 6 46
M  V30 50 1 7 47 CFG=1
M  V30 51 1 8 48 CFG=1
M  V30 52 1 9 49
M  V30 53 1 9 50
M  V30 54 1 10 51
M  V30 55 1 10 52
M  V30 56 1 11 53 CFG=1
M  V30 57 1 13 54
M  V30 58 1 14 55
M  V30 59 1 16 56
M  V30 60 1 18 57
M  V30 61 1 22 58
M  V30 62 1 23 59
M  V30 63 1 30 60
M  V30 64 1 31 61
M  V30 65 1 32 62
M  V30 66 1 36 63
M  V30 67 1 36 64
M  V30 68 1 37 65 CFG=1
M  V30 69 1 38 66
M  V30 70 1 38 67
M  V30 71 1 38 68
M  V30 END BOND
M  V30 END CTAB
M  END
>  <Dataset>  (232) 
ChEMBL_Kinases

>  <Ligand_Instance>  (232) 
nan

>  <PDB_ID>  (232) 
nan

>  <Standardized_SMILES>  (232) 
CC(C)C(=O)N[C@@H]1[C@H](N)C[C@H](c2ccncc2NC(=O)c2ccc(F)c(-c3c(F)cccc3F)n2)C[C@@H]1C

>  <Name>  (232) 
nan

>  <Pocket>  (232) 
nan

>  <ATP_Site>  (232) 
nan

>  <Peripheral>  (232) 
nan

>  <Num_H_Atoms_ProtBoundConf>  (232) 
nan

>  <Num_Resolved_Atoms>  (232) 
nan

>  <Num_Not_Resolved_Atoms>  (232) 
nan

$$$$
CHEMBL3687415
     RDKit          3D

  0  0  0  0  0  0  0  0  0  0999 V3000
M  V30 BEGIN CTAB
M  V30 COUNTS 66 69 0 0 0
M  V30 BEGIN ATOM
M  V30 1 C 5.826904 -0.317824 4.648594 0
M  V30 2 O 5.482860 0.974582 5.008882 0
M  V30 3 C 4.737648 1.535613 3.979603 0
M  V30 4 C 3.497983 0.751135 3.742700 0
M  V30 5 O 2.827434 -0.230946 4.093982 0
M  V30 6 N 2.754019 1.367431 2.666156 0
M  V30 7 C 1.498205 0.900866 2.144139 0 CFG=2
M  V30 8 C 1.739048 0.516072 0.700508 0 CFG=2
M  V30 9 N 2.331938 1.555783 -0.085321 0
M  V30 10 C 0.505276 -0.058882 0.097398 0
M  V30 11 C -0.704819 0.817925 0.118236 0 CFG=2
M  V30 12 C -0.946346 1.461804 -1.209256 0
M  V30 13 C -0.491064 2.778715 -1.357551 0
M  V30 14 C -0.651078 3.532179 -2.523584 0
M  V30 15 N -1.292145 2.918796 -3.557913 0
M  V30 16 C -1.721128 1.655401 -3.397370 0
M  V30 17 C -1.586714 0.878686 -2.275048 0
M  V30 18 N -2.037392 -0.444525 -2.137148 0
M  V30 19 C -2.751510 -1.246240 -3.061780 0
M  V30 20 O -3.063937 -0.779675 -4.186450 0
M  V30 21 C -3.174127 -2.620315 -2.816248 0
M  V30 22 C -3.866096 -3.362090 -3.743209 0
M  V30 23 C -4.237824 -4.665619 -3.443686 0
M  V30 24 C -3.920995 -5.229966 -2.222706 0
M  V30 25 F -4.225731 -6.481095 -1.816214 0
M  V30 26 C -3.221959 -4.458717 -1.305581 0
M  V30 27 C -2.790925 -4.872913 0.043854 0
M  V30 28 C -1.529686 -5.462699 0.135999 0
M  V30 29 F -0.770909 -5.630394 -0.969177 0
M  V30 30 C -1.073704 -5.872348 1.387329 0
M  V30 31 C -1.828796 -5.713306 2.535566 0
M  V30 32 C -3.064969 -5.122695 2.367494 0
M  V30 33 C -3.583709 -4.692421 1.165621 0
M  V30 34 F -4.793645 -4.120589 1.039538 0
M  V30 35 N -2.888340 -3.208871 -1.644832 0
M  V30 36 C -0.739601 1.729074 1.278218 0
M  V30 37 C 0.418573 1.915873 2.152656 0 CFG=2
M  V30 38 C 1.048796 3.316337 2.078952 0
M  V30 39 H 6.431267 -0.353205 3.713544 0
M  V30 40 H 4.968797 -0.990254 4.594194 0
M  V30 41 H 6.530720 -0.700582 5.440870 0
M  V30 42 H 4.489880 2.603867 4.236674 0
M  V30 43 H 5.375723 1.568199 3.092179 0
M  V30 44 H 2.981219 2.234078 2.087854 0
M  V30 45 H 1.138427 -0.014731 2.662899 0
M  V30 46 H 2.484623 -0.325059 0.732093 0
M  V30 47 H 2.099692 1.355631 -1.098036 0
M  V30 48 H 3.384604 1.512738 -0.024434 0
M  V30 49 H 0.805033 -0.380441 -0.920036 0
M  V30 50 H 0.313875 -1.027326 0.636405 0
M  V30 51 H -1.568891 0.117592 0.216325 0
M  V30 52 H 0.023714 3.350086 -0.615566 0
M  V30 53 H -0.304251 4.546569 -2.647286 0
M  V30 54 H -2.207074 1.288184 -4.282120 0
M  V30 55 H -1.874897 -1.018075 -1.287014 0
M  V30 56 H -4.112407 -2.925166 -4.690906 0
M  V30 57 H -4.773994 -5.276758 -4.129879 0
M  V30 58 H -0.096526 -6.330317 1.465006 0
M  V30 59 H -1.462786 -6.035042 3.496022 0
M  V30 60 H -3.666366 -4.993545 3.266605 0
M  V30 61 H -1.039293 2.789569 0.997030 0
M  V30 62 H -1.635315 1.445311 1.920603 0
M  V30 63 H 0.027628 1.906809 3.228092 0
M  V30 64 H 1.660706 3.528680 2.959374 0
M  V30 65 H 1.619014 3.433961 1.164305 0
M  V30 66 H 0.252127 4.100786 2.070093 0
M  V30 END ATOM
M  V30 BEGIN BOND
M  V30 1 1 1 2
M  V30 2 1 2 3
M  V30 3 1 3 4
M  V30 4 2 4 5
M  V30 5 1 4 6
M  V30 6 1 6 7
M  V30 7 1 7 8
M  V30 8 1 8 9
M  V30 9 1 8 10
M  V30 10 1 10 11
M  V30 11 1 11 12
M  V30 12 2 12 13
M  V30 13 1 13 14
M  V30 14 2 14 15
M  V30 15 1 15 16
M  V30 16 2 16 17
M  V30 17 1 17 18
M  V30 18 1 18 19
M  V30 19 2 19 20
M  V30 20 1 19 21
M  V30 21 2 21 22
M  V30 22 1 22 23
M  V30 23 2 23 24
M  V30 24 1 24 25
M  V30 25 1 24 26
M  V30 26 1 26 27
M  V30 27 2 27 28
M  V30 28 1 28 29
M  V30 29 1 28 30
M  V30 30 2 30 31
M  V30 31 1 31 32
M  V30 32 2 32 33
M  V30 33 1 33 34
M  V30 34 2 26 35
M  V30 35 1 11 36
M  V30 36 1 36 37
M  V30 37 1 37 38
M  V30 38 1 37 7
M  V30 39 1 17 12
M  V30 40 1 35 21
M  V30 41 1 33 27
M  V30 42 1 1 39
M  V30 43 1 1 40
M  V30 44 1 1 41
M  V30 45 1 3 42
M  V30 46 1 3 43
M  V30 47 1 6 44
M  V30 48 1 7 45 CFG=1
M  V30 49 1 8 46 CFG=1
M  V30 50 1 9 47
M  V30 51 1 9 48
M  V30 52 1 10 49
M  V30 53 1 10 50
M  V30 54 1 11 51 CFG=1
M  V30 55 1 13 52
M  V30 56 1 14 53
M  V30 57 1 16 54
M  V30 58 1 18 55
M  V30 59 1 22 56
M  V30 60 1 23 57
M  V30 61 1 30 58
M  V30 62 1 31 59
M  V30 63 1 32 60
M  V30 64 1 36 61
M  V30 65 1 36 62
M  V30 66 1 37 63 CFG=1
M  V30 67 1 38 64
M  V30 68 1 38 65
M  V30 69 1 38 66
M  V30 END BOND
M  V30 END CTAB
M  END
>  <Dataset>  (233) 
ChEMBL_Kinases

>  <Ligand_Instance>  (233) 
nan

>  <PDB_ID>  (233) 
nan

>  <Standardized_SMILES>  (233) 
COCC(=O)N[C@@H]1[C@H](N)C[C@H](c2ccncc2NC(=O)c2ccc(F)c(-c3c(F)cccc3F)n2)C[C@@H]1C

>  <Name>  (233) 
nan

>  <Pocket>  (233) 
nan

>  <ATP_Site>  (233) 
nan

>  <Peripheral>  (233) 
nan

>  <Num_H_Atoms_ProtBoundConf>  (233) 
nan

>  <Num_Resolved_Atoms>  (233) 
nan

>  <Num_Not_Resolved_Atoms>  (233) 
nan

$$$$
CHEMBL3687414
     RDKit          3D

  0  0  0  0  0  0  0  0  0  0999 V3000
M  V30 BEGIN CTAB
M  V30 COUNTS 61 65 0 0 0
M  V30 BEGIN ATOM
M  V30 1 C 4.133862 -1.831393 1.244790 0
M  V30 2 C 3.552264 -2.684140 0.165252 0 CFG=1
M  V30 3 C 2.236435 -3.344267 0.551522 0
M  V30 4 C 1.154552 -2.350482 0.847282 0 CFG=1
M  V30 5 C 1.079100 -1.976605 2.250565 0
M  V30 6 C 1.775296 -2.508666 3.314405 0
M  V30 7 C 1.685207 -2.153916 4.642427 0
M  V30 8 N 0.800324 -1.158389 4.927400 0
M  V30 9 C 0.078416 -0.588053 3.918249 0
M  V30 10 C 0.207385 -0.985616 2.580155 0
M  V30 11 N -0.690835 -0.196622 1.824235 0
M  V30 12 C -0.740150 1.095667 1.182217 0
M  V30 13 O 0.231131 1.886678 1.211058 0
M  V30 14 C -2.012957 1.360083 0.518992 0
M  V30 15 C -2.096101 2.586091 -0.105466 0
M  V30 16 C -3.262741 2.936045 -0.765088 0
M  V30 17 C -4.330019 2.060185 -0.793517 0
M  V30 18 F -5.523830 2.274325 -1.399280 0
M  V30 19 C -4.214971 0.831708 -0.154434 0
M  V30 20 C -5.217906 -0.224465 -0.069073 0
M  V30 21 C -6.018664 -0.064710 1.045609 0
M  V30 22 F -5.929820 0.927421 1.975480 0
M  V30 23 C -7.045465 -0.970119 1.316632 0
M  V30 24 C -7.236787 -2.025230 0.442355 0
M  V30 25 C -6.432128 -2.188656 -0.680777 0
M  V30 26 C -5.422249 -1.282246 -0.930721 0
M  V30 27 F -4.569571 -1.322170 -1.981875 0
M  V30 28 N -3.073124 0.542292 0.465640 0
M  V30 29 C 1.231676 -1.191392 -0.127183 0
M  V30 30 C 1.984117 -1.609257 -1.397883 0 CFG=1
M  V30 31 N 1.814859 -0.613025 -2.423766 0
M  V30 32 C 3.402610 -1.978344 -1.167444 0 CFG=1
M  V30 33 N 4.353106 -0.914470 -1.229899 0
M  V30 34 C 4.223456 0.417870 -1.113471 0
M  V30 35 C 5.459401 1.013272 -1.254618 0
M  V30 36 N 6.289986 0.001205 -1.452398 0
M  V30 37 N 5.661046 -1.136007 -1.441350 0
M  V30 38 H 4.476503 -2.512830 2.055788 0
M  V30 39 H 5.073964 -1.389657 0.839969 0
M  V30 40 H 3.520489 -0.988022 1.577338 0
M  V30 41 H 4.269326 -3.516525 0.003879 0
M  V30 42 H 2.448109 -4.090517 1.300143 0
M  V30 43 H 1.941626 -3.922088 -0.377738 0
M  V30 44 H 0.187017 -2.889851 0.604876 0
M  V30 45 H 2.484016 -3.299934 3.119271 0
M  V30 46 H 2.278633 -2.635168 5.406810 0
M  V30 47 H -0.556660 0.175523 4.375116 0
M  V30 48 H -1.513027 -0.874095 1.803590 0
M  V30 49 H -1.253638 3.292549 -0.090297 0
M  V30 50 H -3.396240 3.875393 -1.272940 0
M  V30 51 H -7.719698 -0.916383 2.170910 0
M  V30 52 H -8.031587 -2.748933 0.628305 0
M  V30 53 H -6.548862 -3.003062 -1.392241 0
M  V30 54 H 0.199828 -0.959642 -0.525445 0
M  V30 55 H 1.629656 -0.271283 0.290320 0
M  V30 56 H 1.438800 -2.521051 -1.769359 0
M  V30 57 H 2.715701 -0.525763 -2.949517 0
M  V30 58 H 1.091788 -0.862017 -3.141131 0
M  V30 59 H 3.674536 -2.694758 -2.000726 0
M  V30 60 H 3.292527 0.926804 -0.938133 0
M  V30 61 H 5.732468 2.056097 -1.219382 0
M  V30 END ATOM
M  V30 BEGIN BOND
M  V30 1 1 1 2
M  V30 2 1 2 3
M  V30 3 1 3 4
M  V30 4 1 4 5
M  V30 5 2 5 6
M  V30 6 1 6 7
M  V30 7 2 7 8
M  V30 8 1 8 9
M  V30 9 2 9 10
M  V30 10 1 10 11
M  V30 11 1 11 12
M  V30 12 2 12 13
M  V30 13 1 12 14
M  V30 14 2 14 15
M  V30 15 1 15 16
M  V30 16 2 16 17
M  V30 17 1 17 18
M  V30 18 1 17 19
M  V30 19 1 19 20
M  V30 20 2 20 21
M  V30 21 1 21 22
M  V30 22 1 21 23
M  V30 23 2 23 24
M  V30 24 1 24 25
M  V30 25 2 25 26
M  V30 26 1 26 27
M  V30 27 2 19 28
M  V30 28 1 4 29
M  V30 29 1 29 30
M  V30 30 1 30 31
M  V30 31 1 30 32
M  V30 32 1 32 33
M  V30 33 1 33 34
M  V30 34 2 34 35
M  V30 35 1 35 36
M  V30 36 2 36 37
M  V30 37 1 32 2
M  V30 38 1 37 33
M  V30 39 1 10 5
M  V30 40 1 28 14
M  V30 41 1 26 20
M  V30 42 1 1 38
M  V30 43 1 1 39
M  V30 44 1 1 40
M  V30 45 1 2 41 CFG=3
M  V30 46 1 3 42
M  V30 47 1 3 43
M  V30 48 1 4 44 CFG=3
M  V30 49 1 6 45
M  V30 50 1 7 46
M  V30 51 1 9 47
M  V30 52 1 11 48
M  V30 53 1 15 49
M  V30 54 1 16 50
M  V30 55 1 23 51
M  V30 56 1 24 52
M  V30 57 1 25 53
M  V30 58 1 29 54
M  V30 59 1 29 55
M  V30 60 1 30 56 CFG=3
M  V30 61 1 31 57
M  V30 62 1 31 58
M  V30 63 1 32 59 CFG=3
M  V30 64 1 34 60
M  V30 65 1 35 61
M  V30 END BOND
M  V30 END CTAB
M  END
>  <Dataset>  (234) 
ChEMBL_Kinases

>  <Ligand_Instance>  (234) 
nan

>  <PDB_ID>  (234) 
nan

>  <Standardized_SMILES>  (234) 
C[C@H]1C[C@@H](c2ccncc2NC(=O)c2ccc(F)c(-c3c(F)cccc3F)n2)C[C@@H](N)[C@H]1n1ccnn1

>  <Name>  (234) 
nan

>  <Pocket>  (234) 
nan

>  <ATP_Site>  (234) 
nan

>  <Peripheral>  (234) 
nan

>  <Num_H_Atoms_ProtBoundConf>  (234) 
nan

>  <Num_Resolved_Atoms>  (234) 
nan

>  <Num_Not_Resolved_Atoms>  (234) 
nan

$$$$
CHEMBL3701775
     RDKit          3D

  0  0  0  0  0  0  0  0  0  0999 V3000
M  V30 BEGIN CTAB
M  V30 COUNTS 68 73 0 0 0
M  V30 BEGIN ATOM
M  V30 1 C 3.218380 -5.388104 6.269849 0
M  V30 2 C 3.408076 -3.969335 5.764624 0
M  V30 3 O 2.436709 -3.125044 6.339195 0
M  V30 4 N 2.622354 -1.902246 5.813773 0
M  V30 5 C 3.309870 -0.697393 5.998869 0
M  V30 6 O 4.073436 -0.543428 6.964544 0
M  V30 7 C 3.100142 0.362416 5.025692 0
M  V30 8 C 3.813826 1.518462 5.255050 0
M  V30 9 C 3.657614 2.572972 4.358266 0
M  V30 10 C 2.830814 2.545614 3.243381 0
M  V30 11 C 2.155360 1.354383 3.089224 0
M  V30 12 C 2.263953 0.274756 3.936929 0
M  V30 13 C 1.259824 1.216070 1.946667 0
M  V30 14 N 0.450270 0.279307 1.443189 0
M  V30 15 C -0.147638 0.754575 0.310590 0
M  V30 16 C -1.059229 -0.182593 -0.335197 0
M  V30 17 C -0.505561 -1.390585 -0.775734 0
M  V30 18 C -1.254864 -2.362998 -1.401612 0
M  V30 19 C -2.592502 -2.143197 -1.602296 0
M  V30 20 C -3.583946 -3.015316 -2.235542 0
M  V30 21 N -4.805340 -3.144088 -1.470677 0
M  V30 22 C -3.135759 -4.343943 -2.746304 0
M  V30 23 C -3.315911 -3.938891 -4.202717 0
M  V30 24 C -2.005152 -3.883196 -4.964865 0
M  V30 25 O -4.232906 -4.668661 -4.927161 0
M  V30 26 C -3.820238 -2.613336 -3.695152 0
M  V30 27 C -3.169410 -0.950591 -1.174316 0
M  V30 28 C -2.406018 0.036135 -0.538468 0
M  V30 29 C 0.329830 2.047528 0.124865 0
M  V30 30 C -0.210782 2.716036 -1.052972 0
M  V30 31 C 0.061581 2.154315 -2.298117 0
M  V30 32 C -0.441741 2.771099 -3.434634 0
M  V30 33 C -1.202240 3.922753 -3.359304 0
M  V30 34 C -1.478215 4.489340 -2.119408 0
M  V30 35 C -0.972220 3.867616 -0.989898 0
M  V30 36 N 1.190725 2.295933 1.147859 0
M  V30 37 C 1.872297 3.556526 1.262543 0
M  V30 38 O 2.709299 3.618214 2.382422 0
M  V30 39 H 2.718899 -6.013591 5.485822 0
M  V30 40 H 2.531593 -5.428952 7.146681 0
M  V30 41 H 4.171860 -5.893995 6.512314 0
M  V30 42 H 4.439347 -3.635318 6.034511 0
M  V30 43 H 3.315559 -3.979575 4.660549 0
M  V30 44 H 1.957114 -2.168628 5.057752 0
M  V30 45 H 4.482106 1.631597 6.097234 0
M  V30 46 H 4.232130 3.493089 4.548612 0
M  V30 47 H 1.708868 -0.635431 3.765721 0
M  V30 48 H 0.563282 -1.576166 -0.620477 0
M  V30 49 H -0.886308 -3.292773 -1.753981 0
M  V30 50 H -4.549398 -3.386025 -0.504110 0
M  V30 51 H -5.454304 -2.344981 -1.584046 0
M  V30 52 H -2.143685 -4.709635 -2.486434 0
M  V30 53 H -3.863803 -5.185896 -2.547535 0
M  V30 54 H -2.145937 -4.110779 -6.032288 0
M  V30 55 H -1.555245 -2.872009 -4.897540 0
M  V30 56 H -1.272444 -4.608326 -4.545669 0
M  V30 57 H -3.742065 -5.439686 -5.324959 0
M  V30 58 H -3.220761 -1.743012 -4.008640 0
M  V30 59 H -4.884623 -2.409257 -3.952468 0
M  V30 60 H -4.208086 -0.647060 -1.268119 0
M  V30 61 H -2.796732 0.972753 -0.188197 0
M  V30 62 H 0.661983 1.244744 -2.357011 0
M  V30 63 H -0.245992 2.355167 -4.430060 0
M  V30 64 H -1.604658 4.419121 -4.242349 0
M  V30 65 H -2.060362 5.383151 -1.959089 0
M  V30 66 H -1.149520 4.258027 0.022085 0
M  V30 67 H 1.199571 4.430285 1.182649 0
M  V30 68 H 2.559697 3.621193 0.370649 0
M  V30 END ATOM
M  V30 BEGIN BOND
M  V30 1 1 1 2
M  V30 2 1 2 3
M  V30 3 1 3 4
M  V30 4 1 4 5
M  V30 5 2 5 6
M  V30 6 1 5 7
M  V30 7 2 7 8
M  V30 8 1 8 9
M  V30 9 2 9 10
M  V30 10 1 10 11
M  V30 11 2 11 12
M  V30 12 1 11 13
M  V30 13 2 13 14
M  V30 14 1 14 15
M  V30 15 1 15 16
M  V30 16 2 16 17
M  V30 17 1 17 18
M  V30 18 2 18 19
M  V30 19 1 19 20
M  V30 20 1 20 21
M  V30 21 1 20 22
M  V30 22 1 22 23
M  V30 23 1 23 24
M  V30 24 1 23 25
M  V30 25 1 23 26
M  V30 26 1 19 27
M  V30 27 2 27 28
M  V30 28 2 15 29
M  V30 29 1 29 30
M  V30 30 2 30 31
M  V30 31 1 31 32
M  V30 32 2 32 33
M  V30 33 1 33 34
M  V30 34 2 34 35
M  V30 35 1 29 36
M  V30 36 1 36 37
M  V30 37 1 37 38
M  V30 38 1 12 7
M  V30 39 1 36 13
M  V30 40 1 38 10
M  V30 41 1 28 16
M  V30 42 1 35 30
M  V30 43 1 26 20
M  V30 44 1 1 39
M  V30 45 1 1 40
M  V30 46 1 1 41
M  V30 47 1 2 42
M  V30 48 1 2 43
M  V30 49 1 4 44
M  V30 50 1 8 45
M  V30 51 1 9 46
M  V30 52 1 12 47
M  V30 53 1 17 48
M  V30 54 1 18 49
M  V30 55 1 21 50
M  V30 56 1 21 51
M  V30 57 1 22 52
M  V30 58 1 22 53
M  V30 59 1 24 54
M  V30 60 1 24 55
M  V30 61 1 24 56
M  V30 62 1 25 57
M  V30 63 1 26 58
M  V30 64 1 26 59
M  V30 65 1 27 60
M  V30 66 1 28 61
M  V30 67 1 31 62
M  V30 68 1 32 63
M  V30 69 1 33 64
M  V30 70 1 34 65
M  V30 71 1 35 66
M  V30 72 1 37 67
M  V30 73 1 37 68
M  V30 END BOND
M  V30 END CTAB
M  END
>  <Dataset>  (235) 
ChEMBL_Kinases

>  <Ligand_Instance>  (235) 
nan

>  <PDB_ID>  (235) 
nan

>  <Standardized_SMILES>  (235) 
CCONC(=O)c1ccc2c(c1)-c1nc(-c3ccc(C4(N)CC(C)(O)C4)cc3)c(-c3ccccc3)n1CO2

>  <Name>  (235) 
nan

>  <Pocket>  (235) 
nan

>  <ATP_Site>  (235) 
nan

>  <Peripheral>  (235) 
nan

>  <Num_H_Atoms_ProtBoundConf>  (235) 
nan

>  <Num_Resolved_Atoms>  (235) 
nan

>  <Num_Not_Resolved_Atoms>  (235) 
nan

$$$$
CHEMBL3728346
     RDKit          3D

  0  0  0  0  0  0  0  0  0  0999 V3000
M  V30 BEGIN CTAB
M  V30 COUNTS 47 49 0 0 0
M  V30 BEGIN ATOM
M  V30 1 O -0.318647 -3.469265 0.516664 0
M  V30 2 C 0.543206 -3.847421 1.378907 0
M  V30 3 C 2.005326 -4.211971 1.397824 0
M  V30 4 N 2.566264 -4.091864 0.066740 0
M  V30 5 C 2.607219 -2.853359 -0.631140 0
M  V30 6 C 3.134563 -2.745292 -1.913742 0
M  V30 7 C 3.200044 -1.568474 -2.629915 0
M  V30 8 C 2.703082 -0.416460 -2.021395 0
M  V30 9 C 2.166910 -0.455457 -0.751069 0
M  V30 10 C 1.635543 0.727772 -0.078192 0
M  V30 11 O 1.154596 0.656412 1.086423 0
M  V30 12 N 1.615730 2.010436 -0.655316 0
M  V30 13 C 1.059217 2.990272 0.176667 0
M  V30 14 C 2.036493 3.594653 0.981111 0
M  V30 15 C 1.705126 4.603384 1.890330 0
M  V30 16 C 0.386182 5.029297 2.013855 0
M  V30 17 C -0.573674 4.427760 1.216096 0
M  V30 18 C -0.223418 3.434748 0.326342 0
M  V30 19 C 2.139096 -1.665641 -0.106733 0
M  V30 20 N -0.143782 -3.918711 2.634924 0
M  V30 21 N -1.507097 -3.553930 2.489970 0
M  V30 22 C -1.845560 -2.293338 2.402720 0
M  V30 23 C -3.190743 -1.717273 2.250283 0
M  V30 24 C -3.405203 -0.353126 2.169915 0
M  V30 25 C -4.710291 0.056976 2.029756 0
M  V30 26 N -5.751291 -0.788742 1.969741 0
M  V30 27 C -5.559777 -2.112804 2.046125 0
M  V30 28 C -4.267571 -2.575001 2.187462 0
M  V30 29 H 2.543006 -3.575540 2.137986 0
M  V30 30 H 2.053187 -5.275505 1.704210 0
M  V30 31 H 2.962255 -4.922667 -0.426393 0
M  V30 32 H 3.529910 -3.644703 -2.405268 0
M  V30 33 H 3.613588 -1.516471 -3.620464 0
M  V30 34 H 2.744326 0.517013 -2.564520 0
M  V30 35 H 1.994286 2.157270 -1.617085 0
M  V30 36 H 3.111843 3.354846 0.985052 0
M  V30 37 H 2.444622 5.079600 2.517072 0
M  V30 38 H 0.073850 5.808518 2.703741 0
M  V30 39 H -1.635596 4.713726 1.260160 0
M  V30 40 H -0.918985 2.905791 -0.341852 0
M  V30 41 H 1.710282 -1.677871 0.907664 0
M  V30 42 H 0.269088 -4.198896 3.563458 0
M  V30 43 H -1.028713 -1.603628 2.449814 0
M  V30 44 H -2.535402 0.277570 2.223324 0
M  V30 45 H -4.863541 1.122995 1.968751 0
M  V30 46 H -6.464021 -2.693866 1.987269 0
M  V30 47 H -4.175442 -3.666031 2.244325 0
M  V30 END ATOM
M  V30 BEGIN BOND
M  V30 1 2 1 2
M  V30 2 1 2 3
M  V30 3 1 3 4
M  V30 4 1 4 5
M  V30 5 2 5 6
M  V30 6 1 6 7
M  V30 7 2 7 8
M  V30 8 1 8 9
M  V30 9 1 9 10
M  V30 10 2 10 11
M  V30 11 1 10 12
M  V30 12 1 12 13
M  V30 13 2 13 14
M  V30 14 1 14 15
M  V30 15 2 15 16
M  V30 16 1 16 17
M  V30 17 2 17 18
M  V30 18 2 9 19
M  V30 19 1 2 20
M  V30 20 1 20 21
M  V30 21 2 21 22
M  V30 22 1 22 23
M  V30 23 2 23 24
M  V30 24 1 24 25
M  V30 25 2 25 26
M  V30 26 1 26 27
M  V30 27 2 27 28
M  V30 28 1 19 5
M  V30 29 1 28 23
M  V30 30 1 18 13
M  V30 31 1 3 29
M  V30 32 1 3 30
M  V30 33 1 4 31
M  V30 34 1 6 32
M  V30 35 1 7 33
M  V30 36 1 8 34
M  V30 37 1 12 35
M  V30 38 1 14 36
M  V30 39 1 15 37
M  V30 40 1 16 38
M  V30 41 1 17 39
M  V30 42 1 18 40
M  V30 43 1 19 41
M  V30 44 1 20 42
M  V30 45 1 22 43
M  V30 46 1 24 44
M  V30 47 1 25 45
M  V30 48 1 27 46
M  V30 49 1 28 47
M  V30 END BOND
M  V30 END CTAB
M  END
>  <Dataset>  (236) 
ChEMBL_Kinases

>  <Ligand_Instance>  (236) 
nan

>  <PDB_ID>  (236) 
nan

>  <Standardized_SMILES>  (236) 
O=C(CNc1cccc(C(=O)Nc2ccccc2)c1)N/N=C/c1ccncc1

>  <Name>  (236) 
nan

>  <Pocket>  (236) 
nan

>  <ATP_Site>  (236) 
nan

>  <Peripheral>  (236) 
nan

>  <Num_H_Atoms_ProtBoundConf>  (236) 
nan

>  <Num_Resolved_Atoms>  (236) 
nan

>  <Num_Not_Resolved_Atoms>  (236) 
nan

$$$$
CHEMBL271443
     RDKit          3D

  0  0  0  0  0  0  0  0  0  0999 V3000
M  V30 BEGIN CTAB
M  V30 COUNTS 59 63 0 0 0
M  V30 BEGIN ATOM
M  V30 1 C 2.227522 -1.791192 4.776304 0
M  V30 2 C 3.586415 -2.020003 4.171612 0
M  V30 3 C 3.970780 -3.448969 4.386584 0
M  V30 4 S 3.583680 -1.608143 2.422318 0
M  V30 5 O 4.969090 -1.914232 1.928570 0
M  V30 6 O 2.640426 -2.546252 1.765872 0
M  V30 7 N 3.152247 0.024487 2.196710 0
M  V30 8 C 3.896536 1.029300 2.706492 0
M  V30 9 N 5.095717 0.942380 3.474035 0
M  V30 10 N 3.300922 2.191180 2.360562 0
M  V30 11 C 2.188633 1.930531 1.637866 0
M  V30 12 C 1.205889 2.684797 1.030678 0
M  V30 13 C 0.150093 2.122721 0.335097 0
M  V30 14 C 0.074469 0.748413 0.243240 0
M  V30 15 C -0.942000 -0.011865 -0.432193 0
M  V30 16 N -1.816921 -0.886898 0.060902 0
M  V30 17 C -2.652910 -1.451098 -0.794647 0
M  V30 18 C -3.757934 -2.383954 -0.785852 0
M  V30 19 C -4.247722 -2.814478 -2.031112 0
M  V30 20 C -5.278996 -3.671779 -2.207050 0
M  V30 21 C -5.910095 -4.172030 -1.109070 0
M  V30 22 C -5.447494 -3.763584 0.118584 0
M  V30 23 C -4.380242 -2.875437 0.317481 0
M  V30 24 C -4.024470 -2.523359 1.688449 0
M  V30 25 F -4.128772 -1.176468 1.988257 0
M  V30 26 F -5.022227 -3.091531 2.527641 0
M  V30 27 F -2.866589 -3.116700 2.144726 0
M  V30 28 N -2.240027 -0.856061 -1.923075 0
M  V30 29 C -1.237020 0.000451 -1.771672 0
M  V30 30 C -0.607507 0.776442 -2.840700 0
M  V30 31 C -1.349470 1.679092 -3.581478 0
M  V30 32 C -0.830392 2.459720 -4.617508 0
M  V30 33 C 0.522837 2.307164 -4.910660 0
M  V30 34 C 1.299092 1.416857 -4.195212 0
M  V30 35 C 0.729091 0.668467 -3.177293 0
M  V30 36 C 1.058588 -0.033286 0.850365 0
M  V30 37 C 2.107249 0.565192 1.542521 0
M  V30 38 H 1.397713 -1.844239 4.038508 0
M  V30 39 H 2.016917 -2.530412 5.587538 0
M  V30 40 H 2.167533 -0.794273 5.267906 0
M  V30 41 H 4.317669 -1.371627 4.679342 0
M  V30 42 H 5.012652 -3.545745 4.753149 0
M  V30 43 H 3.306215 -3.949725 5.130844 0
M  V30 44 H 3.859093 -4.065983 3.458754 0
M  V30 45 H 4.973898 1.104629 4.500355 0
M  V30 46 H 6.070466 0.735057 3.113595 0
M  V30 47 H 1.263439 3.766045 1.101829 0
M  V30 48 H -0.620944 2.680315 -0.142567 0
M  V30 49 H -1.799312 -1.097514 1.066823 0
M  V30 50 H -3.804916 -2.468093 -2.983917 0
M  V30 51 H -5.615059 -3.970662 -3.178099 0
M  V30 52 H -6.730763 -4.853985 -1.208690 0
M  V30 53 H -5.981666 -4.189200 0.965745 0
M  V30 54 H -2.410147 1.833026 -3.389575 0
M  V30 55 H -1.464790 3.149896 -5.161226 0
M  V30 56 H 0.974974 2.885277 -5.700900 0
M  V30 57 H 2.357638 1.284520 -4.410503 0
M  V30 58 H 1.302931 -0.040932 -2.591608 0
M  V30 59 H 1.056841 -1.121188 0.814902 0
M  V30 END ATOM
M  V30 BEGIN BOND
M  V30 1 1 1 2
M  V30 2 1 2 3
M  V30 3 1 2 4
M  V30 4 2 4 5
M  V30 5 2 4 6
M  V30 6 1 4 7
M  V30 7 1 7 8
M  V30 8 1 8 9
M  V30 9 2 8 10
M  V30 10 1 10 11
M  V30 11 2 11 12
M  V30 12 1 12 13
M  V30 13 2 13 14
M  V30 14 1 14 15
M  V30 15 1 15 16
M  V30 16 1 16 17
M  V30 17 1 17 18
M  V30 18 2 18 19
M  V30 19 1 19 20
M  V30 20 2 20 21
M  V30 21 1 21 22
M  V30 22 2 22 23
M  V30 23 1 23 24
M  V30 24 1 24 25
M  V30 25 1 24 26
M  V30 26 1 24 27
M  V30 27 2 17 28
M  V30 28 1 28 29
M  V30 29 1 29 30
M  V30 30 2 30 31
M  V30 31 1 31 32
M  V30 32 2 32 33
M  V30 33 1 33 34
M  V30 34 2 34 35
M  V30 35 1 14 36
M  V30 36 2 36 37
M  V30 37 1 37 7
M  V30 38 1 37 11
M  V30 39 2 29 15
M  V30 40 1 35 30
M  V30 41 1 23 18
M  V30 42 1 1 38
M  V30 43 1 1 39
M  V30 44 1 1 40
M  V30 45 1 2 41
M  V30 46 1 3 42
M  V30 47 1 3 43
M  V30 48 1 3 44
M  V30 49 1 9 45
M  V30 50 1 9 46
M  V30 51 1 12 47
M  V30 52 1 13 48
M  V30 53 1 16 49
M  V30 54 1 19 50
M  V30 55 1 20 51
M  V30 56 1 21 52
M  V30 57 1 22 53
M  V30 58 1 31 54
M  V30 59 1 32 55
M  V30 60 1 33 56
M  V30 61 1 34 57
M  V30 62 1 35 58
M  V30 63 1 36 59
M  V30 END BOND
M  V30 END CTAB
M  END
>  <Dataset>  (237) 
ChEMBL_Kinases

>  <Ligand_Instance>  (237) 
nan

>  <PDB_ID>  (237) 
nan

>  <Standardized_SMILES>  (237) 
CC(C)S(=O)(=O)n1c(N)nc2ccc(-c3[nH]c(-c4ccccc4C(F)(F)F)nc3-c3ccccc3)cc21

>  <Name>  (237) 
nan

>  <Pocket>  (237) 
nan

>  <ATP_Site>  (237) 
nan

>  <Peripheral>  (237) 
nan

>  <Num_H_Atoms_ProtBoundConf>  (237) 
nan

>  <Num_Resolved_Atoms>  (237) 
nan

>  <Num_Not_Resolved_Atoms>  (237) 
nan

$$$$
CHEMBL271505
     RDKit          3D

  0  0  0  0  0  0  0  0  0  0999 V3000
M  V30 BEGIN CTAB
M  V30 COUNTS 55 58 0 0 0
M  V30 BEGIN ATOM
M  V30 1 C 0.856461 -0.268450 3.940654 0
M  V30 2 C 1.901496 0.705560 4.395849 0
M  V30 3 C 2.890365 -0.011418 5.256980 0
M  V30 4 C 2.545875 1.451012 3.258590 0
M  V30 5 N 3.209498 0.585343 2.310898 0
M  V30 6 C 4.508170 0.164765 2.334542 0
M  V30 7 N 4.712312 -0.630423 1.262805 0
M  V30 8 C 3.569460 -0.729542 0.549680 0
M  V30 9 C 3.294996 -1.432902 -0.622718 0
M  V30 10 C 2.015400 -1.349528 -1.132922 0
M  V30 11 C 1.075329 -0.584793 -0.471077 0
M  V30 12 C -0.318371 -0.368654 -0.837540 0
M  V30 13 N -1.116913 0.645013 -1.191137 0
M  V30 14 C -2.365560 0.208228 -1.415906 0
M  V30 15 C -3.508138 1.063628 -1.828012 0
M  V30 16 C -3.107790 2.488890 -1.985907 0
M  V30 17 C -4.581196 0.917057 -0.754010 0
M  V30 18 C -4.135224 0.524151 -3.118184 0
M  V30 19 N -2.371106 -1.118092 -1.202150 0
M  V30 20 C -1.117087 -1.514699 -0.840919 0
M  V30 21 C -0.878505 -2.925540 -0.557936 0
M  V30 22 C -1.132979 -3.779836 -1.636436 0
M  V30 23 C -0.933454 -5.154104 -1.464581 0
M  V30 24 C -0.490557 -5.623690 -0.232422 0
M  V30 25 F -0.289999 -6.956778 -0.044398 0
M  V30 26 C -0.237843 -4.787082 0.834763 0
M  V30 27 C -0.440656 -3.440991 0.643336 0
M  V30 28 F -0.219934 -2.526929 1.634874 0
M  V30 29 N 1.387449 0.084492 0.669551 0
M  V30 30 C 2.628102 0.035075 1.210561 0
M  V30 31 H 1.285527 -1.222351 3.582201 0
M  V30 32 H 0.184260 -0.508895 4.814412 0
M  V30 33 H 0.159386 0.188851 3.180908 0
M  V30 34 H 1.383362 1.455331 5.029243 0
M  V30 35 H 2.407962 -0.238478 6.243367 0
M  V30 36 H 3.823098 0.562742 5.413235 0
M  V30 37 H 3.067961 -1.017975 4.797724 0
M  V30 38 H 1.837855 2.105761 2.753752 0
M  V30 39 H 3.328421 2.112781 3.713504 0
M  V30 40 H 5.238066 0.432393 3.090376 0
M  V30 41 H 4.006543 -2.031081 -1.152695 0
M  V30 42 H 1.650421 -1.834620 -2.027736 0
M  V30 43 H -0.688990 1.592879 -1.243882 0
M  V30 44 H -2.077997 2.663757 -2.302083 0
M  V30 45 H -3.406069 3.095948 -1.087490 0
M  V30 46 H -3.755724 2.903037 -2.813991 0
M  V30 47 H -5.559277 1.097302 -1.227195 0
M  V30 48 H -4.395013 1.608743 0.096515 0
M  V30 49 H -4.558272 -0.157086 -0.441120 0
M  V30 50 H -4.014621 -0.597909 -3.082699 0
M  V30 51 H -3.610117 0.929911 -3.992561 0
M  V30 52 H -5.220180 0.695597 -3.112537 0
M  V30 53 H -1.482273 -3.468696 -2.627565 0
M  V30 54 H -1.112995 -5.884290 -2.267516 0
M  V30 55 H 0.104144 -5.094350 1.804252 0
M  V30 END ATOM
M  V30 BEGIN BOND
M  V30 1 1 1 2
M  V30 2 1 2 3
M  V30 3 1 2 4
M  V30 4 1 4 5
M  V30 5 1 5 6
M  V30 6 2 6 7
M  V30 7 1 7 8
M  V30 8 2 8 9
M  V30 9 1 9 10
M  V30 10 2 10 11
M  V30 11 1 11 12
M  V30 12 1 12 13
M  V30 13 1 13 14
M  V30 14 1 14 15
M  V30 15 1 15 16
M  V30 16 1 15 17
M  V30 17 1 15 18
M  V30 18 2 14 19
M  V30 19 1 19 20
M  V30 20 1 20 21
M  V30 21 2 21 22
M  V30 22 1 22 23
M  V30 23 2 23 24
M  V30 24 1 24 25
M  V30 25 1 24 26
M  V30 26 2 26 27
M  V30 27 1 27 28
M  V30 28 1 11 29
M  V30 29 2 29 30
M  V30 30 1 30 5
M  V30 31 1 30 8
M  V30 32 2 20 12
M  V30 33 1 27 21
M  V30 34 1 1 31
M  V30 35 1 1 32
M  V30 36 1 1 33
M  V30 37 1 2 34
M  V30 38 1 3 35
M  V30 39 1 3 36
M  V30 40 1 3 37
M  V30 41 1 4 38
M  V30 42 1 4 39
M  V30 43 1 6 40
M  V30 44 1 9 41
M  V30 45 1 10 42
M  V30 46 1 13 43
M  V30 47 1 16 44
M  V30 48 1 16 45
M  V30 49 1 16 46
M  V30 50 1 17 47
M  V30 51 1 17 48
M  V30 52 1 17 49
M  V30 53 1 18 50
M  V30 54 1 18 51
M  V30 55 1 18 52
M  V30 56 1 22 53
M  V30 57 1 23 54
M  V30 58 1 26 55
M  V30 END BOND
M  V30 END CTAB
M  END
>  <Dataset>  (238) 
ChEMBL_Kinases

>  <Ligand_Instance>  (238) 
nan

>  <PDB_ID>  (238) 
nan

>  <Standardized_SMILES>  (238) 
CC(C)Cn1cnc2ccc(-c3[nH]c(C(C)(C)C)nc3-c3ccc(F)cc3F)nc21

>  <Name>  (238) 
nan

>  <Pocket>  (238) 
nan

>  <ATP_Site>  (238) 
nan

>  <Peripheral>  (238) 
nan

>  <Num_H_Atoms_ProtBoundConf>  (238) 
nan

>  <Num_Resolved_Atoms>  (238) 
nan

>  <Num_Not_Resolved_Atoms>  (238) 
nan

$$$$
CHEMBL3701774
     RDKit          3D

  0  0  0  0  0  0  0  0  0  0999 V3000
M  V30 BEGIN CTAB
M  V30 COUNTS 68 73 0 0 0
M  V30 BEGIN ATOM
M  V30 1 C 2.164943 -1.629311 6.015803 0
M  V30 2 C 0.818368 -1.446194 6.656512 0
M  V30 3 O 0.866208 -1.814575 8.020957 0
M  V30 4 C -0.360568 -2.035551 5.929632 0
M  V30 5 C -0.782653 -0.646694 5.488629 0
M  V30 6 N -2.176367 -0.434637 5.906588 0
M  V30 7 C -0.598420 -0.367452 4.059173 0
M  V30 8 C 0.533456 0.159304 3.470154 0
M  V30 9 C 0.583147 0.377028 2.094612 0
M  V30 10 C -0.478776 0.081312 1.271084 0
M  V30 11 C -0.281411 0.357230 -0.123979 0
M  V30 12 N -0.310577 -0.569133 -1.128568 0
M  V30 13 C -0.090266 0.033827 -2.295698 0
M  V30 14 N 0.085948 1.345671 -2.092728 0
M  V30 15 C -0.027172 1.572626 -0.759183 0
M  V30 16 C 0.072236 2.811679 0.041207 0
M  V30 17 C -1.103406 3.137713 0.699099 0
M  V30 18 C -1.089901 4.288283 1.472234 0
M  V30 19 C 0.022162 5.102157 1.608900 0
M  V30 20 C 1.160395 4.722121 0.928371 0
M  V30 21 C 1.216301 3.584550 0.138235 0
M  V30 22 C 0.344972 2.303378 -3.118474 0
M  V30 23 O 0.396794 1.731887 -4.387707 0
M  V30 24 C 0.229941 0.403903 -4.698075 0
M  V30 25 C 0.296169 -0.080852 -5.967491 0
M  V30 26 C 0.127902 -1.424034 -6.285907 0
M  V30 27 C -0.119445 -2.312201 -5.259776 0
M  V30 28 C -0.296933 -3.721929 -5.584636 0
M  V30 29 O -0.205529 -4.029407 -6.819410 0
M  V30 30 N -0.555834 -4.726224 -4.632797 0
M  V30 31 C -0.727747 -6.107687 -4.967273 0
M  V30 32 C -0.995531 -6.946785 -3.723281 0
M  V30 33 O 0.071219 -6.840681 -2.840174 0
M  V30 34 C -0.186905 -1.822339 -3.972311 0
M  V30 35 C -0.018771 -0.484222 -3.659025 0
M  V30 36 C -1.604918 -0.444550 1.869996 0
M  V30 37 C -1.690932 -0.675513 3.238811 0
M  V30 38 C 0.202075 -0.077937 6.452938 0
M  V30 39 H 2.825466 -2.288899 6.627735 0
M  V30 40 H 2.650297 -0.617738 5.894164 0
M  V30 41 H 2.118089 -2.078865 4.995669 0
M  V30 42 H 1.489209 -2.566589 8.159307 0
M  V30 43 H -1.049063 -2.534983 6.646389 0
M  V30 44 H -0.107578 -2.742676 5.126932 0
M  V30 45 H -2.280407 0.300892 6.616234 0
M  V30 46 H -2.647390 -1.326425 6.120405 0
M  V30 47 H 1.354547 0.389081 4.102150 0
M  V30 48 H 1.508934 0.791788 1.725511 0
M  V30 49 H -2.009924 2.540126 0.632334 0
M  V30 50 H -1.989897 4.598022 2.016610 0
M  V30 51 H 0.035145 5.999841 2.211259 0
M  V30 52 H 2.080446 5.323728 0.993357 0
M  V30 53 H 2.082244 3.258709 -0.404005 0
M  V30 54 H -0.444629 3.068057 -3.078928 0
M  V30 55 H 1.335415 2.781131 -2.864187 0
M  V30 56 H 0.493749 0.655897 -6.748153 0
M  V30 57 H 0.198766 -1.722331 -7.339795 0
M  V30 58 H -0.625628 -4.448473 -3.635915 0
M  V30 59 H 0.217426 -6.507440 -5.390401 0
M  V30 60 H -1.540010 -6.293089 -5.702161 0
M  V30 61 H -1.131360 -8.011989 -3.978344 0
M  V30 62 H -1.942271 -6.624523 -3.237096 0
M  V30 63 H -0.160025 -6.170807 -2.155130 0
M  V30 64 H -0.378525 -2.488367 -3.146393 0
M  V30 65 H -2.428487 -0.665415 1.174264 0
M  V30 66 H -2.600970 -1.089450 3.645427 0
M  V30 67 H 0.941407 0.643026 6.080973 0
M  V30 68 H -0.302375 0.272137 7.400113 0
M  V30 END ATOM
M  V30 BEGIN BOND
M  V30 1 1 1 2
M  V30 2 1 2 3
M  V30 3 1 2 4
M  V30 4 1 4 5
M  V30 5 1 5 6
M  V30 6 1 5 7
M  V30 7 2 7 8
M  V30 8 1 8 9
M  V30 9 2 9 10
M  V30 10 1 10 11
M  V30 11 1 11 12
M  V30 12 2 12 13
M  V30 13 1 13 14
M  V30 14 1 14 15
M  V30 15 1 15 16
M  V30 16 2 16 17
M  V30 17 1 17 18
M  V30 18 2 18 19
M  V30 19 1 19 20
M  V30 20 2 20 21
M  V30 21 1 14 22
M  V30 22 1 22 23
M  V30 23 1 23 24
M  V30 24 2 24 25
M  V30 25 1 25 26
M  V30 26 2 26 27
M  V30 27 1 27 28
M  V30 28 2 28 29
M  V30 29 1 28 30
M  V30 30 1 30 31
M  V30 31 1 31 32
M  V30 32 1 32 33
M  V30 33 1 27 34
M  V30 34 2 34 35
M  V30 35 1 10 36
M  V30 36 2 36 37
M  V30 37 1 5 38
M  V30 38 1 38 2
M  V30 39 1 37 7
M  V30 40 2 15 11
M  V30 41 1 21 16
M  V30 42 1 35 24
M  V30 43 1 35 13
M  V30 44 1 1 39
M  V30 45 1 1 40
M  V30 46 1 1 41
M  V30 47 1 3 42
M  V30 48 1 4 43
M  V30 49 1 4 44
M  V30 50 1 6 45
M  V30 51 1 6 46
M  V30 52 1 8 47
M  V30 53 1 9 48
M  V30 54 1 17 49
M  V30 55 1 18 50
M  V30 56 1 19 51
M  V30 57 1 20 52
M  V30 58 1 21 53
M  V30 59 1 22 54
M  V30 60 1 22 55
M  V30 61 1 25 56
M  V30 62 1 26 57
M  V30 63 1 30 58
M  V30 64 1 31 59
M  V30 65 1 31 60
M  V30 66 1 32 61
M  V30 67 1 32 62
M  V30 68 1 33 63
M  V30 69 1 34 64
M  V30 70 1 36 65
M  V30 71 1 37 66
M  V30 72 1 38 67
M  V30 73 1 38 68
M  V30 END BOND
M  V30 END CTAB
M  END
>  <Dataset>  (239) 
ChEMBL_Kinases

>  <Ligand_Instance>  (239) 
nan

>  <PDB_ID>  (239) 
nan

>  <Standardized_SMILES>  (239) 
CC1(O)CC(N)(c2ccc(-c3nc4n(c3-c3ccccc3)COc3ccc(C(=O)NCCO)cc3-4)cc2)C1

>  <Name>  (239) 
nan

>  <Pocket>  (239) 
nan

>  <ATP_Site>  (239) 
nan

>  <Peripheral>  (239) 
nan

>  <Num_H_Atoms_ProtBoundConf>  (239) 
nan

>  <Num_Resolved_Atoms>  (239) 
nan

>  <Num_Not_Resolved_Atoms>  (239) 
nan

$$$$
CHEMBL3687424
     RDKit          3D

  0  0  0  0  0  0  0  0  0  0999 V3000
M  V30 BEGIN CTAB
M  V30 COUNTS 54 57 0 0 0
M  V30 BEGIN ATOM
M  V30 1 C 3.084860 -3.694005 1.695585 0
M  V30 2 C 1.836431 -2.952019 1.225186 0 CFG=1
M  V30 3 C 2.019719 -1.470606 1.255097 0
M  V30 4 C 2.050203 -0.841500 -0.113704 0 CFG=1
M  V30 5 C 2.554245 0.548574 -0.011649 0
M  V30 6 C 3.912054 0.655060 -0.230617 0
M  V30 7 C 4.584410 1.866331 -0.190211 0
M  V30 8 N 3.836518 2.973615 0.080196 0
M  V30 9 C 2.517634 2.828558 0.287699 0
M  V30 10 C 1.799497 1.664117 0.261311 0
M  V30 11 N 0.413721 1.517196 0.483537 0
M  V30 12 C -0.549537 2.512057 0.765977 0
M  V30 13 O -0.205662 3.697504 0.844729 0
M  V30 14 C -1.958358 2.220967 0.975496 0
M  V30 15 C -2.883504 3.191768 1.248410 0
M  V30 16 C -4.209872 2.867745 1.439756 0
M  V30 17 C -4.683762 1.577439 1.371278 0
M  V30 18 F -5.977127 1.212702 1.552161 0
M  V30 19 C -3.698922 0.642635 1.092260 0
M  V30 20 C -4.081124 -0.780733 0.992587 0
M  V30 21 C -3.998346 -1.434175 2.224384 0
M  V30 22 F -3.616784 -0.858265 3.387489 0
M  V30 23 C -4.326827 -2.788964 2.303824 0
M  V30 24 C -4.728682 -3.443206 1.138814 0
M  V30 25 C -4.804831 -2.785739 -0.065283 0
M  V30 26 C -4.482337 -1.454305 -0.145031 0
M  V30 27 F -4.518361 -0.692265 -1.281887 0
M  V30 28 N -2.397527 0.948613 0.903117 0
M  V30 29 C 2.852147 -1.680737 -1.093382 0
M  V30 30 C 1.928512 -2.862691 -1.422148 0 CFG=1
M  V30 31 N 2.562600 -3.842422 -2.252264 0
M  V30 32 C 1.416420 -3.445824 -0.126209 0
M  V30 33 O 0.629103 -4.356578 -0.342267 0
M  V30 34 H 2.950213 -4.167604 2.690860 0
M  V30 35 H 3.946047 -2.999975 1.789849 0
M  V30 36 H 3.299955 -4.518952 0.970369 0
M  V30 37 H 1.032138 -3.222734 1.939160 0
M  V30 38 H 1.199886 -0.987974 1.818715 0
M  V30 39 H 2.959292 -1.225452 1.794469 0
M  V30 40 H 1.032434 -0.791617 -0.549498 0
M  V30 41 H 4.567956 -0.160412 -0.447544 0
M  V30 42 H 5.647711 1.981338 -0.357661 0
M  V30 43 H 2.027719 3.760486 0.491562 0
M  V30 44 H -0.017311 0.575770 0.451568 0
M  V30 45 H -2.541898 4.202950 1.307259 0
M  V30 46 H -4.938288 3.662110 1.658145 0
M  V30 47 H -4.276251 -3.326615 3.230539 0
M  V30 48 H -4.986874 -4.499579 1.190519 0
M  V30 49 H -5.116181 -3.271381 -0.994803 0
M  V30 50 H 3.816306 -2.023214 -0.712348 0
M  V30 51 H 2.938732 -1.095452 -2.027811 0
M  V30 52 H 1.033991 -2.417639 -1.904986 0
M  V30 53 H 2.179503 -3.730063 -3.237575 0
M  V30 54 H 2.259370 -4.808291 -1.946331 0
M  V30 END ATOM
M  V30 BEGIN BOND
M  V30 1 1 1 2
M  V30 2 1 2 3
M  V30 3 1 3 4
M  V30 4 1 4 5
M  V30 5 2 5 6
M  V30 6 1 6 7
M  V30 7 2 7 8
M  V30 8 1 8 9
M  V30 9 2 9 10
M  V30 10 1 10 11
M  V30 11 1 11 12
M  V30 12 2 12 13
M  V30 13 1 12 14
M  V30 14 2 14 15
M  V30 15 1 15 16
M  V30 16 2 16 17
M  V30 17 1 17 18
M  V30 18 1 17 19
M  V30 19 1 19 20
M  V30 20 2 20 21
M  V30 21 1 21 22
M  V30 22 1 21 23
M  V30 23 2 23 24
M  V30 24 1 24 25
M  V30 25 2 25 26
M  V30 26 1 26 27
M  V30 27 2 19 28
M  V30 28 1 4 29
M  V30 29 1 29 30
M  V30 30 1 30 31
M  V30 31 1 30 32
M  V30 32 2 32 33
M  V30 33 1 32 2
M  V30 34 1 10 5
M  V30 35 1 28 14
M  V30 36 1 26 20
M  V30 37 1 1 34
M  V30 38 1 1 35
M  V30 39 1 1 36
M  V30 40 1 2 37 CFG=1
M  V30 41 1 3 38
M  V30 42 1 3 39
M  V30 43 1 4 40 CFG=3
M  V30 44 1 6 41
M  V30 45 1 7 42
M  V30 46 1 9 43
M  V30 47 1 11 44
M  V30 48 1 15 45
M  V30 49 1 16 46
M  V30 50 1 23 47
M  V30 51 1 24 48
M  V30 52 1 25 49
M  V30 53 1 29 50
M  V30 54 1 29 51
M  V30 55 1 30 52 CFG=3
M  V30 56 1 31 53
M  V30 57 1 31 54
M  V30 END BOND
M  V30 END CTAB
M  END
>  <Dataset>  (240) 
ChEMBL_Kinases

>  <Ligand_Instance>  (240) 
nan

>  <PDB_ID>  (240) 
nan

>  <Standardized_SMILES>  (240) 
C[C@H]1C[C@@H](c2ccncc2NC(=O)c2ccc(F)c(-c3c(F)cccc3F)n2)C[C@@H](N)C1=O

>  <Name>  (240) 
nan

>  <Pocket>  (240) 
nan

>  <ATP_Site>  (240) 
nan

>  <Peripheral>  (240) 
nan

>  <Num_H_Atoms_ProtBoundConf>  (240) 
nan

>  <Num_Resolved_Atoms>  (240) 
nan

>  <Num_Not_Resolved_Atoms>  (240) 
nan

$$$$
CHEMBL3685751
     RDKit          3D

  0  0  0  0  0  0  0  0  0  0999 V3000
M  V30 BEGIN CTAB
M  V30 COUNTS 60 65 0 0 0
M  V30 BEGIN ATOM
M  V30 1 N 1.989301 -0.949816 5.001135 0
M  V30 2 C 2.141494 -0.008279 3.906694 0 CFG=1
M  V30 3 C 3.526310 0.563411 3.975669 0
M  V30 4 C 4.011117 1.197939 2.714935 0
M  V30 5 C 2.816517 1.425810 1.792304 0
M  V30 6 N 2.292027 0.108792 1.482317 0
M  V30 7 C 2.066388 -0.592595 0.284272 0
M  V30 8 C 2.706704 -1.809810 0.045099 0
M  V30 9 C 2.449620 -2.451255 -1.141100 0
M  V30 10 N 1.621103 -2.002198 -2.109116 0
M  V30 11 C 0.992751 -0.830994 -1.900884 0
M  V30 12 C 1.229182 -0.162208 -0.720352 0
M  V30 13 N 0.574976 1.074958 -0.478187 0
M  V30 14 C -0.349771 1.847449 -1.229984 0
M  V30 15 C -0.093959 3.150926 -1.658275 0
M  V30 16 C -0.983848 3.909044 -2.384649 0
M  V30 17 C -2.203364 3.354470 -2.712759 0
M  V30 18 C -2.525690 2.071046 -2.323333 0
M  V30 19 C -3.754070 1.571160 -2.676831 0
M  V30 20 N -4.038162 0.304266 -2.275059 0
M  V30 21 C -3.161521 -0.425207 -1.566604 0
M  V30 22 C -3.495635 -1.782565 -1.149913 0
M  V30 23 C -4.721384 -2.315222 -1.488225 0
M  V30 24 C -4.997144 -3.604544 -1.073449 0
M  V30 25 C -4.059607 -4.308901 -0.348031 0
M  V30 26 C -2.827827 -3.779981 -0.005393 0
M  V30 27 C -1.907320 -4.627962 0.772305 0
M  V30 28 N -1.913711 -5.704863 1.221251 0
M  V30 29 C -0.884243 -6.215149 1.907056 0
M  V30 30 C 0.301573 -5.390384 2.104300 0
M  V30 31 S -0.234560 -3.843668 1.209665 0
M  V30 32 C -2.574122 -2.507168 -0.423341 0
M  V30 33 N -1.974033 0.120452 -1.251140 0
M  V30 34 C -1.592221 1.363009 -1.597915 0
M  V30 35 C 1.888176 -0.734627 2.592756 0
M  V30 36 H 2.835625 -1.515987 5.171980 0
M  V30 37 H 1.099106 -1.459173 4.975842 0
M  V30 38 H 1.389544 0.799673 4.060030 0
M  V30 39 H 3.529114 1.306081 4.812219 0
M  V30 40 H 4.242012 -0.254423 4.267572 0
M  V30 41 H 4.476125 2.186487 2.955414 0
M  V30 42 H 4.730329 0.560515 2.150485 0
M  V30 43 H 2.056199 1.976282 2.380996 0
M  V30 44 H 3.196018 1.957706 0.916354 0
M  V30 45 H 3.380150 -2.243815 0.753611 0
M  V30 46 H 2.951856 -3.404369 -1.326754 0
M  V30 47 H 0.341105 -0.491749 -2.681561 0
M  V30 48 H 0.692450 1.656160 0.379499 0
M  V30 49 H 0.869727 3.595830 -1.401766 0
M  V30 50 H -0.741780 4.919419 -2.696566 0
M  V30 51 H -2.926715 3.939311 -3.290101 0
M  V30 52 H -4.459434 2.175778 -3.254285 0
M  V30 53 H -5.463540 -1.769507 -2.057485 0
M  V30 54 H -5.936819 -4.104728 -1.294247 0
M  V30 55 H -4.272564 -5.317475 -0.022304 0
M  V30 56 H -1.049476 -7.245415 2.263653 0
M  V30 57 H 1.099147 -5.905090 2.685757 0
M  V30 58 H -1.621415 -2.079413 -0.166184 0
M  V30 59 H 0.804034 -0.954338 2.555156 0
M  V30 60 H 2.420828 -1.688063 2.632334 0
M  V30 END ATOM
M  V30 BEGIN BOND
M  V30 1 1 1 2
M  V30 2 1 2 3
M  V30 3 1 3 4
M  V30 4 1 4 5
M  V30 5 1 5 6
M  V30 6 1 6 7
M  V30 7 2 7 8
M  V30 8 1 8 9
M  V30 9 2 9 10
M  V30 10 1 10 11
M  V30 11 2 11 12
M  V30 12 1 12 13
M  V30 13 1 13 14
M  V30 14 2 14 15
M  V30 15 1 15 16
M  V30 16 2 16 17
M  V30 17 1 17 18
M  V30 18 2 18 19
M  V30 19 1 19 20
M  V30 20 2 20 21
M  V30 21 1 21 22
M  V30 22 2 22 23
M  V30 23 1 23 24
M  V30 24 2 24 25
M  V30 25 1 25 26
M  V30 26 1 26 27
M  V30 27 2 27 28
M  V30 28 1 28 29
M  V30 29 2 29 30
M  V30 30 1 30 31
M  V30 31 2 26 32
M  V30 32 1 21 33
M  V30 33 2 33 34
M  V30 34 1 6 35
M  V30 35 1 35 2
M  V30 36 1 12 7
M  V30 37 1 34 14
M  V30 38 1 34 18
M  V30 39 1 32 22
M  V30 40 1 31 27
M  V30 41 1 1 36
M  V30 42 1 1 37
M  V30 43 1 2 38 CFG=1
M  V30 44 1 3 39
M  V30 45 1 3 40
M  V30 46 1 4 41
M  V30 47 1 4 42
M  V30 48 1 5 43
M  V30 49 1 5 44
M  V30 50 1 8 45
M  V30 51 1 9 46
M  V30 52 1 11 47
M  V30 53 1 13 48
M  V30 54 1 15 49
M  V30 55 1 16 50
M  V30 56 1 17 51
M  V30 57 1 19 52
M  V30 58 1 23 53
M  V30 59 1 24 54
M  V30 60 1 25 55
M  V30 61 1 29 56
M  V30 62 1 30 57
M  V30 63 1 32 58
M  V30 64 1 35 59
M  V30 65 1 35 60
M  V30 END BOND
M  V30 END CTAB
M  END
>  <Dataset>  (241) 
ChEMBL_Kinases

>  <Ligand_Instance>  (241) 
nan

>  <PDB_ID>  (241) 
nan

>  <Standardized_SMILES>  (241) 
N[C@H]1CCCN(c2ccncc2Nc2cccc3cnc(-c4cccc(-c5nccs5)c4)nc23)C1

>  <Name>  (241) 
nan

>  <Pocket>  (241) 
nan

>  <ATP_Site>  (241) 
nan

>  <Peripheral>  (241) 
nan

>  <Num_H_Atoms_ProtBoundConf>  (241) 
nan

>  <Num_Resolved_Atoms>  (241) 
nan

>  <Num_Not_Resolved_Atoms>  (241) 
nan

$$$$
CHEMBL429576
     RDKit          3D

  0  0  0  0  0  0  0  0  0  0999 V3000
M  V30 BEGIN CTAB
M  V30 COUNTS 66 71 0 0 0
M  V30 BEGIN ATOM
M  V30 1 N 5.447297 3.241012 6.709239 0
M  V30 2 C 4.685289 3.044665 5.855759 0
M  V30 3 C 3.717093 2.790014 4.803562 0
M  V30 4 C 3.624070 1.534684 4.243857 0
M  V30 5 C 2.704857 1.301701 3.249991 0
M  V30 6 C 2.648675 -0.041775 2.698406 0
M  V30 7 C 3.796492 -0.498394 2.039661 0
M  V30 8 C 3.808747 -1.780333 1.496036 0
M  V30 9 C 2.689320 -2.568280 1.620123 0
M  V30 10 C 1.547115 -2.146851 2.261327 0
M  V30 11 C 1.563613 -0.876857 2.788156 0
M  V30 12 C 1.886859 2.325191 2.824526 0
M  V30 13 C 0.903409 2.116940 1.769650 0
M  V30 14 C -0.479985 2.254153 1.951112 0
M  V30 15 C -1.363180 2.051576 0.910194 0
M  V30 16 C -0.923914 1.705372 -0.353957 0
M  V30 17 C -1.761988 1.461918 -1.554253 0
M  V30 18 N -2.151396 0.074393 -1.698687 0
M  V30 19 C -2.924923 -0.091415 -2.903189 0
M  V30 20 C -3.468071 -1.464447 -3.081971 0
M  V30 21 C -3.730578 -2.268916 -1.869433 0
M  V30 22 N -3.171764 -3.622009 -1.951841 0
M  V30 23 C -3.777578 -4.794693 -2.307043 0
M  V30 24 O -5.000122 -4.848577 -2.633132 0
M  V30 25 N -2.948849 -5.829994 -2.266608 0
M  V30 26 C -1.775029 -5.354938 -1.881532 0
M  V30 27 C -0.581604 -6.017314 -1.684547 0
M  V30 28 C 0.556574 -5.352568 -1.278508 0
M  V30 29 C 0.425038 -3.979938 -1.081426 0
M  V30 30 C -0.780907 -3.333643 -1.284180 0
M  V30 31 C -1.896849 -3.992252 -1.683266 0
M  V30 32 C -3.527805 -1.642243 -0.540785 0
M  V30 33 C -2.872390 -0.304155 -0.515062 0
M  V30 34 C 0.466914 1.584519 -0.466876 0
M  V30 35 C 1.406613 1.772586 0.531578 0
M  V30 36 N 1.990631 3.547599 3.382181 0
M  V30 37 C 2.890347 3.807275 4.366630 0
M  V30 38 N 2.944160 5.123517 4.910421 0
M  V30 39 H 4.287868 0.757844 4.611412 0
M  V30 40 H 4.668225 0.158795 1.961285 0
M  V30 41 H 4.733901 -2.045952 1.006339 0
M  V30 42 H 2.746088 -3.553140 1.183301 0
M  V30 43 H 0.675132 -2.764521 2.356846 0
M  V30 44 H 0.701318 -0.482177 3.304908 0
M  V30 45 H -0.824855 2.522424 2.931658 0
M  V30 46 H -2.422676 2.152611 1.032495 0
M  V30 47 H -1.119128 1.689519 -2.449079 0
M  V30 48 H -2.657688 2.127313 -1.541215 0
M  V30 49 H -3.778906 0.618378 -2.891610 0
M  V30 50 H -2.308236 0.178749 -3.781982 0
M  V30 51 H -2.691551 -2.032215 -3.680654 0
M  V30 52 H -4.325809 -1.393623 -3.801201 0
M  V30 53 H -4.850829 -2.476741 -1.923637 0
M  V30 54 H -3.217363 -6.817364 -2.502428 0
M  V30 55 H -0.438698 -7.090411 -1.828396 0
M  V30 56 H 1.524302 -5.798477 -1.104213 0
M  V30 57 H 1.290841 -3.386185 -0.758144 0
M  V30 58 H -0.814062 -2.290259 -1.116575 0
M  V30 59 H -3.018785 -2.350826 0.190347 0
M  V30 60 H -4.506088 -1.471492 0.018811 0
M  V30 61 H -2.126727 -0.300473 0.315531 0
M  V30 62 H -3.576088 0.527065 -0.284617 0
M  V30 63 H 0.854401 1.311718 -1.449695 0
M  V30 64 H 2.452518 1.645144 0.303286 0
M  V30 65 H 3.391875 6.039874 4.678604 0
M  V30 66 H 2.341621 5.022596 5.759745 0
M  V30 END ATOM
M  V30 BEGIN BOND
M  V30 1 3 1 2
M  V30 2 1 2 3
M  V30 3 2 3 4
M  V30 4 1 4 5
M  V30 5 1 5 6
M  V30 6 2 6 7
M  V30 7 1 7 8
M  V30 8 2 8 9
M  V30 9 1 9 10
M  V30 10 2 10 11
M  V30 11 2 5 12
M  V30 12 1 12 13
M  V30 13 2 13 14
M  V30 14 1 14 15
M  V30 15 2 15 16
M  V30 16 1 16 17
M  V30 17 1 17 18
M  V30 18 1 18 19
M  V30 19 1 19 20
M  V30 20 1 20 21
M  V30 21 1 21 22
M  V30 22 1 22 23
M  V30 23 2 23 24
M  V30 24 1 23 25
M  V30 25 1 25 26
M  V30 26 2 26 27
M  V30 27 1 27 28
M  V30 28 2 28 29
M  V30 29 1 29 30
M  V30 30 2 30 31
M  V30 31 1 21 32
M  V30 32 1 32 33
M  V30 33 1 16 34
M  V30 34 2 34 35
M  V30 35 1 12 36
M  V30 36 2 36 37
M  V30 37 1 37 38
M  V30 38 1 37 3
M  V30 39 1 11 6
M  V30 40 1 35 13
M  V30 41 1 33 18
M  V30 42 1 31 22
M  V30 43 1 31 26
M  V30 44 1 4 39
M  V30 45 1 7 40
M  V30 46 1 8 41
M  V30 47 1 9 42
M  V30 48 1 10 43
M  V30 49 1 11 44
M  V30 50 1 14 45
M  V30 51 1 15 46
M  V30 52 1 17 47
M  V30 53 1 17 48
M  V30 54 1 19 49
M  V30 55 1 19 50
M  V30 56 1 20 51
M  V30 57 1 20 52
M  V30 58 1 21 53
M  V30 59 1 25 54
M  V30 60 1 27 55
M  V30 61 1 28 56
M  V30 62 1 29 57
M  V30 63 1 30 58
M  V30 64 1 32 59
M  V30 65 1 32 60
M  V30 66 1 33 61
M  V30 67 1 33 62
M  V30 68 1 34 63
M  V30 69 1 35 64
M  V30 70 1 38 65
M  V30 71 1 38 66
M  V30 END BOND
M  V30 END CTAB
M  END
>  <Dataset>  (242) 
ChEMBL_Kinases

>  <Ligand_Instance>  (242) 
nan

>  <PDB_ID>  (242) 
nan

>  <Standardized_SMILES>  (242) 
N#Cc1cc(-c2ccccc2)c(-c2ccc(CN3CCC(n4c(=O)[nH]c5ccccc54)CC3)cc2)nc1N

>  <Name>  (242) 
nan

>  <Pocket>  (242) 
nan

>  <ATP_Site>  (242) 
nan

>  <Peripheral>  (242) 
nan

>  <Num_H_Atoms_ProtBoundConf>  (242) 
nan

>  <Num_Resolved_Atoms>  (242) 
nan

>  <Num_Not_Resolved_Atoms>  (242) 
nan

$$$$
CHEMBL272108
     RDKit          3D

  0  0  0  0  0  0  0  0  0  0999 V3000
M  V30 BEGIN CTAB
M  V30 COUNTS 55 59 0 0 0
M  V30 BEGIN ATOM
M  V30 1 C 5.225612 -2.047556 -0.778173 0
M  V30 2 C 4.550420 -0.711916 -1.100887 0
M  V30 3 C 5.532410 0.257237 -1.688059 0
M  V30 4 S 3.788561 -0.150650 0.384950 0
M  V30 5 O 2.953964 -1.254133 1.003708 0
M  V30 6 O 4.860238 0.147856 1.429828 0
M  V30 7 N 2.855090 1.243951 0.128651 0
M  V30 8 C 3.113164 2.492116 -0.282516 0
M  V30 9 N 4.409892 2.963181 -0.606668 0
M  V30 10 N 2.003794 3.259033 -0.341767 0
M  V30 11 C 0.934605 2.520738 0.041850 0
M  V30 12 C -0.413345 2.761829 0.176166 0
M  V30 13 C -1.255054 1.756939 0.604494 0
M  V30 14 C -0.686464 0.543226 0.879423 0
M  V30 15 C -1.596051 -0.505644 1.331001 0
M  V30 16 N -1.654229 -1.185834 2.490836 0
M  V30 17 C -2.662748 -2.067631 2.470779 0
M  V30 18 C -3.124642 -3.019822 3.472298 0
M  V30 19 C -4.202719 -3.850347 3.245967 0
M  V30 20 F -4.833461 -3.748099 2.031972 0
M  V30 21 C -4.671818 -4.765016 4.165180 0
M  V30 22 C -4.041280 -4.881430 5.405302 0
M  V30 23 C -2.964520 -4.047924 5.624008 0
M  V30 24 C -2.515274 -3.149073 4.701577 0
M  V30 25 F -1.463980 -2.406249 5.045245 0
M  V30 26 N -3.237038 -1.921043 1.262498 0
M  V30 27 C -2.617797 -0.976708 0.531578 0
M  V30 28 C -3.027519 -0.603967 -0.825593 0
M  V30 29 C -4.218510 -0.075108 -1.280818 0
M  V30 30 C -4.349101 0.188239 -2.624508 0
M  V30 31 C -3.336897 -0.056887 -3.524914 0
M  V30 32 C -2.157844 -0.578129 -3.088643 0
M  V30 33 C -1.996977 -0.855292 -1.731108 0
M  V30 34 N 0.634137 0.331330 0.740555 0
M  V30 35 C 1.499639 1.293786 0.321214 0
M  V30 36 H 5.127529 -2.731026 -1.647263 0
M  V30 37 H 6.249622 -1.825134 -0.476364 0
M  V30 38 H 4.684100 -2.489773 0.078892 0
M  V30 39 H 3.771502 -0.921329 -1.882480 0
M  V30 40 H 5.123963 0.985194 -2.386416 0
M  V30 41 H 6.259360 -0.370243 -2.278814 0
M  V30 42 H 6.104903 0.809265 -0.905345 0
M  V30 43 H 5.079907 2.935558 0.216744 0
M  V30 44 H 4.940474 3.348025 -1.441889 0
M  V30 45 H -0.763702 3.761008 -0.068290 0
M  V30 46 H -2.290084 2.022866 0.683478 0
M  V30 47 H -0.999624 -1.036129 3.283797 0
M  V30 48 H -5.540119 -5.388739 3.900024 0
M  V30 49 H -4.434865 -5.608427 6.102498 0
M  V30 50 H -2.503172 -4.175381 6.609192 0
M  V30 51 H -4.923469 0.069308 -0.488360 0
M  V30 52 H -5.318592 0.606707 -2.919585 0
M  V30 53 H -3.557933 0.191502 -4.555426 0
M  V30 54 H -1.385667 -0.756845 -3.827995 0
M  V30 55 H -1.013309 -1.268349 -1.504580 0
M  V30 END ATOM
M  V30 BEGIN BOND
M  V30 1 1 1 2
M  V30 2 1 2 3
M  V30 3 1 2 4
M  V30 4 2 4 5
M  V30 5 2 4 6
M  V30 6 1 4 7
M  V30 7 1 7 8
M  V30 8 1 8 9
M  V30 9 2 8 10
M  V30 10 1 10 11
M  V30 11 2 11 12
M  V30 12 1 12 13
M  V30 13 2 13 14
M  V30 14 1 14 15
M  V30 15 1 15 16
M  V30 16 1 16 17
M  V30 17 1 17 18
M  V30 18 2 18 19
M  V30 19 1 19 20
M  V30 20 1 19 21
M  V30 21 2 21 22
M  V30 22 1 22 23
M  V30 23 2 23 24
M  V30 24 1 24 25
M  V30 25 2 17 26
M  V30 26 1 26 27
M  V30 27 1 27 28
M  V30 28 2 28 29
M  V30 29 1 29 30
M  V30 30 2 30 31
M  V30 31 1 31 32
M  V30 32 2 32 33
M  V30 33 1 14 34
M  V30 34 2 34 35
M  V30 35 1 35 7
M  V30 36 1 35 11
M  V30 37 2 27 15
M  V30 38 1 33 28
M  V30 39 1 24 18
M  V30 40 1 1 36
M  V30 41 1 1 37
M  V30 42 1 1 38
M  V30 43 1 2 39
M  V30 44 1 3 40
M  V30 45 1 3 41
M  V30 46 1 3 42
M  V30 47 1 9 43
M  V30 48 1 9 44
M  V30 49 1 12 45
M  V30 50 1 13 46
M  V30 51 1 16 47
M  V30 52 1 21 48
M  V30 53 1 22 49
M  V30 54 1 23 50
M  V30 55 1 29 51
M  V30 56 1 30 52
M  V30 57 1 31 53
M  V30 58 1 32 54
M  V30 59 1 33 55
M  V30 END BOND
M  V30 END CTAB
M  END
>  <Dataset>  (243) 
ChEMBL_Kinases

>  <Ligand_Instance>  (243) 
nan

>  <PDB_ID>  (243) 
nan

>  <Standardized_SMILES>  (243) 
CC(C)S(=O)(=O)n1c(N)nc2ccc(-c3[nH]c(-c4c(F)cccc4F)nc3-c3ccccc3)nc21

>  <Name>  (243) 
nan

>  <Pocket>  (243) 
nan

>  <ATP_Site>  (243) 
nan

>  <Peripheral>  (243) 
nan

>  <Num_H_Atoms_ProtBoundConf>  (243) 
nan

>  <Num_Resolved_Atoms>  (243) 
nan

>  <Num_Not_Resolved_Atoms>  (243) 
nan

$$$$
CHEMBL3685750
     RDKit          3D

  0  0  0  0  0  0  0  0  0  0999 V3000
M  V30 BEGIN CTAB
M  V30 COUNTS 54 58 0 0 0
M  V30 BEGIN ATOM
M  V30 1 N 1.126782 -2.165975 4.516164 0
M  V30 2 C 1.436558 -0.931121 3.823176 0 CFG=1
M  V30 3 C 2.718002 -0.309091 4.384867 0
M  V30 4 C 2.811824 1.101511 3.846825 0
M  V30 5 C 1.912670 1.304228 2.647467 0
M  V30 6 N 1.941342 0.144707 1.763157 0
M  V30 7 C 2.159490 -0.109071 0.383009 0
M  V30 8 C 3.197225 -0.883552 -0.088408 0
M  V30 9 C 3.320984 -1.060752 -1.450363 0
M  V30 10 N 2.446448 -0.489563 -2.308074 0
M  V30 11 C 1.418348 0.277867 -1.836677 0
M  V30 12 C 1.249931 0.487756 -0.461371 0
M  V30 13 N 0.140622 1.293142 -0.212768 0
M  V30 14 C -1.087034 1.240276 0.466262 0
M  V30 15 C -1.492648 2.070883 1.489366 0
M  V30 16 C -2.720558 1.944853 2.101649 0
M  V30 17 C -3.595745 0.959862 1.695529 0
M  V30 18 C -3.192757 0.119593 0.664816 0
M  V30 19 C -4.127741 -0.835424 0.322083 0
M  V30 20 N -3.792210 -1.680199 -0.673056 0
M  V30 21 C -2.583535 -1.582666 -1.300595 0
M  V30 22 C -2.266017 -2.520369 -2.372860 0
M  V30 23 C -1.087376 -2.529140 -3.081932 0
M  V30 24 C -0.810278 -3.426689 -4.092479 0
M  V30 25 C -1.757034 -4.356681 -4.406007 0
M  V30 26 C -2.960644 -4.406467 -3.737281 0
M  V30 27 C -3.178853 -3.487205 -2.741208 0
M  V30 28 F -4.374651 -3.553189 -2.092204 0
M  V30 29 N -1.689917 -0.641686 -0.946496 0
M  V30 30 C -1.961615 0.241782 0.047051 0
M  V30 31 C 1.692542 -1.158317 2.353212 0
M  V30 32 H 0.424007 -2.661090 3.910422 0
M  V30 33 H 0.571230 -1.878512 5.376392 0
M  V30 34 H 0.634192 -0.185594 3.985243 0
M  V30 35 H 2.723315 -0.370342 5.484220 0
M  V30 36 H 3.552014 -0.892016 3.938914 0
M  V30 37 H 2.432712 1.773231 4.650148 0
M  V30 38 H 3.851395 1.402075 3.627001 0
M  V30 39 H 0.913247 1.567418 2.993177 0
M  V30 40 H 2.313515 2.155207 2.063415 0
M  V30 41 H 3.872677 -1.320700 0.635542 0
M  V30 42 H 4.129542 -1.666226 -1.847980 0
M  V30 43 H 0.791618 0.674345 -2.649153 0
M  V30 44 H 0.133078 2.255598 -0.620475 0
M  V30 45 H -0.800727 2.839499 1.800692 0
M  V30 46 H -3.027020 2.607070 2.907229 0
M  V30 47 H -4.562654 0.874294 2.190561 0
M  V30 48 H -5.089581 -0.947231 0.789263 0
M  V30 49 H -0.336729 -1.795124 -2.836264 0
M  V30 50 H 0.146293 -3.358912 -4.597601 0
M  V30 51 H -1.507112 -5.044739 -5.202915 0
M  V30 52 H -3.697173 -5.156014 -4.005602 0
M  V30 53 H 0.872894 -1.717743 1.862542 0
M  V30 54 H 2.656065 -1.737250 2.251073 0
M  V30 END ATOM
M  V30 BEGIN BOND
M  V30 1 1 1 2
M  V30 2 1 2 3
M  V30 3 1 3 4
M  V30 4 1 4 5
M  V30 5 1 5 6
M  V30 6 1 6 7
M  V30 7 2 7 8
M  V30 8 1 8 9
M  V30 9 2 9 10
M  V30 10 1 10 11
M  V30 11 2 11 12
M  V30 12 1 12 13
M  V30 13 1 13 14
M  V30 14 2 14 15
M  V30 15 1 15 16
M  V30 16 2 16 17
M  V30 17 1 17 18
M  V30 18 2 18 19
M  V30 19 1 19 20
M  V30 20 2 20 21
M  V30 21 1 21 22
M  V30 22 2 22 23
M  V30 23 1 23 24
M  V30 24 2 24 25
M  V30 25 1 25 26
M  V30 26 2 26 27
M  V30 27 1 27 28
M  V30 28 1 21 29
M  V30 29 2 29 30
M  V30 30 1 6 31
M  V30 31 1 31 2
M  V30 32 1 12 7
M  V30 33 1 30 14
M  V30 34 1 30 18
M  V30 35 1 27 22
M  V30 36 1 1 32
M  V30 37 1 1 33
M  V30 38 1 2 34 CFG=3
M  V30 39 1 3 35
M  V30 40 1 3 36
M  V30 41 1 4 37
M  V30 42 1 4 38
M  V30 43 1 5 39
M  V30 44 1 5 40
M  V30 45 1 8 41
M  V30 46 1 9 42
M  V30 47 1 11 43
M  V30 48 1 13 44
M  V30 49 1 15 45
M  V30 50 1 16 46
M  V30 51 1 17 47
M  V30 52 1 19 48
M  V30 53 1 23 49
M  V30 54 1 24 50
M  V30 55 1 25 51
M  V30 56 1 26 52
M  V30 57 1 31 53
M  V30 58 1 31 54
M  V30 END BOND
M  V30 END CTAB
M  END
>  <Dataset>  (244) 
ChEMBL_Kinases

>  <Ligand_Instance>  (244) 
nan

>  <PDB_ID>  (244) 
nan

>  <Standardized_SMILES>  (244) 
N[C@H]1CCCN(c2ccncc2Nc2cccc3cnc(-c4ccccc4F)nc23)C1

>  <Name>  (244) 
nan

>  <Pocket>  (244) 
nan

>  <ATP_Site>  (244) 
nan

>  <Peripheral>  (244) 
nan

>  <Num_H_Atoms_ProtBoundConf>  (244) 
nan

>  <Num_Resolved_Atoms>  (244) 
nan

>  <Num_Not_Resolved_Atoms>  (244) 
nan

$$$$
CHEMBL3685749
     RDKit          3D

  0  0  0  0  0  0  0  0  0  0999 V3000
M  V30 BEGIN CTAB
M  V30 COUNTS 54 58 0 0 0
M  V30 BEGIN ATOM
M  V30 1 N 0.642911 -2.432159 4.601388 0
M  V30 2 C 0.949370 -1.179025 3.995101 0 CFG=1
M  V30 3 C 2.113961 -0.510517 4.691768 0
M  V30 4 C 2.321795 0.901423 4.199129 0
M  V30 5 C 1.701539 1.131858 2.843637 0
M  V30 6 N 1.712656 -0.076148 2.039676 0
M  V30 7 C 2.057373 -0.303548 0.686304 0
M  V30 8 C 3.083766 -1.112724 0.245732 0
M  V30 9 C 3.310715 -1.235997 -1.109916 0
M  V30 10 N 2.553789 -0.583704 -2.040265 0
M  V30 11 C 1.544294 0.210480 -1.573155 0
M  V30 12 C 1.263289 0.376872 -0.210078 0
M  V30 13 N 0.177238 1.242002 -0.062456 0
M  V30 14 C -1.117783 1.281232 0.458014 0
M  V30 15 C -1.645383 2.098026 1.436108 0
M  V30 16 C -2.964909 1.974381 1.810555 0
M  V30 17 C -3.812727 1.047765 1.240873 0
M  V30 18 C -3.292961 0.231490 0.266137 0
M  V30 19 C -4.187256 -0.676409 -0.268220 0
M  V30 20 N -3.713572 -1.509051 -1.241292 0
M  V30 21 C -2.413643 -1.417532 -1.639011 0
M  V30 22 C -1.832191 -2.274110 -2.675334 0
M  V30 23 C -1.853896 -1.901190 -4.014787 0
M  V30 24 F -2.431869 -0.715416 -4.334764 0
M  V30 25 C -1.298756 -2.719565 -5.001334 0
M  V30 26 C -0.710564 -3.930937 -4.655141 0
M  V30 27 C -0.691973 -4.300274 -3.305851 0
M  V30 28 C -1.240842 -3.486484 -2.349099 0
M  V30 29 F -1.232154 -3.831631 -1.020421 0
M  V30 30 N -1.564278 -0.524794 -1.102418 0
M  V30 31 C -1.957140 0.329983 -0.138402 0
M  V30 32 C 1.338004 -1.380719 2.552538 0
M  V30 33 H -0.042832 -2.936806 3.964136 0
M  V30 34 H 0.182004 -2.363845 5.524705 0
M  V30 35 H 0.105044 -0.438442 4.071965 0
M  V30 36 H 3.024291 -1.143260 4.630817 0
M  V30 37 H 1.845140 -0.446921 5.766818 0
M  V30 38 H 3.415076 1.045447 4.086402 0
M  V30 39 H 1.974138 1.642935 4.944222 0
M  V30 40 H 0.641020 1.387471 3.031738 0
M  V30 41 H 2.215478 1.927301 2.280806 0
M  V30 42 H 3.673054 -1.621760 0.996383 0
M  V30 43 H 4.133744 -1.887386 -1.401925 0
M  V30 44 H 1.033356 0.660963 -2.431494 0
M  V30 45 H 0.261504 2.232359 -0.440600 0
M  V30 46 H -0.935980 2.803764 1.846238 0
M  V30 47 H -3.315821 2.644817 2.582861 0
M  V30 48 H -4.849995 0.985378 1.568317 0
M  V30 49 H -5.216122 -0.737063 0.057813 0
M  V30 50 H -1.360454 -2.346450 -6.031973 0
M  V30 51 H -0.286342 -4.547113 -5.446189 0
M  V30 52 H -0.231629 -5.244131 -3.051578 0
M  V30 53 H 2.279567 -1.993875 2.572103 0
M  V30 54 H 0.537914 -1.870412 1.962119 0
M  V30 END ATOM
M  V30 BEGIN BOND
M  V30 1 1 1 2
M  V30 2 1 2 3
M  V30 3 1 3 4
M  V30 4 1 4 5
M  V30 5 1 5 6
M  V30 6 1 6 7
M  V30 7 2 7 8
M  V30 8 1 8 9
M  V30 9 2 9 10
M  V30 10 1 10 11
M  V30 11 2 11 12
M  V30 12 1 12 13
M  V30 13 1 13 14
M  V30 14 2 14 15
M  V30 15 1 15 16
M  V30 16 2 16 17
M  V30 17 1 17 18
M  V30 18 2 18 19
M  V30 19 1 19 20
M  V30 20 2 20 21
M  V30 21 1 21 22
M  V30 22 2 22 23
M  V30 23 1 23 24
M  V30 24 1 23 25
M  V30 25 2 25 26
M  V30 26 1 26 27
M  V30 27 2 27 28
M  V30 28 1 28 29
M  V30 29 1 21 30
M  V30 30 2 30 31
M  V30 31 1 6 32
M  V30 32 1 32 2
M  V30 33 1 12 7
M  V30 34 1 31 14
M  V30 35 1 31 18
M  V30 36 1 28 22
M  V30 37 1 1 33
M  V30 38 1 1 34
M  V30 39 1 2 35 CFG=3
M  V30 40 1 3 36
M  V30 41 1 3 37
M  V30 42 1 4 38
M  V30 43 1 4 39
M  V30 44 1 5 40
M  V30 45 1 5 41
M  V30 46 1 8 42
M  V30 47 1 9 43
M  V30 48 1 11 44
M  V30 49 1 13 45
M  V30 50 1 15 46
M  V30 51 1 16 47
M  V30 52 1 17 48
M  V30 53 1 19 49
M  V30 54 1 25 50
M  V30 55 1 26 51
M  V30 56 1 27 52
M  V30 57 1 32 53
M  V30 58 1 32 54
M  V30 END BOND
M  V30 END CTAB
M  END
>  <Dataset>  (245) 
ChEMBL_Kinases

>  <Ligand_Instance>  (245) 
nan

>  <PDB_ID>  (245) 
nan

>  <Standardized_SMILES>  (245) 
N[C@H]1CCCN(c2ccncc2Nc2cccc3cnc(-c4c(F)cccc4F)nc23)C1

>  <Name>  (245) 
nan

>  <Pocket>  (245) 
nan

>  <ATP_Site>  (245) 
nan

>  <Peripheral>  (245) 
nan

>  <Num_H_Atoms_ProtBoundConf>  (245) 
nan

>  <Num_Resolved_Atoms>  (245) 
nan

>  <Num_Not_Resolved_Atoms>  (245) 
nan

$$$$
CHEMBL3685748
     RDKit          3D

  0  0  0  0  0  0  0  0  0  0999 V3000
M  V30 BEGIN CTAB
M  V30 COUNTS 50 54 0 0 0
M  V30 BEGIN ATOM
M  V30 1 N 0.051666 -0.779278 3.064415 0
M  V30 2 C 1.060132 -1.755970 2.766175 0
M  V30 3 C 2.099211 -1.767354 3.849944 0
M  V30 4 C 3.360910 -1.165087 3.233283 0
M  V30 5 C 2.922421 0.057405 2.460831 0
M  V30 6 N 2.383578 -0.375598 1.194747 0
M  V30 7 C 2.622987 0.360207 0.020215 0
M  V30 8 C 3.881053 0.957279 -0.051049 0
M  V30 9 C 4.267077 1.646545 -1.185070 0
M  V30 10 N 3.447110 1.768085 -2.261192 0
M  V30 11 C 2.230222 1.207911 -2.227545 0
M  V30 12 C 1.854147 0.525696 -1.096091 0
M  V30 13 N 0.560154 -0.023622 -1.111786 0
M  V30 14 C -0.378616 0.510999 -0.150818 0
M  V30 15 C -0.073749 1.512284 0.729674 0
M  V30 16 C -0.953901 2.022314 1.642459 0
M  V30 17 C -2.236582 1.512001 1.699072 0
M  V30 18 C -2.601715 0.503983 0.838653 0
M  V30 19 C -3.887114 0.021795 0.924999 0
M  V30 20 N -4.263468 -0.966081 0.090070 0
M  V30 21 C -3.353295 -1.444741 -0.804255 0
M  V30 22 C -3.881412 -2.509189 -1.648955 0
M  V30 23 N -4.913596 -2.745782 -2.199143 0
M  V30 24 C -5.137825 -3.826771 -2.933285 0
M  V30 25 C -4.123602 -4.786442 -3.104331 0
M  V30 26 S -2.760673 -3.966073 -2.074615 0
M  V30 27 N -2.093661 -0.959034 -0.875475 0
M  V30 28 C -1.685274 0.026817 -0.056961 0
M  V30 29 C 1.683030 -1.612608 1.403899 0
M  V30 30 H 0.069464 -0.474098 4.061596 0
M  V30 31 H -0.914844 -1.065287 2.793604 0
M  V30 32 H 0.580570 -2.770838 2.772110 0
M  V30 33 H 1.783830 -1.088300 4.653812 0
M  V30 34 H 2.286185 -2.765652 4.290681 0
M  V30 35 H 3.894778 -1.879909 2.578600 0
M  V30 36 H 4.050377 -0.806938 4.039293 0
M  V30 37 H 2.046466 0.493141 3.028752 0
M  V30 38 H 3.727733 0.811472 2.384545 0
M  V30 39 H 4.692404 0.995007 0.655064 0
M  V30 40 H 5.216651 2.154978 -1.365615 0
M  V30 41 H 1.573762 1.298143 -3.073688 0
M  V30 42 H 0.196637 -0.773517 -1.736821 0
M  V30 43 H 0.897090 1.947679 0.733813 0
M  V30 44 H -0.703049 2.808945 2.329203 0
M  V30 45 H -2.955507 1.899455 2.415039 0
M  V30 46 H -4.592103 0.412246 1.637737 0
M  V30 47 H -6.148280 -3.884354 -3.367996 0
M  V30 48 H -4.282069 -5.647072 -3.680876 0
M  V30 49 H 0.937661 -1.831829 0.624888 0
M  V30 50 H 2.464551 -2.424401 1.257657 0
M  V30 END ATOM
M  V30 BEGIN BOND
M  V30 1 1 1 2
M  V30 2 1 2 3
M  V30 3 1 3 4
M  V30 4 1 4 5
M  V30 5 1 5 6
M  V30 6 1 6 7
M  V30 7 2 7 8
M  V30 8 1 8 9
M  V30 9 2 9 10
M  V30 10 1 10 11
M  V30 11 2 11 12
M  V30 12 1 12 13
M  V30 13 1 13 14
M  V30 14 2 14 15
M  V30 15 1 15 16
M  V30 16 2 16 17
M  V30 17 1 17 18
M  V30 18 2 18 19
M  V30 19 1 19 20
M  V30 20 2 20 21
M  V30 21 1 21 22
M  V30 22 2 22 23
M  V30 23 1 23 24
M  V30 24 2 24 25
M  V30 25 1 25 26
M  V30 26 1 21 27
M  V30 27 2 27 28
M  V30 28 1 6 29
M  V30 29 1 29 2
M  V30 30 1 12 7
M  V30 31 1 28 14
M  V30 32 1 28 18
M  V30 33 1 26 22
M  V30 34 1 1 30
M  V30 35 1 1 31
M  V30 36 1 2 32
M  V30 37 1 3 33
M  V30 38 1 3 34
M  V30 39 1 4 35
M  V30 40 1 4 36
M  V30 41 1 5 37
M  V30 42 1 5 38
M  V30 43 1 8 39
M  V30 44 1 9 40
M  V30 45 1 11 41
M  V30 46 1 13 42
M  V30 47 1 15 43
M  V30 48 1 16 44
M  V30 49 1 17 45
M  V30 50 1 19 46
M  V30 51 1 24 47
M  V30 52 1 25 48
M  V30 53 1 29 49
M  V30 54 1 29 50
M  V30 END BOND
M  V30 END CTAB
M  END
>  <Dataset>  (246) 
ChEMBL_Kinases

>  <Ligand_Instance>  (246) 
nan

>  <PDB_ID>  (246) 
nan

>  <Standardized_SMILES>  (246) 
NC1CCCN(c2ccncc2Nc2cccc3cnc(-c4nccs4)nc23)C1

>  <Name>  (246) 
nan

>  <Pocket>  (246) 
nan

>  <ATP_Site>  (246) 
nan

>  <Peripheral>  (246) 
nan

>  <Num_H_Atoms_ProtBoundConf>  (246) 
nan

>  <Num_Resolved_Atoms>  (246) 
nan

>  <Num_Not_Resolved_Atoms>  (246) 
nan

$$$$
CHEMBL3685747
     RDKit          3D

  0  0  0  0  0  0  0  0  0  0999 V3000
M  V30 BEGIN CTAB
M  V30 COUNTS 57 61 0 0 0
M  V30 BEGIN ATOM
M  V30 1 C 1.500798 -2.612830 0.562420 0
M  V30 2 C 2.806206 -1.884455 0.436063 0 CFG=2
M  V30 3 C 3.264610 -1.337911 1.751943 0
M  V30 4 C 2.725320 0.030286 2.000377 0 CFG=2
M  V30 5 N 2.326402 0.267450 3.369692 0
M  V30 6 C 1.479113 0.300834 1.140154 0
M  V30 7 N 1.855010 0.234816 -0.257374 0
M  V30 8 C 1.599133 1.044359 -1.431933 0
M  V30 9 C 2.715822 1.651682 -1.958862 0
M  V30 10 C 2.609706 2.461154 -3.061306 0
M  V30 11 N 1.378458 2.641735 -3.610546 0
M  V30 12 C 0.314947 2.019804 -3.051422 0
M  V30 13 C 0.339642 1.200550 -1.956506 0
M  V30 14 N -0.771833 0.575655 -1.402514 0
M  V30 15 C -2.149613 0.461170 -1.561849 0
M  V30 16 C -2.924849 1.070114 -2.496728 0
M  V30 17 C -4.283184 0.961955 -2.665378 0
M  V30 18 C -4.916038 0.132149 -1.769186 0
M  V30 19 C -4.221745 -0.527645 -0.788642 0
M  V30 20 C -4.908553 -1.344151 0.078921 0
M  V30 21 N -4.218322 -1.991429 1.042905 0
M  V30 22 C -2.873378 -1.844282 1.159762 0
M  V30 23 C -2.155062 -2.556320 2.211068 0
M  V30 24 C -1.692745 -3.812374 1.858609 0
M  V30 25 F -1.888513 -4.357196 0.619011 0
M  V30 26 C -0.995861 -4.594662 2.760490 0
M  V30 27 C -0.763947 -4.096335 4.039232 0
M  V30 28 C -1.224631 -2.828634 4.411199 0
M  V30 29 C -1.917285 -2.075199 3.483705 0
M  V30 30 F -2.392801 -0.838068 3.775594 0
M  V30 31 N -2.258097 -1.037998 0.288967 0
M  V30 32 C -2.863357 -0.357285 -0.697829 0
M  V30 33 C 2.691747 -0.870006 -0.664711 0
M  V30 34 H 0.695435 -2.168368 -0.080083 0
M  V30 35 H 1.157303 -2.657239 1.615277 0
M  V30 36 H 1.626601 -3.673385 0.237559 0
M  V30 37 H 3.582830 -2.658686 0.137423 0
M  V30 38 H 3.007085 -1.994892 2.601339 0
M  V30 39 H 4.387325 -1.251303 1.772374 0
M  V30 40 H 3.462593 0.817875 1.715209 0
M  V30 41 H 2.017995 -0.588207 3.862978 0
M  V30 42 H 3.107661 0.782045 3.860101 0
M  V30 43 H 0.650223 -0.332440 1.439160 0
M  V30 44 H 1.185734 1.346360 1.437373 0
M  V30 45 H 3.687803 1.501068 -1.514833 0
M  V30 46 H 3.510872 2.911127 -3.432957 0
M  V30 47 H -0.518138 2.307162 -3.646994 0
M  V30 48 H -0.438925 0.003078 -0.606562 0
M  V30 49 H -2.532747 1.737970 -3.239992 0
M  V30 50 H -4.875534 1.456414 -3.416235 0
M  V30 51 H -5.980039 -0.018702 -1.818635 0
M  V30 52 H -5.978250 -1.455839 -0.020727 0
M  V30 53 H -0.623099 -5.589269 2.499738 0
M  V30 54 H -0.210356 -4.727231 4.743485 0
M  V30 55 H -1.036178 -2.463969 5.398327 0
M  V30 56 H 2.277566 -1.390079 -1.553430 0
M  V30 57 H 3.711152 -0.494170 -0.914133 0
M  V30 END ATOM
M  V30 BEGIN BOND
M  V30 1 1 1 2
M  V30 2 1 2 3
M  V30 3 1 3 4
M  V30 4 1 4 5
M  V30 5 1 4 6
M  V30 6 1 6 7
M  V30 7 1 7 8
M  V30 8 2 8 9
M  V30 9 1 9 10
M  V30 10 2 10 11
M  V30 11 1 11 12
M  V30 12 2 12 13
M  V30 13 1 13 14
M  V30 14 1 14 15
M  V30 15 2 15 16
M  V30 16 1 16 17
M  V30 17 2 17 18
M  V30 18 1 18 19
M  V30 19 2 19 20
M  V30 20 1 20 21
M  V30 21 2 21 22
M  V30 22 1 22 23
M  V30 23 2 23 24
M  V30 24 1 24 25
M  V30 25 1 24 26
M  V30 26 2 26 27
M  V30 27 1 27 28
M  V30 28 2 28 29
M  V30 29 1 29 30
M  V30 30 1 22 31
M  V30 31 2 31 32
M  V30 32 1 7 33
M  V30 33 1 33 2
M  V30 34 1 13 8
M  V30 35 1 32 15
M  V30 36 1 32 19
M  V30 37 1 29 23
M  V30 38 1 1 34
M  V30 39 1 1 35
M  V30 40 1 1 36
M  V30 41 1 2 37 CFG=3
M  V30 42 1 3 38
M  V30 43 1 3 39
M  V30 44 1 4 40 CFG=3
M  V30 45 1 5 41
M  V30 46 1 5 42
M  V30 47 1 6 43
M  V30 48 1 6 44
M  V30 49 1 9 45
M  V30 50 1 10 46
M  V30 51 1 12 47
M  V30 52 1 14 48
M  V30 53 1 16 49
M  V30 54 1 17 50
M  V30 55 1 18 51
M  V30 56 1 20 52
M  V30 57 1 26 53
M  V30 58 1 27 54
M  V30 59 1 28 55
M  V30 60 1 33 56
M  V30 61 1 33 57
M  V30 END BOND
M  V30 END CTAB
M  END
>  <Dataset>  (247) 
ChEMBL_Kinases

>  <Ligand_Instance>  (247) 
nan

>  <PDB_ID>  (247) 
nan

>  <Standardized_SMILES>  (247) 
C[C@@H]1C[C@H](N)CN(c2ccncc2Nc2cccc3cnc(-c4c(F)cccc4F)nc23)C1

>  <Name>  (247) 
nan

>  <Pocket>  (247) 
nan

>  <ATP_Site>  (247) 
nan

>  <Peripheral>  (247) 
nan

>  <Num_H_Atoms_ProtBoundConf>  (247) 
nan

>  <Num_Resolved_Atoms>  (247) 
nan

>  <Num_Not_Resolved_Atoms>  (247) 
nan

$$$$
CHEMBL272142
     RDKit          3D

  0  0  0  0  0  0  0  0  0  0999 V3000
M  V30 BEGIN CTAB
M  V30 COUNTS 56 60 0 0 0
M  V30 BEGIN ATOM
M  V30 1 C 5.699010 1.063116 2.427163 0
M  V30 2 C 4.849454 -0.087305 1.971645 0
M  V30 3 C 5.813579 -1.175078 1.462042 0
M  V30 4 S 3.788833 0.283663 0.622076 0
M  V30 5 O 4.671157 0.820171 -0.493204 0
M  V30 6 O 3.150869 -0.963031 0.062056 0
M  V30 7 N 2.586738 1.444307 0.943591 0
M  V30 8 C 2.712443 2.734138 1.299947 0
M  V30 9 N 3.914957 3.465058 1.487964 0
M  V30 10 N 1.511900 3.353885 1.480541 0
M  V30 11 C 0.535669 2.431510 1.232024 0
M  V30 12 C -0.821555 2.505002 1.263032 0
M  V30 13 C -1.583213 1.394991 0.961820 0
M  V30 14 C -0.953939 0.211835 0.629245 0
M  V30 15 C -1.731369 -0.991451 0.303163 0
M  V30 16 N -1.699332 -2.154844 0.964399 0
M  V30 17 C -2.507259 -3.084740 0.448344 0
M  V30 18 C -2.834580 -4.459443 0.771965 0
M  V30 19 C -3.738554 -5.174882 0.014289 0
M  V30 20 F -4.337972 -4.579228 -1.061958 0
M  V30 21 C -4.088913 -6.477744 0.270613 0
M  V30 22 C -3.532820 -7.151220 1.333877 0
M  V30 23 C -2.624395 -6.474734 2.118070 0
M  V30 24 C -2.302942 -5.167769 1.823052 0
M  V30 25 Cl -1.153446 -4.464245 2.897331 0
M  V30 26 N -3.074176 -2.458587 -0.596200 0
M  V30 27 C -2.633173 -1.200240 -0.715155 0
M  V30 28 C -3.018524 -0.214802 -1.721080 0
M  V30 29 C -4.390148 0.039323 -1.628717 0
M  V30 30 C -4.998418 0.955150 -2.494292 0
M  V30 31 C -4.247787 1.610722 -3.441924 0
M  V30 32 C -2.902442 1.323347 -3.489506 0
M  V30 33 C -2.268206 0.427673 -2.653838 0
M  V30 34 C 0.425328 0.206712 0.616904 0
M  V30 35 C 1.232743 1.277724 0.907163 0
M  V30 36 H 6.651868 0.701979 2.901038 0
M  V30 37 H 5.241831 1.709352 3.188421 0
M  V30 38 H 6.055497 1.692499 1.577868 0
M  V30 39 H 4.296029 -0.472557 2.864270 0
M  V30 40 H 5.360614 -1.732034 0.637775 0
M  V30 41 H 6.129769 -1.794019 2.325579 0
M  V30 42 H 6.717019 -0.666810 1.063172 0
M  V30 43 H 4.712646 3.735283 0.867784 0
M  V30 44 H 4.391030 3.962960 2.285619 0
M  V30 45 H -1.245781 3.464817 1.532564 0
M  V30 46 H -2.658791 1.479133 0.993644 0
M  V30 47 H -1.099442 -2.302057 1.794679 0
M  V30 48 H -4.802289 -6.977030 -0.363234 0
M  V30 49 H -3.830315 -8.174030 1.506020 0
M  V30 50 H -2.211983 -7.032768 2.938003 0
M  V30 51 H -5.110951 -0.406742 -0.926041 0
M  V30 52 H -6.066135 1.181755 -2.454486 0
M  V30 53 H -4.704777 2.320837 -4.117297 0
M  V30 54 H -2.271992 1.820898 -4.225797 0
M  V30 55 H -1.242408 0.159214 -2.634060 0
M  V30 56 H 0.862549 -0.745527 0.350879 0
M  V30 END ATOM
M  V30 BEGIN BOND
M  V30 1 1 1 2
M  V30 2 1 2 3
M  V30 3 1 2 4
M  V30 4 2 4 5
M  V30 5 2 4 6
M  V30 6 1 4 7
M  V30 7 1 7 8
M  V30 8 1 8 9
M  V30 9 2 8 10
M  V30 10 1 10 11
M  V30 11 2 11 12
M  V30 12 1 12 13
M  V30 13 2 13 14
M  V30 14 1 14 15
M  V30 15 1 15 16
M  V30 16 1 16 17
M  V30 17 1 17 18
M  V30 18 2 18 19
M  V30 19 1 19 20
M  V30 20 1 19 21
M  V30 21 2 21 22
M  V30 22 1 22 23
M  V30 23 2 23 24
M  V30 24 1 24 25
M  V30 25 2 17 26
M  V30 26 1 26 27
M  V30 27 1 27 28
M  V30 28 2 28 29
M  V30 29 1 29 30
M  V30 30 2 30 31
M  V30 31 1 31 32
M  V30 32 2 32 33
M  V30 33 1 14 34
M  V30 34 2 34 35
M  V30 35 1 35 7
M  V30 36 1 35 11
M  V30 37 2 27 15
M  V30 38 1 33 28
M  V30 39 1 24 18
M  V30 40 1 1 36
M  V30 41 1 1 37
M  V30 42 1 1 38
M  V30 43 1 2 39
M  V30 44 1 3 40
M  V30 45 1 3 41
M  V30 46 1 3 42
M  V30 47 1 9 43
M  V30 48 1 9 44
M  V30 49 1 12 45
M  V30 50 1 13 46
M  V30 51 1 16 47
M  V30 52 1 21 48
M  V30 53 1 22 49
M  V30 54 1 23 50
M  V30 55 1 29 51
M  V30 56 1 30 52
M  V30 57 1 31 53
M  V30 58 1 32 54
M  V30 59 1 33 55
M  V30 60 1 34 56
M  V30 END BOND
M  V30 END CTAB
M  END
>  <Dataset>  (248) 
ChEMBL_Kinases

>  <Ligand_Instance>  (248) 
nan

>  <PDB_ID>  (248) 
nan

>  <Standardized_SMILES>  (248) 
CC(C)S(=O)(=O)n1c(N)nc2ccc(-c3[nH]c(-c4c(F)cccc4Cl)nc3-c3ccccc3)cc21

>  <Name>  (248) 
nan

>  <Pocket>  (248) 
nan

>  <ATP_Site>  (248) 
nan

>  <Peripheral>  (248) 
nan

>  <Num_H_Atoms_ProtBoundConf>  (248) 
nan

>  <Num_Resolved_Atoms>  (248) 
nan

>  <Num_Not_Resolved_Atoms>  (248) 
nan

$$$$
CHEMBL3685746
     RDKit          3D

  0  0  0  0  0  0  0  0  0  0999 V3000
M  V30 BEGIN CTAB
M  V30 COUNTS 57 61 0 0 0
M  V30 BEGIN ATOM
M  V30 1 C 3.923880 -2.723511 0.669978 0
M  V30 2 C 2.855355 -1.713713 0.944620 0 CFG=1
M  V30 3 C 3.183623 -0.830764 2.128004 0
M  V30 4 C 2.002317 0.031606 2.518783 0 CFG=1
M  V30 5 N 2.457713 1.337565 2.922381 0
M  V30 6 C 0.968818 0.069841 1.408388 0
M  V30 7 N 1.622135 0.150309 0.107146 0
M  V30 8 C 1.473831 1.120376 -0.932852 0
M  V30 9 C 2.625477 1.817111 -1.211225 0
M  V30 10 C 2.610589 2.784200 -2.184354 0
M  V30 11 N 1.472779 3.032421 -2.846722 0
M  V30 12 C 0.381068 2.316845 -2.528052 0
M  V30 13 C 0.276272 1.332184 -1.580816 0
M  V30 14 N -0.864093 0.600583 -1.257377 0
M  V30 15 C -2.206198 0.485320 -1.600327 0
M  V30 16 C -2.901119 1.211822 -2.522761 0
M  V30 17 C -4.225493 1.096940 -2.865485 0
M  V30 18 C -4.913195 0.122662 -2.180047 0
M  V30 19 C -4.312448 -0.663478 -1.233286 0
M  V30 20 C -5.065090 -1.615832 -0.591428 0
M  V30 21 N -4.451089 -2.376341 0.334553 0
M  V30 22 C -3.152301 -2.232368 0.640846 0
M  V30 23 C -2.474100 -3.055545 1.646807 0
M  V30 24 C -1.851544 -4.247214 1.326013 0
M  V30 25 F -1.858028 -4.690797 0.030267 0
M  V30 26 C -1.215886 -5.012124 2.286925 0
M  V30 27 C -1.208414 -4.565669 3.597224 0
M  V30 28 C -1.833377 -3.364256 3.934103 0
M  V30 29 C -2.472237 -2.599902 2.955725 0
M  V30 30 F -3.089384 -1.427988 3.247477 0
M  V30 31 N -2.469763 -1.289666 -0.015617 0
M  V30 32 C -2.981681 -0.478991 -0.954223 0
M  V30 33 C 2.587882 -0.862447 -0.273180 0
M  V30 34 H 4.085713 -3.295009 1.607736 0
M  V30 35 H 4.844226 -2.236346 0.305294 0
M  V30 36 H 3.516752 -3.444904 -0.082517 0
M  V30 37 H 1.897343 -2.264678 1.141353 0
M  V30 38 H 3.537755 -1.475259 2.957726 0
M  V30 39 H 4.025945 -0.160489 1.861424 0
M  V30 40 H 1.525678 -0.448079 3.394059 0
M  V30 41 H 3.419339 1.343100 3.278456 0
M  V30 42 H 2.171086 2.111994 2.312861 0
M  V30 43 H 0.400369 -0.858237 1.488102 0
M  V30 44 H 0.385624 1.000107 1.533258 0
M  V30 45 H 3.538787 1.640343 -0.701899 0
M  V30 46 H 3.521844 3.323068 -2.391914 0
M  V30 47 H -0.414959 2.652192 -3.157380 0
M  V30 48 H -0.602822 -0.081841 -0.510912 0
M  V30 49 H -2.444237 1.989330 -3.097451 0
M  V30 50 H -4.739754 1.692541 -3.602420 0
M  V30 51 H -5.961419 -0.039866 -2.383710 0
M  V30 52 H -6.105315 -1.735771 -0.832288 0
M  V30 53 H -0.741244 -5.945479 1.971121 0
M  V30 54 H -0.709887 -5.162191 4.360747 0
M  V30 55 H -1.820603 -3.024155 4.968347 0
M  V30 56 H 2.249541 -1.463652 -1.135151 0
M  V30 57 H 3.585952 -0.389649 -0.515239 0
M  V30 END ATOM
M  V30 BEGIN BOND
M  V30 1 1 1 2
M  V30 2 1 2 3
M  V30 3 1 3 4
M  V30 4 1 4 5
M  V30 5 1 4 6
M  V30 6 1 6 7
M  V30 7 1 7 8
M  V30 8 2 8 9
M  V30 9 1 9 10
M  V30 10 2 10 11
M  V30 11 1 11 12
M  V30 12 2 12 13
M  V30 13 1 13 14
M  V30 14 1 14 15
M  V30 15 2 15 16
M  V30 16 1 16 17
M  V30 17 2 17 18
M  V30 18 1 18 19
M  V30 19 2 19 20
M  V30 20 1 20 21
M  V30 21 2 21 22
M  V30 22 1 22 23
M  V30 23 2 23 24
M  V30 24 1 24 25
M  V30 25 1 24 26
M  V30 26 2 26 27
M  V30 27 1 27 28
M  V30 28 2 28 29
M  V30 29 1 29 30
M  V30 30 1 22 31
M  V30 31 2 31 32
M  V30 32 1 7 33
M  V30 33 1 33 2
M  V30 34 1 13 8
M  V30 35 1 32 15
M  V30 36 1 32 19
M  V30 37 1 29 23
M  V30 38 1 1 34
M  V30 39 1 1 35
M  V30 40 1 1 36
M  V30 41 1 2 37 CFG=1
M  V30 42 1 3 38
M  V30 43 1 3 39
M  V30 44 1 4 40 CFG=1
M  V30 45 1 5 41
M  V30 46 1 5 42
M  V30 47 1 6 43
M  V30 48 1 6 44
M  V30 49 1 9 45
M  V30 50 1 10 46
M  V30 51 1 12 47
M  V30 52 1 14 48
M  V30 53 1 16 49
M  V30 54 1 17 50
M  V30 55 1 18 51
M  V30 56 1 20 52
M  V30 57 1 26 53
M  V30 58 1 27 54
M  V30 59 1 28 55
M  V30 60 1 33 56
M  V30 61 1 33 57
M  V30 END BOND
M  V30 END CTAB
M  END
>  <Dataset>  (249) 
ChEMBL_Kinases

>  <Ligand_Instance>  (249) 
nan

>  <PDB_ID>  (249) 
nan

>  <Standardized_SMILES>  (249) 
C[C@H]1C[C@@H](N)CN(c2ccncc2Nc2cccc3cnc(-c4c(F)cccc4F)nc23)C1

>  <Name>  (249) 
nan

>  <Pocket>  (249) 
nan

>  <ATP_Site>  (249) 
nan

>  <Peripheral>  (249) 
nan

>  <Num_H_Atoms_ProtBoundConf>  (249) 
nan

>  <Num_Resolved_Atoms>  (249) 
nan

>  <Num_Not_Resolved_Atoms>  (249) 
nan

$$$$
CHEMBL271715
     RDKit          3D

  0  0  0  0  0  0  0  0  0  0999 V3000
M  V30 BEGIN CTAB
M  V30 COUNTS 67 72 0 0 0
M  V30 BEGIN ATOM
M  V30 1 O 5.892928 0.612091 3.575365 0
M  V30 2 C 4.918551 -0.161888 3.391978 0
M  V30 3 N 4.760247 -1.568081 3.678085 0
M  V30 4 C 3.459977 -1.965949 3.276704 0
M  V30 5 O 3.237480 -3.162147 3.486342 0
M  V30 6 C 2.745209 -0.848353 2.726377 0
M  V30 7 C 3.620154 0.210539 2.801273 0
M  V30 8 C 3.229532 1.473032 2.339725 0
M  V30 9 C 4.119520 2.626133 2.397150 0
M  V30 10 C 4.898082 2.768758 1.255188 0
M  V30 11 C 5.793097 3.800230 1.136536 0
M  V30 12 C 5.928421 4.722201 2.173002 0
M  V30 13 C 5.143245 4.574338 3.319123 0
M  V30 14 C 4.245165 3.531715 3.427696 0
M  V30 15 Cl 3.216816 3.257770 4.818266 0
M  V30 16 C 1.963845 1.624211 1.816168 0
M  V30 17 C 1.130112 0.522028 1.767788 0
M  V30 18 C 1.502225 -0.718443 2.216791 0
M  V30 19 C 0.495253 -1.603262 2.048234 0
M  V30 20 C 0.210803 -2.920421 2.263927 0
M  V30 21 C -1.006161 -3.477275 1.933598 0
M  V30 22 O -1.165214 -4.831132 2.206543 0
M  V30 23 C -2.028672 -2.708090 1.350791 0
M  V30 24 O -3.149749 -3.430370 1.096508 0
M  V30 25 C -4.360265 -3.058842 0.523343 0
M  V30 26 C -4.318432 -2.565292 -0.879822 0
M  V30 27 C -3.747520 -3.648181 -1.770467 0
M  V30 28 N -3.669456 -3.253695 -3.159242 0
M  V30 29 C -3.126976 -4.315884 -3.927837 0
M  V30 30 C -2.923279 -3.830948 -5.348632 0
M  V30 31 O -1.973785 -2.828199 -5.280336 0
M  V30 32 C -2.419170 -1.699827 -4.619019 0
M  V30 33 C -3.137896 -1.962394 -3.344225 0
M  V30 34 C -1.725642 -1.382914 1.140655 0
M  V30 35 C -0.505550 -0.848578 1.477552 0
M  V30 36 N -0.125677 0.441789 1.305134 0
M  V30 37 C -0.895356 1.533246 0.740144 0
M  V30 38 C -1.663812 2.228426 1.872732 0
M  V30 39 O -2.529670 1.350217 2.513178 0
M  V30 40 H 5.587805 -2.036617 4.111608 0
M  V30 41 H 4.871947 2.105669 0.387381 0
M  V30 42 H 6.423993 3.956237 0.266808 0
M  V30 43 H 6.625214 5.548953 2.113285 0
M  V30 44 H 5.212323 5.274286 4.163845 0
M  V30 45 H 1.651431 2.594214 1.456825 0
M  V30 46 H 0.951725 -3.537876 2.701076 0
M  V30 47 H -1.677702 -5.193031 2.997810 0
M  V30 48 H -4.778038 -2.240713 1.187218 0
M  V30 49 H -5.102151 -3.908690 0.557838 0
M  V30 50 H -3.879918 -1.585049 -0.996584 0
M  V30 51 H -5.397762 -2.445882 -1.210100 0
M  V30 52 H -4.457975 -4.510497 -1.713492 0
M  V30 53 H -2.775929 -4.041632 -1.395388 0
M  V30 54 H -3.839976 -5.156415 -3.983738 0
M  V30 55 H -2.122177 -4.658031 -3.580166 0
M  V30 56 H -3.851031 -3.384517 -5.759829 0
M  V30 57 H -2.487984 -4.630034 -5.989842 0
M  V30 58 H -1.538420 -1.040961 -4.464556 0
M  V30 59 H -3.077226 -1.146706 -5.339438 0
M  V30 60 H -3.944012 -1.209454 -3.205128 0
M  V30 61 H -2.415162 -1.776953 -2.501637 0
M  V30 62 H -2.500726 -0.809457 0.710009 0
M  V30 63 H -1.580172 1.226351 -0.061801 0
M  V30 64 H -0.177354 2.289619 0.354350 0
M  V30 65 H -0.956437 2.656422 2.611080 0
M  V30 66 H -2.203981 3.107534 1.446868 0
M  V30 67 H -2.587924 1.566458 3.494158 0
M  V30 END ATOM
M  V30 BEGIN BOND
M  V30 1 2 1 2
M  V30 2 1 2 3
M  V30 3 1 3 4
M  V30 4 2 4 5
M  V30 5 1 4 6
M  V30 6 2 6 7
M  V30 7 1 7 8
M  V30 8 1 8 9
M  V30 9 2 9 10
M  V30 10 1 10 11
M  V30 11 2 11 12
M  V30 12 1 12 13
M  V30 13 2 13 14
M  V30 14 1 14 15
M  V30 15 2 8 16
M  V30 16 1 16 17
M  V30 17 2 17 18
M  V30 18 1 18 19
M  V30 19 2 19 20
M  V30 20 1 20 21
M  V30 21 1 21 22
M  V30 22 2 21 23
M  V30 23 1 23 24
M  V30 24 1 24 25
M  V30 25 1 25 26
M  V30 26 1 26 27
M  V30 27 1 27 28
M  V30 28 1 28 29
M  V30 29 1 29 30
M  V30 30 1 30 31
M  V30 31 1 31 32
M  V30 32 1 32 33
M  V30 33 1 23 34
M  V30 34 2 34 35
M  V30 35 1 35 36
M  V30 36 1 36 37
M  V30 37 1 37 38
M  V30 38 1 38 39
M  V30 39 1 7 2
M  V30 40 1 14 9
M  V30 41 1 36 17
M  V30 42 1 18 6
M  V30 43 1 35 19
M  V30 44 1 33 28
M  V30 45 1 3 40
M  V30 46 1 10 41
M  V30 47 1 11 42
M  V30 48 1 12 43
M  V30 49 1 13 44
M  V30 50 1 16 45
M  V30 51 1 20 46
M  V30 52 1 22 47
M  V30 53 1 25 48
M  V30 54 1 25 49
M  V30 55 1 26 50
M  V30 56 1 26 51
M  V30 57 1 27 52
M  V30 58 1 27 53
M  V30 59 1 29 54
M  V30 60 1 29 55
M  V30 61 1 30 56
M  V30 62 1 30 57
M  V30 63 1 32 58
M  V30 64 1 32 59
M  V30 65 1 33 60
M  V30 66 1 33 61
M  V30 67 1 34 62
M  V30 68 1 37 63
M  V30 69 1 37 64
M  V30 70 1 38 65
M  V30 71 1 38 66
M  V30 72 1 39 67
M  V30 END BOND
M  V30 END CTAB
M  END
>  <Dataset>  (250) 
ChEMBL_Kinases

>  <Ligand_Instance>  (250) 
nan

>  <PDB_ID>  (250) 
nan

>  <Standardized_SMILES>  (250) 
O=C1NC(=O)c2c1c(-c1ccccc1Cl)cc1c2c2cc(O)c(OCCCN3CCOCC3)cc2n1CCO

>  <Name>  (250) 
nan

>  <Pocket>  (250) 
nan

>  <ATP_Site>  (250) 
nan

>  <Peripheral>  (250) 
nan

>  <Num_H_Atoms_ProtBoundConf>  (250) 
nan

>  <Num_Resolved_Atoms>  (250) 
nan

>  <Num_Not_Resolved_Atoms>  (250) 
nan

$$$$
CHEMBL270388
     RDKit          3D

  0  0  0  0  0  0  0  0  0  0999 V3000
M  V30 BEGIN CTAB
M  V30 COUNTS 64 69 0 0 0
M  V30 BEGIN ATOM
M  V30 1 N 6.473813 2.420945 5.778294 0
M  V30 2 C 5.477088 2.400067 5.172812 0
M  V30 3 C 4.249292 2.399035 4.430770 0
M  V30 4 C 4.077257 1.512299 3.369457 0
M  V30 5 C 2.897993 1.536225 2.683839 0
M  V30 6 C 2.786528 0.584356 1.587890 0
M  V30 7 C 3.686924 0.664374 0.520668 0
M  V30 8 C 3.607003 -0.228000 -0.539377 0
M  V30 9 C 2.641983 -1.223753 -0.582589 0
M  V30 10 C 1.748174 -1.297009 0.484857 0
M  V30 11 C 1.822967 -0.415377 1.537593 0
M  V30 12 C 1.842425 2.399671 2.979414 0
M  V30 13 C 0.648182 2.301594 2.154272 0
M  V30 14 C -0.501463 1.955355 2.847694 0
M  V30 15 C -1.721640 1.819308 2.207109 0
M  V30 16 C -1.803284 2.031979 0.845040 0
M  V30 17 C -2.976266 1.941451 -0.025003 0
M  V30 18 N -3.225364 0.660907 -0.613182 0
M  V30 19 C -2.136731 0.189671 -1.442804 0
M  V30 20 C -2.674794 -0.953257 -2.270593 0
M  V30 21 C -3.071538 -2.115946 -1.397182 0
M  V30 22 N -2.359805 -3.275157 -1.802846 0
M  V30 23 C -2.409851 -3.541164 -3.135448 0
M  V30 24 O -2.965067 -2.974244 -4.140258 0
M  V30 25 N -1.700440 -4.657385 -3.383220 0
M  V30 26 C -1.166476 -5.162984 -2.257235 0
M  V30 27 C -0.385707 -6.219622 -1.843184 0
M  V30 28 C -0.030809 -6.414250 -0.525840 0
M  V30 29 C -0.498994 -5.488065 0.382836 0
M  V30 30 C -1.281068 -4.417113 0.017046 0
M  V30 31 C -1.606896 -4.267221 -1.308186 0
M  V30 32 C -2.925050 -1.688559 0.019788 0
M  V30 33 C -3.689065 -0.363773 0.269481 0
M  V30 34 C -0.640295 2.382020 0.145596 0
M  V30 35 C 0.575045 2.514274 0.803074 0
M  V30 36 N 2.034400 3.259110 4.023258 0
M  V30 37 C 3.186416 3.261379 4.720715 0
M  V30 38 Cl 3.377577 4.385268 6.049597 0
M  V30 39 H 4.880863 0.835319 3.123264 0
M  V30 40 H 4.465486 1.412461 0.483533 0
M  V30 41 H 4.270262 -0.220263 -1.392183 0
M  V30 42 H 2.566668 -1.926203 -1.400901 0
M  V30 43 H 0.985350 -2.077603 0.459087 0
M  V30 44 H 1.118949 -0.503205 2.338990 0
M  V30 45 H -0.561801 1.764351 3.912149 0
M  V30 46 H -2.639853 1.557653 2.675399 0
M  V30 47 H -3.868814 2.155197 0.629861 0
M  V30 48 H -3.013532 2.731438 -0.801660 0
M  V30 49 H -1.837952 0.974452 -2.193077 0
M  V30 50 H -1.232777 -0.043998 -0.878305 0
M  V30 51 H -1.910103 -1.234183 -3.026063 0
M  V30 52 H -3.578678 -0.578527 -2.782333 0
M  V30 53 H -4.167400 -2.343980 -1.621748 0
M  V30 54 H -1.519532 -5.159149 -4.299028 0
M  V30 55 H -0.061073 -6.898714 -2.618557 0
M  V30 56 H 0.585029 -7.252953 -0.220310 0
M  V30 57 H -0.221911 -5.634069 1.435657 0
M  V30 58 H -1.596677 -3.755045 0.800986 0
M  V30 59 H -3.494240 -2.396320 0.658486 0
M  V30 60 H -1.900088 -1.501757 0.342362 0
M  V30 61 H -3.614813 -0.172900 1.334346 0
M  V30 62 H -4.746365 -0.594368 0.026347 0
M  V30 63 H -0.555928 2.578869 -0.924724 0
M  V30 64 H 1.496934 2.781707 0.307987 0
M  V30 END ATOM
M  V30 BEGIN BOND
M  V30 1 3 1 2
M  V30 2 1 2 3
M  V30 3 2 3 4
M  V30 4 1 4 5
M  V30 5 1 5 6
M  V30 6 2 6 7
M  V30 7 1 7 8
M  V30 8 2 8 9
M  V30 9 1 9 10
M  V30 10 2 10 11
M  V30 11 2 5 12
M  V30 12 1 12 13
M  V30 13 2 13 14
M  V30 14 1 14 15
M  V30 15 2 15 16
M  V30 16 1 16 17
M  V30 17 1 17 18
M  V30 18 1 18 19
M  V30 19 1 19 20
M  V30 20 1 20 21
M  V30 21 1 21 22
M  V30 22 1 22 23
M  V30 23 2 23 24
M  V30 24 1 23 25
M  V30 25 1 25 26
M  V30 26 2 26 27
M  V30 27 1 27 28
M  V30 28 2 28 29
M  V30 29 1 29 30
M  V30 30 2 30 31
M  V30 31 1 21 32
M  V30 32 1 32 33
M  V30 33 1 16 34
M  V30 34 2 34 35
M  V30 35 1 12 36
M  V30 36 2 36 37
M  V30 37 1 37 38
M  V30 38 1 37 3
M  V30 39 1 11 6
M  V30 40 1 35 13
M  V30 41 1 33 18
M  V30 42 1 31 22
M  V30 43 1 31 26
M  V30 44 1 4 39
M  V30 45 1 7 40
M  V30 46 1 8 41
M  V30 47 1 9 42
M  V30 48 1 10 43
M  V30 49 1 11 44
M  V30 50 1 14 45
M  V30 51 1 15 46
M  V30 52 1 17 47
M  V30 53 1 17 48
M  V30 54 1 19 49
M  V30 55 1 19 50
M  V30 56 1 20 51
M  V30 57 1 20 52
M  V30 58 1 21 53
M  V30 59 1 25 54
M  V30 60 1 27 55
M  V30 61 1 28 56
M  V30 62 1 29 57
M  V30 63 1 30 58
M  V30 64 1 32 59
M  V30 65 1 32 60
M  V30 66 1 33 61
M  V30 67 1 33 62
M  V30 68 1 34 63
M  V30 69 1 35 64
M  V30 END BOND
M  V30 END CTAB
M  END
>  <Dataset>  (251) 
ChEMBL_Kinases

>  <Ligand_Instance>  (251) 
nan

>  <PDB_ID>  (251) 
nan

>  <Standardized_SMILES>  (251) 
N#Cc1cc(-c2ccccc2)c(-c2ccc(CN3CCC(n4c(=O)[nH]c5ccccc54)CC3)cc2)nc1Cl

>  <Name>  (251) 
nan

>  <Pocket>  (251) 
nan

>  <ATP_Site>  (251) 
nan

>  <Peripheral>  (251) 
nan

>  <Num_H_Atoms_ProtBoundConf>  (251) 
nan

>  <Num_Resolved_Atoms>  (251) 
nan

>  <Num_Not_Resolved_Atoms>  (251) 
nan

$$$$
CHEMBL3687423
     RDKit          3D

  0  0  0  0  0  0  0  0  0  0999 V3000
M  V30 BEGIN CTAB
M  V30 COUNTS 63 66 0 0 0
M  V30 BEGIN ATOM
M  V30 1 C 3.307644 -3.432098 6.090377 0
M  V30 2 O 2.496285 -2.655424 5.193758 0
M  V30 3 C 3.048632 -2.090674 4.046024 0
M  V30 4 O 4.254330 -2.204465 3.699785 0
M  V30 5 N 2.142224 -1.340554 3.236916 0
M  V30 6 C 2.517757 -0.667370 1.989897 0 CFG=2
M  V30 7 C 2.341884 0.805402 2.083762 0 CFG=2
M  V30 8 N 1.104619 1.218077 2.730427 0
M  V30 9 C 2.475509 1.573124 0.802543 0
M  V30 10 C 1.953626 0.876222 -0.416240 0 CFG=2
M  V30 11 C 1.344002 1.690592 -1.432749 0
M  V30 12 C 2.197221 2.386471 -2.306665 0
M  V30 13 C 1.871068 3.220444 -3.341438 0
M  V30 14 N 0.553857 3.392665 -3.543920 0
M  V30 15 C -0.369896 2.771051 -2.763208 0
M  V30 16 C 0.040126 1.932422 -1.721598 0
M  V30 17 N -1.062960 1.390247 -1.057014 0
M  V30 18 C -2.000149 1.601881 -0.009568 0
M  V30 19 O -1.931434 2.654166 0.688359 0
M  V30 20 C -3.018662 0.553076 0.201468 0
M  V30 21 C -3.914639 0.823051 1.216440 0
M  V30 22 C -4.883588 -0.155013 1.411824 0
M  V30 23 C -4.940697 -1.297649 0.652173 0
M  V30 24 F -5.840968 -2.306670 0.764693 0
M  V30 25 C -4.019820 -1.514575 -0.349093 0
M  V30 26 C -3.857937 -2.621955 -1.283342 0
M  V30 27 C -3.102116 -3.749519 -0.948960 0
M  V30 28 F -2.512587 -3.827062 0.261567 0
M  V30 29 C -2.948163 -4.797355 -1.867463 0
M  V30 30 C -3.538852 -4.739320 -3.116331 0
M  V30 31 C -4.294516 -3.639190 -3.479361 0
M  V30 32 C -4.422830 -2.628450 -2.550655 0
M  V30 33 F -5.153723 -1.510433 -2.844143 0
M  V30 34 N -3.075666 -0.570883 -0.544860 0
M  V30 35 C 1.043483 -0.265483 0.003675 0
M  V30 36 C 1.856284 -1.282258 0.809649 0 CFG=2
M  V30 37 C 0.975720 -2.452009 1.086698 0
M  V30 38 H 3.588550 -4.406635 5.663550 0
M  V30 39 H 4.158352 -2.842651 6.477791 0
M  V30 40 H 2.627830 -3.641771 6.948534 0
M  V30 41 H 1.124127 -1.225116 3.506182 0
M  V30 42 H 3.629754 -0.864917 1.903666 0
M  V30 43 H 3.145904 1.238878 2.770416 0
M  V30 44 H 1.133567 1.025148 3.757177 0
M  V30 45 H 0.848791 2.197268 2.480733 0
M  V30 46 H 3.561666 1.867976 0.645508 0
M  V30 47 H 1.972589 2.564519 0.953740 0
M  V30 48 H 2.877311 0.407949 -0.900148 0
M  V30 49 H 3.287526 2.269210 -2.172125 0
M  V30 50 H 2.592111 3.706001 -3.958691 0
M  V30 51 H -1.381610 3.005981 -3.042017 0
M  V30 52 H -1.160923 0.485815 -1.616633 0
M  V30 53 H -3.859346 1.714449 1.799870 0
M  V30 54 H -5.635693 -0.046850 2.175017 0
M  V30 55 H -2.369329 -5.688066 -1.644641 0
M  V30 56 H -3.404784 -5.569651 -3.818520 0
M  V30 57 H -4.780493 -3.553719 -4.462366 0
M  V30 58 H 0.235470 0.046602 0.681594 0
M  V30 59 H 0.704551 -0.789912 -0.902718 0
M  V30 60 H 2.640465 -1.636614 0.091385 0
M  V30 61 H 0.226683 -2.523695 0.262473 0
M  V30 62 H 1.555687 -3.413272 1.010335 0
M  V30 63 H 0.390711 -2.399978 2.016750 0
M  V30 END ATOM
M  V30 BEGIN BOND
M  V30 1 1 1 2
M  V30 2 1 2 3
M  V30 3 2 3 4
M  V30 4 1 3 5
M  V30 5 1 5 6
M  V30 6 1 6 7
M  V30 7 1 7 8
M  V30 8 1 7 9
M  V30 9 1 9 10
M  V30 10 1 10 11
M  V30 11 2 11 12
M  V30 12 1 12 13
M  V30 13 2 13 14
M  V30 14 1 14 15
M  V30 15 2 15 16
M  V30 16 1 16 17
M  V30 17 1 17 18
M  V30 18 2 18 19
M  V30 19 1 18 20
M  V30 20 2 20 21
M  V30 21 1 21 22
M  V30 22 2 22 23
M  V30 23 1 23 24
M  V30 24 1 23 25
M  V30 25 1 25 26
M  V30 26 2 26 27
M  V30 27 1 27 28
M  V30 28 1 27 29
M  V30 29 2 29 30
M  V30 30 1 30 31
M  V30 31 2 31 32
M  V30 32 1 32 33
M  V30 33 2 25 34
M  V30 34 1 10 35
M  V30 35 1 35 36
M  V30 36 1 36 37
M  V30 37 1 36 6
M  V30 38 1 16 11
M  V30 39 1 34 20
M  V30 40 1 32 26
M  V30 41 1 1 38
M  V30 42 1 1 39
M  V30 43 1 1 40
M  V30 44 1 5 41
M  V30 45 1 6 42 CFG=3
M  V30 46 1 7 43 CFG=1
M  V30 47 1 8 44
M  V30 48 1 8 45
M  V30 49 1 9 46
M  V30 50 1 9 47
M  V30 51 1 10 48 CFG=3
M  V30 52 1 12 49
M  V30 53 1 13 50
M  V30 54 1 15 51
M  V30 55 1 17 52
M  V30 56 1 21 53
M  V30 57 1 22 54
M  V30 58 1 29 55
M  V30 59 1 30 56
M  V30 60 1 31 57
M  V30 61 1 35 58
M  V30 62 1 35 59
M  V30 63 1 36 60 CFG=3
M  V30 64 1 37 61
M  V30 65 1 37 62
M  V30 66 1 37 63
M  V30 END BOND
M  V30 END CTAB
M  END
>  <Dataset>  (252) 
ChEMBL_Kinases

>  <Ligand_Instance>  (252) 
nan

>  <PDB_ID>  (252) 
nan

>  <Standardized_SMILES>  (252) 
COC(=O)N[C@@H]1[C@H](N)C[C@H](c2ccncc2NC(=O)c2ccc(F)c(-c3c(F)cccc3F)n2)C[C@@H]1C

>  <Name>  (252) 
nan

>  <Pocket>  (252) 
nan

>  <ATP_Site>  (252) 
nan

>  <Peripheral>  (252) 
nan

>  <Num_H_Atoms_ProtBoundConf>  (252) 
nan

>  <Num_Resolved_Atoms>  (252) 
nan

>  <Num_Not_Resolved_Atoms>  (252) 
nan

$$$$
CHEMBL430574
     RDKit          3D

  0  0  0  0  0  0  0  0  0  0999 V3000
M  V30 BEGIN CTAB
M  V30 COUNTS 31 34 0 0 0
M  V30 BEGIN ATOM
M  V30 1 O -2.682296 -3.220543 0.943668 0
M  V30 2 C -1.883832 -2.315899 1.364721 0
M  V30 3 C -0.424483 -2.677113 1.389234 0
M  V30 4 C 0.393803 -1.665504 0.637868 0
M  V30 5 C 0.293923 -0.281198 0.681038 0
M  V30 6 N 1.197530 0.295756 -0.132829 0
M  V30 7 C 1.903491 -0.715587 -0.721204 0
M  V30 8 C 2.954167 -0.732924 -1.645072 0
M  V30 9 C 3.502588 -1.924377 -2.089016 0
M  V30 10 C 2.983947 -3.085451 -1.595093 0
M  V30 11 C 1.951123 -3.146008 -0.684411 0
M  V30 12 C 1.427718 -1.941089 -0.262913 0
M  V30 13 C -0.621817 0.539578 1.460314 0
M  V30 14 C -0.061921 1.763592 1.681446 0
M  V30 15 C -0.841671 2.658032 2.421963 0
M  V30 16 C -2.106272 2.294762 2.891351 0
M  V30 17 C -2.633543 1.043856 2.643658 0
M  V30 18 C -1.881839 0.145861 1.915326 0
M  V30 19 N -2.554247 -1.117924 1.735163 0
M  V30 20 H -0.041277 -2.637422 2.429236 0
M  V30 21 H -0.282435 -3.654993 0.925837 0
M  V30 22 H 1.431735 1.281139 -0.373323 0
M  V30 23 H 3.356613 0.196671 -2.029266 0
M  V30 24 H 4.327276 -1.921924 -2.814695 0
M  V30 25 H 3.391288 -4.041992 -1.922505 0
M  V30 26 H 1.544622 -4.049507 -0.297500 0
M  V30 27 H 0.886120 2.108388 1.361816 0
M  V30 28 H -0.487517 3.660134 2.653648 0
M  V30 29 H -2.705473 3.013399 3.473014 0
M  V30 30 H -3.598601 0.708658 2.978536 0
M  V30 31 H -3.584083 -1.104684 1.895453 0
M  V30 END ATOM
M  V30 BEGIN BOND
M  V30 1 2 1 2
M  V30 2 1 2 3
M  V30 3 1 3 4
M  V30 4 2 4 5
M  V30 5 1 5 6
M  V30 6 1 6 7
M  V30 7 2 7 8
M  V30 8 1 8 9
M  V30 9 2 9 10
M  V30 10 1 10 11
M  V30 11 2 11 12
M  V30 12 1 5 13
M  V30 13 2 13 14
M  V30 14 1 14 15
M  V30 15 2 15 16
M  V30 16 1 16 17
M  V30 17 2 17 18
M  V30 18 1 18 19
M  V30 19 1 19 2
M  V30 20 1 12 4
M  V30 21 1 18 13
M  V30 22 1 12 7
M  V30 23 1 3 20
M  V30 24 1 3 21
M  V30 25 1 6 22
M  V30 26 1 8 23
M  V30 27 1 9 24
M  V30 28 1 10 25
M  V30 29 1 11 26
M  V30 30 1 14 27
M  V30 31 1 15 28
M  V30 32 1 16 29
M  V30 33 1 17 30
M  V30 34 1 19 31
M  V30 END BOND
M  V30 END CTAB
M  END
>  <Dataset>  (253) 
ChEMBL_Kinases

>  <Ligand_Instance>  (253) 
nan

>  <PDB_ID>  (253) 
nan

>  <Standardized_SMILES>  (253) 
O=C1Cc2c([nH]c3ccccc23)-c2ccccc2N1

>  <Name>  (253) 
PAULLONE

>  <Pocket>  (253) 
nan

>  <ATP_Site>  (253) 
nan

>  <Peripheral>  (253) 
nan

>  <Num_H_Atoms_ProtBoundConf>  (253) 
nan

>  <Num_Resolved_Atoms>  (253) 
nan

>  <Num_Not_Resolved_Atoms>  (253) 
nan

$$$$
CHEMBL3701777
     RDKit          3D

  0  0  0  0  0  0  0  0  0  0999 V3000
M  V30 BEGIN CTAB
M  V30 COUNTS 59 64 0 0 0
M  V30 BEGIN ATOM
M  V30 1 C 6.978937 1.190446 2.351258 0
M  V30 2 C 5.507494 0.972141 2.077650 0
M  V30 3 O 4.933520 0.227270 3.103990 0
M  V30 4 C 5.326372 0.392291 0.697761 0
M  V30 5 C 4.232669 1.405722 0.467871 0
M  V30 6 O 4.468178 2.015876 -0.776306 0
M  V30 7 C 2.864041 0.849929 0.550424 0
M  V30 8 C 2.040581 0.780839 1.654733 0
M  V30 9 C 0.781432 0.224493 1.574009 0
M  V30 10 C 0.266802 -0.292625 0.402075 0
M  V30 11 C -1.057222 -0.887471 0.264371 0
M  V30 12 N -1.130327 -2.224778 0.001685 0
M  V30 13 C -2.422473 -2.575666 -0.082691 0
M  V30 14 N -3.167420 -1.477639 0.123062 0
M  V30 15 C -2.354386 -0.428272 0.338288 0
M  V30 16 C -2.646532 0.972765 0.607467 0
M  V30 17 C -2.437993 1.760829 1.718934 0
M  V30 18 C -2.815744 3.086687 1.697167 0
M  V30 19 C -3.400874 3.669915 0.599990 0
M  V30 20 C -3.621043 2.895791 -0.530970 0
M  V30 21 C -3.242913 1.563326 -0.513743 0
M  V30 22 C -4.620532 -1.463383 0.109168 0
M  V30 23 O -5.180365 -2.709649 -0.141180 0
M  V30 24 C -4.487091 -3.891283 -0.363920 0
M  V30 25 C -5.088181 -5.104930 -0.607883 0
M  V30 26 C -4.390403 -6.253177 -0.824009 0
M  V30 27 C -3.023770 -6.187541 -0.795193 0
M  V30 28 C -2.213019 -7.404764 -1.024382 0
M  V30 29 O -2.821872 -8.479251 -1.239795 0
M  V30 30 O -0.829569 -7.323153 -0.994468 0
M  V30 31 C -2.368645 -4.976989 -0.551091 0
M  V30 32 C -3.102049 -3.843530 -0.338494 0
M  V30 33 C 1.092176 -0.223898 -0.706959 0
M  V30 34 C 2.364332 0.331203 -0.651887 0
M  V30 35 C 4.726648 2.158349 1.647975 0
M  V30 36 H 7.527213 1.638176 1.499696 0
M  V30 37 H 7.396080 0.144483 2.451536 0
M  V30 38 H 7.196894 1.687501 3.299168 0
M  V30 39 H 5.585860 -0.412446 3.491223 0
M  V30 40 H 4.958209 -0.666543 0.742803 0
M  V30 41 H 6.219605 0.500259 0.052728 0
M  V30 42 H 5.408879 1.922502 -1.070556 0
M  V30 43 H 2.436172 1.181178 2.553348 0
M  V30 44 H 0.173653 0.188129 2.463377 0
M  V30 45 H -1.977982 1.198333 2.513476 0
M  V30 46 H -2.603599 3.608168 2.625544 0
M  V30 47 H -3.677331 4.726782 0.646993 0
M  V30 48 H -4.081665 3.397510 -1.361541 0
M  V30 49 H -3.474810 1.080985 -1.465509 0
M  V30 50 H -5.021474 -1.145286 1.117606 0
M  V30 51 H -5.023000 -0.698436 -0.582562 0
M  V30 52 H -6.159996 -5.152276 -0.630107 0
M  V30 53 H -4.849907 -7.220329 -1.017490 0
M  V30 54 H -0.249876 -8.172904 -1.075433 0
M  V30 55 H -1.294421 -4.884909 -0.520850 0
M  V30 56 H 0.749057 -0.615715 -1.674441 0
M  V30 57 H 2.957569 0.347854 -1.574873 0
M  V30 58 H 3.970806 2.539433 2.358641 0
M  V30 59 H 5.342174 3.042741 1.321863 0
M  V30 END ATOM
M  V30 BEGIN BOND
M  V30 1 1 1 2
M  V30 2 1 2 3
M  V30 3 1 2 4
M  V30 4 1 4 5
M  V30 5 1 5 6
M  V30 6 1 5 7
M  V30 7 2 7 8
M  V30 8 1 8 9
M  V30 9 2 9 10
M  V30 10 1 10 11
M  V30 11 1 11 12
M  V30 12 2 12 13
M  V30 13 1 13 14
M  V30 14 1 14 15
M  V30 15 1 15 16
M  V30 16 2 16 17
M  V30 17 1 17 18
M  V30 18 2 18 19
M  V30 19 1 19 20
M  V30 20 2 20 21
M  V30 21 1 14 22
M  V30 22 1 22 23
M  V30 23 1 23 24
M  V30 24 2 24 25
M  V30 25 1 25 26
M  V30 26 2 26 27
M  V30 27 1 27 28
M  V30 28 2 28 29
M  V30 29 1 28 30
M  V30 30 1 27 31
M  V30 31 2 31 32
M  V30 32 1 10 33
M  V30 33 2 33 34
M  V30 34 1 5 35
M  V30 35 1 35 2
M  V30 36 1 34 7
M  V30 37 2 15 11
M  V30 38 1 21 16
M  V30 39 1 32 24
M  V30 40 1 32 13
M  V30 41 1 1 36
M  V30 42 1 1 37
M  V30 43 1 1 38
M  V30 44 1 3 39
M  V30 45 1 4 40
M  V30 46 1 4 41
M  V30 47 1 6 42
M  V30 48 1 8 43
M  V30 49 1 9 44
M  V30 50 1 17 45
M  V30 51 1 18 46
M  V30 52 1 19 47
M  V30 53 1 20 48
M  V30 54 1 21 49
M  V30 55 1 22 50
M  V30 56 1 22 51
M  V30 57 1 25 52
M  V30 58 1 26 53
M  V30 59 1 30 54
M  V30 60 1 31 55
M  V30 61 1 33 56
M  V30 62 1 34 57
M  V30 63 1 35 58
M  V30 64 1 35 59
M  V30 END BOND
M  V30 END CTAB
M  END
>  <Dataset>  (254) 
ChEMBL_Kinases

>  <Ligand_Instance>  (254) 
nan

>  <PDB_ID>  (254) 
nan

>  <Standardized_SMILES>  (254) 
CC1(O)CC(O)(c2ccc(-c3nc4n(c3-c3ccccc3)COc3ccc(C(=O)O)cc3-4)cc2)C1

>  <Name>  (254) 
nan

>  <Pocket>  (254) 
nan

>  <ATP_Site>  (254) 
nan

>  <Peripheral>  (254) 
nan

>  <Num_H_Atoms_ProtBoundConf>  (254) 
nan

>  <Num_Resolved_Atoms>  (254) 
nan

>  <Num_Not_Resolved_Atoms>  (254) 
nan

$$$$
CHEMBL4303523
     RDKit          3D

  0  0  0  0  0  0  0  0  0  0999 V3000
M  V30 BEGIN CTAB
M  V30 COUNTS 64 67 0 0 0
M  V30 BEGIN ATOM
M  V30 1 C 2.477582 -1.729771 4.786112 0
M  V30 2 C 3.704618 -1.116551 4.165447 0
M  V30 3 C 3.300985 -0.342892 2.938152 0
M  V30 4 O 2.138455 -0.215651 2.469556 0
M  V30 5 N 4.253236 0.357425 2.147726 0
M  V30 6 C 3.526762 0.978865 1.063366 0
M  V30 7 C 3.306498 0.362059 -0.150115 0
M  V30 8 C 2.602108 1.027657 -1.122556 0
M  V30 9 C 2.131474 2.299912 -0.859527 0
M  V30 10 C 2.362387 2.909485 0.372174 0
M  V30 11 O 1.773329 4.190051 0.359438 0
M  V30 12 C 0.443027 4.197029 0.816526 0
M  V30 13 N -0.164938 3.088378 1.226528 0
M  V30 14 C -1.432331 3.047961 1.668906 0
M  V30 15 N -1.835561 1.741293 2.054878 0
M  V30 16 C -1.866660 0.648740 1.141530 0
M  V30 17 C -1.475050 0.786846 -0.174409 0
M  V30 18 C -1.472503 -0.243724 -1.093843 0
M  V30 19 C -1.887295 -1.486859 -0.670175 0
M  V30 20 N -1.894324 -2.582325 -1.573835 0
M  V30 21 C -1.447719 -2.486033 -2.948498 0
M  V30 22 C -0.920646 -3.826128 -3.425937 0
M  V30 23 N -2.013823 -4.751424 -3.465060 0
M  V30 24 C -1.479687 -6.117239 -3.376572 0
M  V30 25 C -2.980939 -4.534481 -2.421194 0
M  V30 26 C -2.352360 -3.900041 -1.188463 0
M  V30 27 C -2.287590 -1.667873 0.636495 0
M  V30 28 C -2.278818 -0.616892 1.532917 0
M  V30 29 O -2.667572 -0.724260 2.859960 0
M  V30 30 C -3.102192 -1.983216 3.334922 0
M  V30 31 N -2.098599 4.226964 1.683830 0
M  V30 32 C -1.566412 5.373561 1.293234 0
M  V30 33 C -0.263669 5.402198 0.840833 0
M  V30 34 Cl 0.455600 6.898437 0.321575 0
M  V30 35 C 3.068746 2.245878 1.351142 0
M  V30 36 H 1.537360 -1.328001 4.345443 0
M  V30 37 H 2.440675 -1.529166 5.883712 0
M  V30 38 H 2.466875 -2.833304 4.664374 0
M  V30 39 H 4.164176 -0.407772 4.879569 0
M  V30 40 H 4.419452 -1.909770 3.910859 0
M  V30 41 H 5.282325 0.346867 2.415021 0
M  V30 42 H 3.694333 -0.628926 -0.301932 0
M  V30 43 H 2.452379 0.497439 -2.071796 0
M  V30 44 H 1.590620 2.707594 -1.719724 0
M  V30 45 H -2.117927 1.573938 3.036025 0
M  V30 46 H -1.149999 1.777216 -0.491283 0
M  V30 47 H -1.147372 -0.013549 -2.087187 0
M  V30 48 H -2.280638 -2.121225 -3.586725 0
M  V30 49 H -0.602688 -1.738246 -2.989955 0
M  V30 50 H -0.113492 -4.113206 -2.723425 0
M  V30 51 H -0.471981 -3.638765 -4.425842 0
M  V30 52 H -2.110183 -6.812268 -3.933758 0
M  V30 53 H -1.375283 -6.355003 -2.293568 0
M  V30 54 H -0.430679 -6.077977 -3.774002 0
M  V30 55 H -3.761891 -3.859246 -2.775800 0
M  V30 56 H -3.399172 -5.537822 -2.164589 0
M  V30 57 H -3.120019 -3.911373 -0.411271 0
M  V30 58 H -1.490688 -4.559678 -0.934827 0
M  V30 59 H -2.620290 -2.588604 1.042308 0
M  V30 60 H -3.224892 -1.980698 4.446862 0
M  V30 61 H -2.373336 -2.789048 3.104714 0
M  V30 62 H -4.071426 -2.304700 2.916030 0
M  V30 63 H -2.194197 6.255320 1.348756 0
M  V30 64 H 3.162303 2.837216 2.230664 0
M  V30 END ATOM
M  V30 BEGIN BOND
M  V30 1 1 1 2
M  V30 2 1 2 3
M  V30 3 2 3 4
M  V30 4 1 3 5
M  V30 5 1 5 6
M  V30 6 2 6 7
M  V30 7 1 7 8
M  V30 8 2 8 9
M  V30 9 1 9 10
M  V30 10 1 10 11
M  V30 11 1 11 12
M  V30 12 2 12 13
M  V30 13 1 13 14
M  V30 14 1 14 15
M  V30 15 1 15 16
M  V30 16 2 16 17
M  V30 17 1 17 18
M  V30 18 2 18 19
M  V30 19 1 19 20
M  V30 20 1 20 21
M  V30 21 1 21 22
M  V30 22 1 22 23
M  V30 23 1 23 24
M  V30 24 1 23 25
M  V30 25 1 25 26
M  V30 26 1 19 27
M  V30 27 2 27 28
M  V30 28 1 28 29
M  V30 29 1 29 30
M  V30 30 2 14 31
M  V30 31 1 31 32
M  V30 32 2 32 33
M  V30 33 1 33 34
M  V30 34 2 10 35
M  V30 35 1 35 6
M  V30 36 1 33 12
M  V30 37 1 28 16
M  V30 38 1 26 20
M  V30 39 1 1 36
M  V30 40 1 1 37
M  V30 41 1 1 38
M  V30 42 1 2 39
M  V30 43 1 2 40
M  V30 44 1 5 41
M  V30 45 1 7 42
M  V30 46 1 8 43
M  V30 47 1 9 44
M  V30 48 1 15 45
M  V30 49 1 17 46
M  V30 50 1 18 47
M  V30 51 1 21 48
M  V30 52 1 21 49
M  V30 53 1 22 50
M  V30 54 1 22 51
M  V30 55 1 24 52
M  V30 56 1 24 53
M  V30 57 1 24 54
M  V30 58 1 25 55
M  V30 59 1 25 56
M  V30 60 1 26 57
M  V30 61 1 26 58
M  V30 62 1 27 59
M  V30 63 1 30 60
M  V30 64 1 30 61
M  V30 65 1 30 62
M  V30 66 1 32 63
M  V30 67 1 35 64
M  V30 END BOND
M  V30 END CTAB
M  END
>  <Dataset>  (255) 
ChEMBL_Kinases

>  <Ligand_Instance>  (255) 
nan

>  <PDB_ID>  (255) 
nan

>  <Standardized_SMILES>  (255) 
CCC(=O)Nc1cccc(Oc2nc(Nc3ccc(N4CCN(C)CC4)cc3OC)ncc2Cl)c1

>  <Name>  (255) 
nan

>  <Pocket>  (255) 
nan

>  <ATP_Site>  (255) 
nan

>  <Peripheral>  (255) 
nan

>  <Num_H_Atoms_ProtBoundConf>  (255) 
nan

>  <Num_Resolved_Atoms>  (255) 
nan

>  <Num_Not_Resolved_Atoms>  (255) 
nan

$$$$
CHEMBL3701776
     RDKit          3D

  0  0  0  0  0  0  0  0  0  0999 V3000
M  V30 BEGIN CTAB
M  V30 COUNTS 61 66 0 0 0
M  V30 BEGIN ATOM
M  V30 1 C 6.871970 0.490145 2.834628 0
M  V30 2 C 5.516619 0.357104 2.190652 0
M  V30 3 O 5.262544 -0.969230 1.861033 0
M  V30 4 C 5.261288 1.335461 1.040396 0
M  V30 5 C 3.933084 1.713668 1.623721 0
M  V30 6 N 3.731842 3.126584 1.845398 0
M  V30 7 C 2.743639 1.011781 1.136325 0
M  V30 8 C 2.668710 0.020141 0.181301 0
M  V30 9 C 1.454031 -0.554147 -0.176306 0
M  V30 10 C 0.290450 -0.103726 0.457476 0
M  V30 11 C -0.966025 -0.736149 0.049544 0
M  V30 12 N -1.042328 -2.072624 0.257938 0
M  V30 13 C -2.262837 -2.473876 -0.177574 0
M  V30 14 N -2.918958 -1.396453 -0.643990 0
M  V30 15 C -2.157633 -0.291519 -0.525881 0
M  V30 16 C -2.291811 1.115186 -0.834384 0
M  V30 17 C -3.266017 1.915191 -0.259372 0
M  V30 18 C -3.356026 3.264626 -0.587728 0
M  V30 19 C -2.490769 3.854455 -1.487377 0
M  V30 20 C -1.526515 3.035951 -2.048594 0
M  V30 21 C -1.403362 1.689273 -1.748715 0
M  V30 22 C -4.256838 -1.377612 -1.203938 0
M  V30 23 O -4.867048 -2.654738 -1.229841 0
M  V30 24 C -4.242555 -3.804538 -0.763458 0
M  V30 25 C -4.909180 -5.025670 -0.822213 0
M  V30 26 C -4.240184 -6.130872 -0.345401 0
M  V30 27 C -4.983453 -7.373527 -0.432118 0
M  V30 28 N -4.444775 -8.581752 0.011454 0
M  V30 29 O -6.134479 -7.489094 -0.893116 0
M  V30 30 C -2.968175 -6.143031 0.186604 0
M  V30 31 C -2.345608 -4.889805 0.221175 0
M  V30 32 C -2.966212 -3.750581 -0.241561 0
M  V30 33 C 0.343206 0.890190 1.418440 0
M  V30 34 C 1.567273 1.443983 1.754334 0
M  V30 35 C 4.406506 1.072779 2.934949 0
M  V30 36 H 6.732558 0.977769 3.822849 0
M  V30 37 H 7.502972 1.158171 2.200169 0
M  V30 38 H 7.351952 -0.485656 3.029683 0
M  V30 39 H 4.429255 -1.326227 2.210922 0
M  V30 40 H 5.288524 0.813419 0.086890 0
M  V30 41 H 6.002930 2.174399 1.136911 0
M  V30 42 H 3.353283 3.239961 2.813960 0
M  V30 43 H 4.571333 3.702941 1.671888 0
M  V30 44 H 3.593749 -0.265928 -0.252096 0
M  V30 45 H 1.463884 -1.333009 -0.938057 0
M  V30 46 H -3.949584 1.450660 0.451149 0
M  V30 47 H -4.125518 3.894343 -0.132990 0
M  V30 48 H -2.554924 4.903736 -1.747396 0
M  V30 49 H -0.849736 3.523917 -2.760246 0
M  V30 50 H -0.603343 1.122521 -2.247912 0
M  V30 51 H -4.939765 -0.744791 -0.574495 0
M  V30 52 H -4.223797 -1.019967 -2.246991 0
M  V30 53 H -5.908749 -5.134387 -1.219110 0
M  V30 54 H -4.068698 -9.496051 0.320436 0
M  V30 55 H -3.684454 -8.908890 0.651057 0
M  V30 56 H -2.512252 -7.058696 0.540822 0
M  V30 57 H -1.334573 -4.855279 0.635887 0
M  V30 58 H -0.607892 1.169758 1.849744 0
M  V30 59 H 1.508317 2.211114 2.512768 0
M  V30 60 H 3.709686 0.326683 3.364545 0
M  V30 61 H 4.816656 1.781299 3.671241 0
M  V30 END ATOM
M  V30 BEGIN BOND
M  V30 1 1 1 2
M  V30 2 1 2 3
M  V30 3 1 2 4
M  V30 4 1 4 5
M  V30 5 1 5 6
M  V30 6 1 5 7
M  V30 7 2 7 8
M  V30 8 1 8 9
M  V30 9 2 9 10
M  V30 10 1 10 11
M  V30 11 1 11 12
M  V30 12 2 12 13
M  V30 13 1 13 14
M  V30 14 1 14 15
M  V30 15 1 15 16
M  V30 16 2 16 17
M  V30 17 1 17 18
M  V30 18 2 18 19
M  V30 19 1 19 20
M  V30 20 2 20 21
M  V30 21 1 14 22
M  V30 22 1 22 23
M  V30 23 1 23 24
M  V30 24 2 24 25
M  V30 25 1 25 26
M  V30 26 1 26 27
M  V30 27 1 27 28
M  V30 28 2 27 29
M  V30 29 2 26 30
M  V30 30 1 30 31
M  V30 31 2 31 32
M  V30 32 1 10 33
M  V30 33 2 33 34
M  V30 34 1 5 35
M  V30 35 1 35 2
M  V30 36 1 34 7
M  V30 37 2 15 11
M  V30 38 1 21 16
M  V30 39 1 32 24
M  V30 40 1 32 13
M  V30 41 1 1 36
M  V30 42 1 1 37
M  V30 43 1 1 38
M  V30 44 1 3 39
M  V30 45 1 4 40
M  V30 46 1 4 41
M  V30 47 1 6 42
M  V30 48 1 6 43
M  V30 49 1 8 44
M  V30 50 1 9 45
M  V30 51 1 17 46
M  V30 52 1 18 47
M  V30 53 1 19 48
M  V30 54 1 20 49
M  V30 55 1 21 50
M  V30 56 1 22 51
M  V30 57 1 22 52
M  V30 58 1 25 53
M  V30 59 1 28 54
M  V30 60 1 28 55
M  V30 61 1 30 56
M  V30 62 1 31 57
M  V30 63 1 33 58
M  V30 64 1 34 59
M  V30 65 1 35 60
M  V30 66 1 35 61
M  V30 END BOND
M  V30 END CTAB
M  END
>  <Dataset>  (256) 
ChEMBL_Kinases

>  <Ligand_Instance>  (256) 
nan

>  <PDB_ID>  (256) 
nan

>  <Standardized_SMILES>  (256) 
CC1(O)CC(N)(c2ccc(-c3nc4n(c3-c3ccccc3)COc3cc(C(N)=O)ccc3-4)cc2)C1

>  <Name>  (256) 
nan

>  <Pocket>  (256) 
nan

>  <ATP_Site>  (256) 
nan

>  <Peripheral>  (256) 
nan

>  <Num_H_Atoms_ProtBoundConf>  (256) 
nan

>  <Num_Resolved_Atoms>  (256) 
nan

>  <Num_Not_Resolved_Atoms>  (256) 
nan

$$$$
CHEMBL3687422
     RDKit          3D

  0  0  0  0  0  0  0  0  0  0999 V3000
M  V30 BEGIN CTAB
M  V30 COUNTS 69 72 0 0 0
M  V30 BEGIN ATOM
M  V30 1 C 0.113744 -2.955804 6.412730 0
M  V30 2 C 0.978519 -3.049036 5.199092 0
M  V30 3 C 2.082806 -4.050392 5.462405 0
M  V30 4 O 1.575147 -1.812989 4.826664 0
M  V30 5 C 1.341047 -1.353268 3.550051 0
M  V30 6 O 0.613184 -2.035210 2.764213 0
M  V30 7 N 1.885403 -0.121749 3.049726 0
M  V30 8 C 1.682121 0.417750 1.730819 0 CFG=2
M  V30 9 C 2.891604 0.433511 0.859251 0 CFG=2
M  V30 10 N 3.721407 1.596798 0.950152 0
M  V30 11 C 2.373502 0.389889 -0.582323 0
M  V30 12 C 1.116927 1.185134 -0.742687 0 CFG=2
M  V30 13 C 1.015776 1.856379 -2.057198 0
M  V30 14 C 1.530852 3.087656 -2.426129 0
M  V30 15 C 1.373925 3.605178 -3.693144 0
M  V30 16 N 0.718015 2.955189 -4.641472 0
M  V30 17 C 0.169759 1.738147 -4.393378 0
M  V30 18 C 0.337019 1.234630 -3.116732 0
M  V30 19 N -0.234434 -0.039068 -2.837453 0
M  V30 20 C 0.165848 -1.410913 -2.903557 0
M  V30 21 O 1.319538 -1.698380 -3.304114 0
M  V30 22 C -0.858084 -2.365279 -2.478675 0
M  V30 23 C -0.466001 -3.681681 -2.541738 0
M  V30 24 C -1.384694 -4.632834 -2.154385 0
M  V30 25 C -2.647265 -4.297591 -1.719663 0
M  V30 26 F -3.643232 -5.110669 -1.312276 0
M  V30 27 C -2.982468 -2.962545 -1.678344 0
M  V30 28 C -4.246501 -2.326405 -1.261164 0
M  V30 29 C -5.196458 -2.131874 -2.267427 0
M  V30 30 F -4.971618 -2.504610 -3.547518 0
M  V30 31 C -6.420905 -1.544590 -2.001911 0
M  V30 32 C -6.710535 -1.140617 -0.709487 0
M  V30 33 C -5.759163 -1.340652 0.273048 0
M  V30 34 C -4.544918 -1.920867 0.020587 0
M  V30 35 F -3.577108 -2.140813 0.942389 0
M  V30 36 N -2.087312 -2.032451 -2.055838 0
M  V30 37 C 0.865758 2.197782 0.308934 0
M  V30 38 C 0.920865 1.697713 1.717606 0 CFG=2
M  V30 39 C 1.418087 2.781754 2.615076 0
M  V30 40 H -0.793106 -3.592530 6.381338 0
M  V30 41 H 0.689795 -3.314952 7.289449 0
M  V30 42 H -0.123236 -1.882683 6.573259 0
M  V30 43 H 0.381906 -3.475066 4.347443 0
M  V30 44 H 3.048946 -3.671019 5.056972 0
M  V30 45 H 2.217110 -4.120220 6.556234 0
M  V30 46 H 1.847083 -5.061293 5.052058 0
M  V30 47 H 2.490802 0.428983 3.725833 0
M  V30 48 H 1.005578 -0.329104 1.251678 0
M  V30 49 H 3.508064 -0.455097 1.111196 0
M  V30 50 H 4.576434 1.432161 1.535811 0
M  V30 51 H 4.129016 1.892365 0.015969 0
M  V30 52 H 3.116264 0.770463 -1.310220 0
M  V30 53 H 2.175959 -0.679148 -0.794864 0
M  V30 54 H 0.256668 0.448436 -0.709239 0
M  V30 55 H 2.070842 3.628294 -1.664906 0
M  V30 56 H 1.819930 4.587634 -3.883872 0
M  V30 57 H -0.372313 1.165515 -5.120308 0
M  V30 58 H -1.199681 0.246433 -2.505237 0
M  V30 59 H 0.510359 -3.994367 -2.875233 0
M  V30 60 H -1.187808 -5.716290 -2.159648 0
M  V30 61 H -7.177919 -1.375284 -2.736813 0
M  V30 62 H -7.637253 -0.664840 -0.362347 0
M  V30 63 H -5.917682 -1.049571 1.302870 0
M  V30 64 H 1.528966 3.082845 0.189881 0
M  V30 65 H -0.176965 2.585351 0.147679 0
M  V30 66 H -0.114666 1.437160 2.088171 0
M  V30 67 H 1.888253 2.433171 3.539270 0
M  V30 68 H 2.023823 3.514845 2.038860 0
M  V30 69 H 0.543510 3.404810 2.966909 0
M  V30 END ATOM
M  V30 BEGIN BOND
M  V30 1 1 1 2
M  V30 2 1 2 3
M  V30 3 1 2 4
M  V30 4 1 4 5
M  V30 5 2 5 6
M  V30 6 1 5 7
M  V30 7 1 7 8
M  V30 8 1 8 9
M  V30 9 1 9 10
M  V30 10 1 9 11
M  V30 11 1 11 12
M  V30 12 1 12 13
M  V30 13 2 13 14
M  V30 14 1 14 15
M  V30 15 2 15 16
M  V30 16 1 16 17
M  V30 17 2 17 18
M  V30 18 1 18 19
M  V30 19 1 19 20
M  V30 20 2 20 21
M  V30 21 1 20 22
M  V30 22 2 22 23
M  V30 23 1 23 24
M  V30 24 2 24 25
M  V30 25 1 25 26
M  V30 26 1 25 27
M  V30 27 1 27 28
M  V30 28 2 28 29
M  V30 29 1 29 30
M  V30 30 1 29 31
M  V30 31 2 31 32
M  V30 32 1 32 33
M  V30 33 2 33 34
M  V30 34 1 34 35
M  V30 35 2 27 36
M  V30 36 1 12 37
M  V30 37 1 37 38
M  V30 38 1 38 39
M  V30 39 1 38 8
M  V30 40 1 18 13
M  V30 41 1 36 22
M  V30 42 1 34 28
M  V30 43 1 1 40
M  V30 44 1 1 41
M  V30 45 1 1 42
M  V30 46 1 2 43
M  V30 47 1 3 44
M  V30 48 1 3 45
M  V30 49 1 3 46
M  V30 50 1 7 47
M  V30 51 1 8 48 CFG=3
M  V30 52 1 9 49 CFG=1
M  V30 53 1 10 50
M  V30 54 1 10 51
M  V30 55 1 11 52
M  V30 56 1 11 53
M  V30 57 1 12 54 CFG=3
M  V30 58 1 14 55
M  V30 59 1 15 56
M  V30 60 1 17 57
M  V30 61 1 19 58
M  V30 62 1 23 59
M  V30 63 1 24 60
M  V30 64 1 31 61
M  V30 65 1 32 62
M  V30 66 1 33 63
M  V30 67 1 37 64
M  V30 68 1 37 65
M  V30 69 1 38 66 CFG=1
M  V30 70 1 39 67
M  V30 71 1 39 68
M  V30 72 1 39 69
M  V30 END BOND
M  V30 END CTAB
M  END
>  <Dataset>  (257) 
ChEMBL_Kinases

>  <Ligand_Instance>  (257) 
nan

>  <PDB_ID>  (257) 
nan

>  <Standardized_SMILES>  (257) 
CC(C)OC(=O)N[C@@H]1[C@H](N)C[C@H](c2ccncc2NC(=O)c2ccc(F)c(-c3c(F)cccc3F)n2)C[C@@H]1C

>  <Name>  (257) 
nan

>  <Pocket>  (257) 
nan

>  <ATP_Site>  (257) 
nan

>  <Peripheral>  (257) 
nan

>  <Num_H_Atoms_ProtBoundConf>  (257) 
nan

>  <Num_Resolved_Atoms>  (257) 
nan

>  <Num_Not_Resolved_Atoms>  (257) 
nan

$$$$
CHEMBL270657
     RDKit          3D

  0  0  0  0  0  0  0  0  0  0999 V3000
M  V30 BEGIN CTAB
M  V30 COUNTS 58 61 0 0 0
M  V30 BEGIN ATOM
M  V30 1 C 2.500664 -1.300778 2.865313 0
M  V30 2 C 3.929561 -0.986889 2.494507 0
M  V30 3 C 4.722060 -2.277691 2.568477 0
M  V30 4 C 4.536933 -0.024156 3.494440 0
M  V30 5 C 4.012207 -0.472061 1.080674 0
M  V30 6 N 3.255489 0.725539 0.869892 0
M  V30 7 C 3.841675 1.927667 1.064022 0
M  V30 8 N 2.929883 2.893302 0.803559 0
M  V30 9 C 1.794388 2.304212 0.452897 0
M  V30 10 C 0.550801 2.746202 0.083788 0
M  V30 11 C -0.419363 1.809096 -0.223164 0
M  V30 12 C -0.225187 0.445149 -0.184692 0
M  V30 13 C -1.380525 -0.362267 -0.548216 0
M  V30 14 N -1.849625 -0.206876 -1.813409 0
M  V30 15 C -2.918197 -1.008527 -2.021151 0
M  V30 16 C -3.767643 -1.195896 -3.226252 0
M  V30 17 C -4.856851 -2.198677 -2.992874 0
M  V30 18 C -2.866551 -1.802561 -4.310269 0
M  V30 19 C -4.257393 0.107618 -3.777566 0
M  V30 20 N -3.116504 -1.676310 -0.858924 0
M  V30 21 C -2.196827 -1.300279 0.046345 0
M  V30 22 C -1.929993 -1.677874 1.430635 0
M  V30 23 C -0.784038 -2.300464 1.883718 0
M  V30 24 C -0.610527 -2.624179 3.212982 0
M  V30 25 C -1.611450 -2.316649 4.115395 0
M  V30 26 F -1.352426 -2.675129 5.411373 0
M  V30 27 C -2.779814 -1.695254 3.726821 0
M  V30 28 C -2.918681 -1.383476 2.373569 0
M  V30 29 F -4.088503 -0.768628 2.025404 0
M  V30 30 N 1.017719 0.030901 0.184765 0
M  V30 31 C 1.981913 0.924921 0.489242 0
M  V30 32 H 2.498755 -1.856521 3.810952 0
M  V30 33 H 2.091683 -1.966959 2.057921 0
M  V30 34 H 1.881137 -0.373463 2.933649 0
M  V30 35 H 4.956714 -2.439249 3.650776 0
M  V30 36 H 4.120672 -3.143339 2.232295 0
M  V30 37 H 5.669391 -2.158718 1.998521 0
M  V30 38 H 4.179690 1.012709 3.378980 0
M  V30 39 H 5.639494 -0.107675 3.383755 0
M  V30 40 H 4.257121 -0.401584 4.491746 0
M  V30 41 H 5.085131 -0.361011 0.812484 0
M  V30 42 H 3.632499 -1.287849 0.426876 0
M  V30 43 H 4.846459 2.202104 1.370746 0
M  V30 44 H 0.367436 3.810574 0.043974 0
M  V30 45 H -1.369503 2.245377 -0.503675 0
M  V30 46 H -1.552520 0.389806 -2.620322 0
M  V30 47 H -5.561227 -1.925201 -2.183042 0
M  V30 48 H -5.368845 -2.353548 -3.966056 0
M  V30 49 H -4.372038 -3.160244 -2.734471 0
M  V30 50 H -1.850773 -1.396679 -4.168932 0
M  V30 51 H -2.781050 -2.893710 -4.048782 0
M  V30 52 H -3.295017 -1.646400 -5.304093 0
M  V30 53 H -5.032108 0.597589 -3.171029 0
M  V30 54 H -4.773679 -0.138617 -4.751675 0
M  V30 55 H -3.413338 0.750578 -4.030125 0
M  V30 56 H -0.046235 -2.508639 1.116277 0
M  V30 57 H 0.326356 -3.114330 3.478042 0
M  V30 58 H -3.534790 -1.472838 4.461179 0
M  V30 END ATOM
M  V30 BEGIN BOND
M  V30 1 1 1 2
M  V30 2 1 2 3
M  V30 3 1 2 4
M  V30 4 1 2 5
M  V30 5 1 5 6
M  V30 6 1 6 7
M  V30 7 2 7 8
M  V30 8 1 8 9
M  V30 9 2 9 10
M  V30 10 1 10 11
M  V30 11 2 11 12
M  V30 12 1 12 13
M  V30 13 1 13 14
M  V30 14 1 14 15
M  V30 15 1 15 16
M  V30 16 1 16 17
M  V30 17 1 16 18
M  V30 18 1 16 19
M  V30 19 2 15 20
M  V30 20 1 20 21
M  V30 21 1 21 22
M  V30 22 2 22 23
M  V30 23 1 23 24
M  V30 24 2 24 25
M  V30 25 1 25 26
M  V30 26 1 25 27
M  V30 27 2 27 28
M  V30 28 1 28 29
M  V30 29 1 12 30
M  V30 30 2 30 31
M  V30 31 1 31 6
M  V30 32 1 31 9
M  V30 33 2 21 13
M  V30 34 1 28 22
M  V30 35 1 1 32
M  V30 36 1 1 33
M  V30 37 1 1 34
M  V30 38 1 3 35
M  V30 39 1 3 36
M  V30 40 1 3 37
M  V30 41 1 4 38
M  V30 42 1 4 39
M  V30 43 1 4 40
M  V30 44 1 5 41
M  V30 45 1 5 42
M  V30 46 1 7 43
M  V30 47 1 10 44
M  V30 48 1 11 45
M  V30 49 1 14 46
M  V30 50 1 17 47
M  V30 51 1 17 48
M  V30 52 1 17 49
M  V30 53 1 18 50
M  V30 54 1 18 51
M  V30 55 1 18 52
M  V30 56 1 19 53
M  V30 57 1 19 54
M  V30 58 1 19 55
M  V30 59 1 23 56
M  V30 60 1 24 57
M  V30 61 1 27 58
M  V30 END BOND
M  V30 END CTAB
M  END
>  <Dataset>  (258) 
ChEMBL_Kinases

>  <Ligand_Instance>  (258) 
nan

>  <PDB_ID>  (258) 
nan

>  <Standardized_SMILES>  (258) 
CC(C)(C)Cn1cnc2ccc(-c3[nH]c(C(C)(C)C)nc3-c3ccc(F)cc3F)nc21

>  <Name>  (258) 
nan

>  <Pocket>  (258) 
nan

>  <ATP_Site>  (258) 
nan

>  <Peripheral>  (258) 
nan

>  <Num_H_Atoms_ProtBoundConf>  (258) 
nan

>  <Num_Resolved_Atoms>  (258) 
nan

>  <Num_Not_Resolved_Atoms>  (258) 
nan

$$$$
CHEMBL3687417
     RDKit          3D

  0  0  0  0  0  0  0  0  0  0999 V3000
M  V30 BEGIN CTAB
M  V30 COUNTS 67 72 0 0 0
M  V30 BEGIN ATOM
M  V30 1 C -2.893828 -0.959686 1.886448 0
M  V30 2 C -1.749387 -1.689802 2.558036 0 CFG=1
M  V30 3 C -0.880323 -2.356467 1.523053 0
M  V30 4 N 0.440416 -2.675207 1.941120 0
M  V30 5 C 1.216835 -3.573341 1.178362 0
M  V30 6 C 1.605855 -4.697466 1.918206 0
M  V30 7 C 2.378995 -5.672648 1.292940 0
M  V30 8 N 2.775686 -5.582684 -0.010548 0
M  V30 9 C 2.385920 -4.483075 -0.707383 0
M  V30 10 C 1.623210 -3.493521 -0.136386 0
M  V30 11 N 1.192434 -2.335313 -0.815613 0
M  V30 12 C 1.661516 -1.012056 -1.056693 0
M  V30 13 O 2.770207 -0.636943 -0.581537 0
M  V30 14 C 0.766285 -0.192910 -1.866593 0
M  V30 15 C 1.210829 1.087026 -2.107717 0
M  V30 16 C 0.470900 1.957914 -2.851511 0
M  V30 17 C -0.741115 1.547712 -3.369100 0
M  V30 18 F -1.572884 2.302622 -4.119729 0
M  V30 19 C -1.165783 0.253810 -3.111608 0
M  V30 20 C -2.414700 -0.334336 -3.582172 0
M  V30 21 C -3.642506 -0.331918 -2.947989 0
M  V30 22 F -3.633719 0.304938 -1.748530 0
M  V30 23 C -4.726955 -0.940416 -3.542056 0
M  V30 24 C -4.618967 -1.561512 -4.771351 0
M  V30 25 C -3.388314 -1.571646 -5.421526 0
M  V30 26 C -2.304886 -0.962009 -4.824836 0
M  V30 27 F -1.143086 -1.033320 -5.555362 0
M  V30 28 N -0.416072 -0.580997 -2.376100 0
M  V30 29 C 1.085639 -2.136767 3.138811 0
M  V30 30 C 0.071070 -1.642255 4.137087 0 CFG=1
M  V30 31 N 0.686595 -0.940959 5.228867 0
M  V30 32 C -0.899275 -0.752166 3.373091 0 CFG=1
M  V30 33 N -0.199867 0.211291 2.568279 0
M  V30 34 C 0.594425 1.104457 3.229572 0
M  V30 35 C 1.168685 1.934139 2.293774 0
M  V30 36 C 2.088936 3.041163 2.499968 0
M  V30 37 C 2.526487 3.420789 3.729320 0
M  V30 38 C 3.405280 4.485194 3.867659 0
M  V30 39 S 3.668739 5.028496 2.179172 0
M  V30 40 C 2.604929 3.819608 1.397073 0
M  V30 41 N 0.697309 1.505755 1.120563 0
M  V30 42 N -0.113405 0.484511 1.287725 0
M  V30 43 H -3.844290 -1.474395 2.042856 0
M  V30 44 H -2.676745 -0.934179 0.804951 0
M  V30 45 H -2.901424 0.096806 2.226301 0
M  V30 46 H -2.203327 -2.452057 3.234231 0
M  V30 47 H -1.465733 -3.285796 1.240039 0
M  V30 48 H -0.871968 -1.648609 0.644224 0
M  V30 49 H 1.383150 -4.928243 2.950193 0
M  V30 50 H 2.720875 -6.557791 1.771366 0
M  V30 51 H 2.644746 -4.309013 -1.749643 0
M  V30 52 H 0.265203 -2.690541 -1.197222 0
M  V30 53 H 2.160362 1.464085 -1.723419 0
M  V30 54 H 0.743777 2.977500 -3.088478 0
M  V30 55 H -5.660068 -0.894765 -2.977189 0
M  V30 56 H -5.472980 -2.027221 -5.213813 0
M  V30 57 H -3.348163 -2.067118 -6.378843 0
M  V30 58 H 1.745883 -1.276132 2.900922 0
M  V30 59 H 1.621582 -2.977528 3.612219 0
M  V30 60 H -0.528721 -2.460069 4.586270 0
M  V30 61 H 1.409065 -1.495430 5.696424 0
M  V30 62 H 0.030236 -0.429331 5.825967 0
M  V30 63 H -1.604284 -0.246361 4.076674 0
M  V30 64 H 0.810290 1.233954 4.285657 0
M  V30 65 H 2.241099 2.948832 4.656854 0
M  V30 66 H 3.859896 4.938807 4.687548 0
M  V30 67 H 2.360193 3.654375 0.345902 0
M  V30 END ATOM
M  V30 BEGIN BOND
M  V30 1 1 1 2
M  V30 2 1 2 3
M  V30 3 1 3 4
M  V30 4 1 4 5
M  V30 5 2 5 6
M  V30 6 1 6 7
M  V30 7 2 7 8
M  V30 8 1 8 9
M  V30 9 2 9 10
M  V30 10 1 10 11
M  V30 11 1 11 12
M  V30 12 2 12 13
M  V30 13 1 12 14
M  V30 14 2 14 15
M  V30 15 1 15 16
M  V30 16 2 16 17
M  V30 17 1 17 18
M  V30 18 1 17 19
M  V30 19 1 19 20
M  V30 20 2 20 21
M  V30 21 1 21 22
M  V30 22 1 21 23
M  V30 23 2 23 24
M  V30 24 1 24 25
M  V30 25 2 25 26
M  V30 26 1 26 27
M  V30 27 2 19 28
M  V30 28 1 4 29
M  V30 29 1 29 30
M  V30 30 1 30 31
M  V30 31 1 30 32
M  V30 32 1 32 33
M  V30 33 1 33 34
M  V30 34 2 34 35
M  V30 35 1 35 36
M  V30 36 1 36 37
M  V30 37 2 37 38
M  V30 38 1 38 39
M  V30 39 1 39 40
M  V30 40 1 35 41
M  V30 41 2 41 42
M  V30 42 1 32 2
M  V30 43 1 42 33
M  V30 44 1 10 5
M  V30 45 1 28 14
M  V30 46 2 40 36
M  V30 47 1 26 20
M  V30 48 1 1 43
M  V30 49 1 1 44
M  V30 50 1 1 45
M  V30 51 1 2 46 CFG=1
M  V30 52 1 3 47
M  V30 53 1 3 48
M  V30 54 1 6 49
M  V30 55 1 7 50
M  V30 56 1 9 51
M  V30 57 1 11 52
M  V30 58 1 15 53
M  V30 59 1 16 54
M  V30 60 1 23 55
M  V30 61 1 24 56
M  V30 62 1 25 57
M  V30 63 1 29 58
M  V30 64 1 29 59
M  V30 65 1 30 60 CFG=1
M  V30 66 1 31 61
M  V30 67 1 31 62
M  V30 68 1 32 63 CFG=1
M  V30 69 1 34 64
M  V30 70 1 37 65
M  V30 71 1 38 66
M  V30 72 1 40 67
M  V30 END BOND
M  V30 END CTAB
M  END
>  <Dataset>  (259) 
ChEMBL_Kinases

>  <Ligand_Instance>  (259) 
nan

>  <PDB_ID>  (259) 
nan

>  <Standardized_SMILES>  (259) 
C[C@H]1CN(c2ccncc2NC(=O)c2ccc(F)c(-c3c(F)cccc3F)n2)C[C@@H](N)[C@H]1n1cc(-c2ccsc2)nn1

>  <Name>  (259) 
nan

>  <Pocket>  (259) 
nan

>  <ATP_Site>  (259) 
nan

>  <Peripheral>  (259) 
nan

>  <Num_H_Atoms_ProtBoundConf>  (259) 
nan

>  <Num_Resolved_Atoms>  (259) 
nan

>  <Num_Not_Resolved_Atoms>  (259) 
nan

$$$$
CHEMBL270815
     RDKit          3D

  0  0  0  0  0  0  0  0  0  0999 V3000
M  V30 BEGIN CTAB
M  V30 COUNTS 70 76 0 0 0
M  V30 BEGIN ATOM
M  V30 1 N 6.681222 -1.297082 1.615178 0
M  V30 2 C 6.464260 -0.648868 0.358643 0
M  V30 3 N 7.483379 -0.458683 -0.528069 0
M  V30 4 C 7.208764 0.162965 -1.698619 0
M  V30 5 O 8.262202 0.354027 -2.603606 0
M  V30 6 N 5.963314 0.607493 -2.032503 0
M  V30 7 C 4.926242 0.445899 -1.196774 0
M  V30 8 N 3.688559 0.878451 -1.508206 0
M  V30 9 C 2.641614 0.709999 -0.652632 0
M  V30 10 C 1.283086 1.154357 -0.941656 0
M  V30 11 C 0.724736 0.602252 -2.096206 0
M  V30 12 C -0.565297 0.924588 -2.506280 0
M  V30 13 C -1.339361 1.806630 -1.779528 0
M  V30 14 C -2.699944 2.188493 -2.160687 0
M  V30 15 N -3.740917 1.325380 -1.651581 0
M  V30 16 C -3.598410 -0.038592 -2.132439 0
M  V30 17 C -4.700641 -0.849094 -1.483707 0
M  V30 18 C -4.267974 -1.131736 -0.079339 0
M  V30 19 N -3.643672 -2.401971 0.101765 0
M  V30 20 C -3.163810 -3.223248 -0.839370 0
M  V30 21 O -3.136953 -3.092187 -2.069445 0
M  V30 22 N -2.652377 -4.331956 -0.281665 0
M  V30 23 C -2.797803 -4.240525 1.054855 0
M  V30 24 C -2.439857 -5.114798 2.087398 0
M  V30 25 C -2.722590 -4.744133 3.381982 0
M  V30 26 C -3.351418 -3.526312 3.667597 0
M  V30 27 C -3.674474 -2.713709 2.586789 0
M  V30 28 C -3.424221 -3.017148 1.275480 0
M  V30 29 C -3.394965 0.016433 0.414589 0
M  V30 30 C -3.877947 1.320960 -0.227031 0
M  V30 31 C -0.761765 2.338291 -0.641001 0
M  V30 32 C 0.519250 2.024514 -0.224812 0
M  V30 33 C 2.845421 0.083734 0.560724 0
M  V30 34 C 1.827465 -0.165869 1.579448 0
M  V30 35 C 2.174000 0.502415 2.760287 0
M  V30 36 C 1.343681 0.409308 3.883362 0
M  V30 37 C 0.180177 -0.335039 3.849243 0
M  V30 38 C -0.120069 -0.976014 2.663843 0
M  V30 39 C 0.676570 -0.904167 1.540237 0
M  V30 40 C 4.108719 -0.347065 0.856764 0
M  V30 41 C 5.211772 -0.195806 0.009957 0
M  V30 42 H 7.519556 -0.856679 2.067035 0
M  V30 43 H 6.110469 -2.074421 2.024284 0
M  V30 44 H 9.143592 0.772397 -2.342515 0
M  V30 45 H 1.234686 -0.104200 -2.751265 0
M  V30 46 H -1.018535 0.507656 -3.399650 0
M  V30 47 H -2.839798 2.233699 -3.266024 0
M  V30 48 H -2.928259 3.210450 -1.796519 0
M  V30 49 H -3.637659 -0.079274 -3.229080 0
M  V30 50 H -2.636716 -0.416288 -1.725569 0
M  V30 51 H -5.026075 -1.719933 -2.066666 0
M  V30 52 H -5.598378 -0.171455 -1.447967 0
M  V30 53 H -5.202288 -1.147943 0.556518 0
M  V30 54 H -2.197040 -5.180009 -0.727209 0
M  V30 55 H -1.951544 -6.059863 1.849617 0
M  V30 56 H -2.462412 -5.394648 4.215123 0
M  V30 57 H -3.582585 -3.219129 4.696566 0
M  V30 58 H -4.152348 -1.793063 2.847763 0
M  V30 59 H -2.325593 -0.156043 0.273259 0
M  V30 60 H -3.557299 0.129086 1.506424 0
M  V30 61 H -3.457796 2.168204 0.307073 0
M  V30 62 H -4.988173 1.329082 -0.017894 0
M  V30 63 H -1.252243 3.042776 0.021392 0
M  V30 64 H 0.986732 2.433216 0.665550 0
M  V30 65 H 3.050742 1.126289 2.952840 0
M  V30 66 H 1.548718 0.897354 4.825214 0
M  V30 67 H -0.496497 -0.438470 4.695798 0
M  V30 68 H -1.001282 -1.561845 2.578604 0
M  V30 69 H 0.524897 -1.362057 0.588355 0
M  V30 70 H 4.334933 -0.851399 1.804460 0
M  V30 END ATOM
M  V30 BEGIN BOND
M  V30 1 1 1 2
M  V30 2 2 2 3
M  V30 3 1 3 4
M  V30 4 1 4 5
M  V30 5 2 4 6
M  V30 6 1 6 7
M  V30 7 2 7 8
M  V30 8 1 8 9
M  V30 9 1 9 10
M  V30 10 2 10 11
M  V30 11 1 11 12
M  V30 12 2 12 13
M  V30 13 1 13 14
M  V30 14 1 14 15
M  V30 15 1 15 16
M  V30 16 1 16 17
M  V30 17 1 17 18
M  V30 18 1 18 19
M  V30 19 1 19 20
M  V30 20 2 20 21
M  V30 21 1 20 22
M  V30 22 1 22 23
M  V30 23 2 23 24
M  V30 24 1 24 25
M  V30 25 2 25 26
M  V30 26 1 26 27
M  V30 27 2 27 28
M  V30 28 1 18 29
M  V30 29 1 29 30
M  V30 30 1 13 31
M  V30 31 2 31 32
M  V30 32 2 9 33
M  V30 33 1 33 34
M  V30 34 2 34 35
M  V30 35 1 35 36
M  V30 36 2 36 37
M  V30 37 1 37 38
M  V30 38 2 38 39
M  V30 39 1 33 40
M  V30 40 2 40 41
M  V30 41 1 41 2
M  V30 42 1 41 7
M  V30 43 1 32 10
M  V30 44 1 39 34
M  V30 45 1 30 15
M  V30 46 1 28 19
M  V30 47 1 28 23
M  V30 48 1 1 42
M  V30 49 1 1 43
M  V30 50 1 5 44
M  V30 51 1 11 45
M  V30 52 1 12 46
M  V30 53 1 14 47
M  V30 54 1 14 48
M  V30 55 1 16 49
M  V30 56 1 16 50
M  V30 57 1 17 51
M  V30 58 1 17 52
M  V30 59 1 18 53
M  V30 60 1 22 54
M  V30 61 1 24 55
M  V30 62 1 25 56
M  V30 63 1 26 57
M  V30 64 1 27 58
M  V30 65 1 29 59
M  V30 66 1 29 60
M  V30 67 1 30 61
M  V30 68 1 30 62
M  V30 69 1 31 63
M  V30 70 1 32 64
M  V30 71 1 35 65
M  V30 72 1 36 66
M  V30 73 1 37 67
M  V30 74 1 38 68
M  V30 75 1 39 69
M  V30 76 1 40 70
M  V30 END BOND
M  V30 END CTAB
M  END
>  <Dataset>  (260) 
ChEMBL_Kinases

>  <Ligand_Instance>  (260) 
nan

>  <PDB_ID>  (260) 
nan

>  <Standardized_SMILES>  (260) 
Nc1nc(O)nc2nc(-c3ccc(CN4CCC(n5c(=O)[nH]c6ccccc65)CC4)cc3)c(-c3ccccc3)cc12

>  <Name>  (260) 
nan

>  <Pocket>  (260) 
nan

>  <ATP_Site>  (260) 
nan

>  <Peripheral>  (260) 
nan

>  <Num_H_Atoms_ProtBoundConf>  (260) 
nan

>  <Num_Resolved_Atoms>  (260) 
nan

>  <Num_Not_Resolved_Atoms>  (260) 
nan

$$$$
CHEMBL270842
     RDKit          3D

  0  0  0  0  0  0  0  0  0  0999 V3000
M  V30 BEGIN CTAB
M  V30 COUNTS 49 52 0 0 0
M  V30 BEGIN ATOM
M  V30 1 C 2.663950 -3.265527 -3.304174 0
M  V30 2 C 2.455813 -2.216032 -2.277282 0
M  V30 3 N 3.510966 -1.660146 -1.652672 0
M  V30 4 C 3.109208 -0.734482 -0.761642 0
M  V30 5 C 3.865160 0.125511 0.141056 0
M  V30 6 C 3.833178 0.170155 1.502175 0
M  V30 7 C 4.621246 1.050548 2.213309 0
M  V30 8 C 5.439533 1.878292 1.454959 0
M  V30 9 F 6.233979 2.764316 2.134916 0
M  V30 10 C 5.522835 1.887718 0.079718 0
M  V30 11 C 4.701439 0.974063 -0.588992 0
M  V30 12 F 4.820338 1.022123 -1.948912 0
M  V30 13 C 1.753713 -0.719983 -0.840713 0
M  V30 14 C 0.724397 0.049948 -0.146550 0
M  V30 15 C 0.660150 1.421110 -0.275345 0
M  V30 16 C -0.336636 2.085375 0.407723 0
M  V30 17 C -1.228100 1.382804 1.187080 0
M  V30 18 N -2.282163 1.752799 1.952714 0
M  V30 19 C -2.806194 0.623114 2.504570 0
M  V30 20 N -3.922340 0.853798 3.342229 0
M  V30 21 N -2.151987 -0.476338 2.142591 0
M  V30 22 S -2.513065 -2.059653 2.622081 0
M  V30 23 O -1.477784 -3.014861 2.067883 0
M  V30 24 O -2.409925 -2.218451 4.134942 0
M  V30 25 C -4.083505 -2.674663 2.157810 0
M  V30 26 C -4.250955 -2.790220 0.665369 0
M  V30 27 C -5.251202 -1.987772 2.814700 0
M  V30 28 C -1.190380 0.012130 1.336470 0
M  V30 29 C -0.178030 -0.663551 0.642919 0
M  V30 30 N 1.354126 -1.631920 -1.773542 0
M  V30 31 H 1.707066 -3.865123 -3.305629 0
M  V30 32 H 3.527486 -3.914697 -3.056771 0
M  V30 33 H 2.766880 -2.858532 -4.327873 0
M  V30 34 H 3.153706 -0.527052 1.957717 0
M  V30 35 H 4.584704 1.073356 3.276135 0
M  V30 36 H 6.185075 2.562501 -0.442731 0
M  V30 37 H 1.345424 1.973703 -0.876237 0
M  V30 38 H -0.464806 3.178786 0.364785 0
M  V30 39 H -4.956228 0.802978 3.466558 0
M  V30 40 H -4.953448 0.804694 3.470133 0
M  V30 41 H -4.124312 -3.736868 2.553422 0
M  V30 42 H -5.241858 -2.344404 0.374235 0
M  V30 43 H -3.429664 -2.274741 0.113044 0
M  V30 44 H -4.251100 -3.829070 0.292815 0
M  V30 45 H -6.147923 -2.638371 2.875533 0
M  V30 46 H -5.559472 -1.150086 2.143271 0
M  V30 47 H -5.037684 -1.662706 3.838296 0
M  V30 48 H -0.085488 -1.731906 0.710042 0
M  V30 49 H 0.386776 -1.910116 -2.116535 0
M  V30 END ATOM
M  V30 BEGIN BOND
M  V30 1 1 1 2
M  V30 2 2 2 3
M  V30 3 1 3 4
M  V30 4 1 4 5
M  V30 5 2 5 6
M  V30 6 1 6 7
M  V30 7 2 7 8
M  V30 8 1 8 9
M  V30 9 1 8 10
M  V30 10 2 10 11
M  V30 11 1 11 12
M  V30 12 2 4 13
M  V30 13 1 13 14
M  V30 14 2 14 15
M  V30 15 1 15 16
M  V30 16 2 16 17
M  V30 17 1 17 18
M  V30 18 2 18 19
M  V30 19 1 19 20
M  V30 20 1 19 21
M  V30 21 1 21 22
M  V30 22 2 22 23
M  V30 23 2 22 24
M  V30 24 1 22 25
M  V30 25 1 25 26
M  V30 26 1 25 27
M  V30 27 1 21 28
M  V30 28 2 28 29
M  V30 29 1 13 30
M  V30 30 1 30 2
M  V30 31 1 11 5
M  V30 32 1 29 14
M  V30 33 1 28 17
M  V30 34 1 1 31
M  V30 35 1 1 32
M  V30 36 1 1 33
M  V30 37 1 6 34
M  V30 38 1 7 35
M  V30 39 1 10 36
M  V30 40 1 15 37
M  V30 41 1 16 38
M  V30 42 1 20 39
M  V30 43 1 20 40
M  V30 44 1 25 41
M  V30 45 1 26 42
M  V30 46 1 26 43
M  V30 47 1 26 44
M  V30 48 1 27 45
M  V30 49 1 27 46
M  V30 50 1 27 47
M  V30 51 1 29 48
M  V30 52 1 30 49
M  V30 END BOND
M  V30 END CTAB
M  END
>  <Dataset>  (261) 
ChEMBL_Kinases

>  <Ligand_Instance>  (261) 
nan

>  <PDB_ID>  (261) 
nan

>  <Standardized_SMILES>  (261) 
Cc1nc(-c2ccc(F)cc2F)c(-c2ccc3nc(N)n(S(=O)(=O)C(C)C)c3c2)[nH]1

>  <Name>  (261) 
nan

>  <Pocket>  (261) 
nan

>  <ATP_Site>  (261) 
nan

>  <Peripheral>  (261) 
nan

>  <Num_H_Atoms_ProtBoundConf>  (261) 
nan

>  <Num_Resolved_Atoms>  (261) 
nan

>  <Num_Not_Resolved_Atoms>  (261) 
nan

$$$$
CHEMBL3687421
     RDKit          3D

  0  0  0  0  0  0  0  0  0  0999 V3000
M  V30 BEGIN CTAB
M  V30 COUNTS 66 69 0 0 0
M  V30 BEGIN ATOM
M  V30 1 C 5.454751 -1.185709 4.306862 0
M  V30 2 C 6.076818 -0.460432 3.159964 0
M  V30 3 O 5.285943 0.574680 2.618781 0
M  V30 4 C 4.042566 0.367829 2.082915 0
M  V30 5 O 3.639724 -0.824936 2.102530 0
M  V30 6 N 3.247182 1.403090 1.539719 0
M  V30 7 C 1.955343 1.169478 0.986189 0 CFG=2
M  V30 8 C 1.874530 1.543727 -0.452404 0 CFG=2
M  V30 9 N 2.012143 2.947881 -0.726993 0
M  V30 10 C 0.602023 0.944620 -0.983685 0
M  V30 11 C -0.611382 1.240738 -0.180800 0 CFG=2
M  V30 12 C -1.636031 1.796690 -1.099614 0
M  V30 13 C -1.735564 3.151687 -1.343176 0
M  V30 14 C -2.678863 3.693772 -2.192608 0
M  V30 15 N -3.546654 2.899943 -2.820753 0
M  V30 16 C -3.494840 1.587681 -2.621937 0
M  V30 17 C -2.568384 1.001240 -1.781243 0
M  V30 18 N -2.473543 -0.395298 -1.536560 0
M  V30 19 C -1.687031 -1.332303 -2.268684 0
M  V30 20 O -0.982694 -0.932391 -3.245859 0
M  V30 21 C -1.707563 -2.741535 -1.877407 0
M  V30 22 C -0.936136 -3.645365 -2.600068 0
M  V30 23 C -0.932235 -4.982448 -2.257725 0
M  V30 24 C -1.686605 -5.459116 -1.197789 0
M  V30 25 F -1.711124 -6.763907 -0.828418 0
M  V30 26 C -2.445456 -4.517332 -0.500636 0
M  V30 27 C -3.280365 -4.900701 0.635426 0
M  V30 28 C -2.570627 -4.825331 1.840420 0
M  V30 29 F -1.259807 -4.442271 1.953177 0
M  V30 30 C -3.154937 -5.140641 3.042909 0
M  V30 31 C -4.474598 -5.538755 3.037648 0
M  V30 32 C -5.188177 -5.618684 1.862244 0
M  V30 33 C -4.601201 -5.302045 0.655341 0
M  V30 34 F -5.162179 -5.329513 -0.574708 0
M  V30 35 N -2.437969 -3.205714 -0.850497 0
M  V30 36 C -0.431394 1.995434 1.080190 0
M  V30 37 C 0.890329 1.898625 1.747108 0 CFG=2
M  V30 38 C 1.412012 3.257302 2.226232 0
M  V30 39 H 4.912960 -2.110908 4.010986 0
M  V30 40 H 4.821523 -0.518514 4.947637 0
M  V30 41 H 6.266124 -1.537913 4.979154 0
M  V30 42 H 7.064560 -0.087120 3.448860 0
M  V30 43 H 6.227533 -1.213192 2.338861 0
M  V30 44 H 3.587617 2.388934 1.526460 0
M  V30 45 H 1.657458 0.080332 1.031088 0
M  V30 46 H 2.718322 1.045066 -0.979666 0
M  V30 47 H 2.990298 3.225704 -0.516891 0
M  V30 48 H 1.934702 3.039769 -1.776555 0
M  V30 49 H 0.526147 1.331989 -2.036032 0
M  V30 50 H 0.808662 -0.142555 -1.126562 0
M  V30 51 H -1.033641 0.241964 0.107017 0
M  V30 52 H -1.081433 3.854316 -0.882263 0
M  V30 53 H -2.776687 4.756052 -2.399978 0
M  V30 54 H -4.187710 0.893020 -3.116120 0
M  V30 55 H -3.046762 -0.756439 -0.732229 0
M  V30 56 H -0.314847 -3.337124 -3.451080 0
M  V30 57 H -0.330648 -5.695569 -2.819054 0
M  V30 58 H -2.633857 -5.093345 3.997608 0
M  V30 59 H -4.974832 -5.795946 3.955885 0
M  V30 60 H -6.220963 -5.923028 1.795111 0
M  V30 61 H -0.644334 3.100760 0.961663 0
M  V30 62 H -1.206913 1.712120 1.828283 0
M  V30 63 H 0.819650 1.316910 2.717979 0
M  V30 64 H 2.247477 3.043099 2.915033 0
M  V30 65 H 1.699560 3.930391 1.417468 0
M  V30 66 H 0.628814 3.746937 2.838483 0
M  V30 END ATOM
M  V30 BEGIN BOND
M  V30 1 1 1 2
M  V30 2 1 2 3
M  V30 3 1 3 4
M  V30 4 2 4 5
M  V30 5 1 4 6
M  V30 6 1 6 7
M  V30 7 1 7 8
M  V30 8 1 8 9
M  V30 9 1 8 10
M  V30 10 1 10 11
M  V30 11 1 11 12
M  V30 12 2 12 13
M  V30 13 1 13 14
M  V30 14 2 14 15
M  V30 15 1 15 16
M  V30 16 2 16 17
M  V30 17 1 17 18
M  V30 18 1 18 19
M  V30 19 2 19 20
M  V30 20 1 19 21
M  V30 21 2 21 22
M  V30 22 1 22 23
M  V30 23 2 23 24
M  V30 24 1 24 25
M  V30 25 1 24 26
M  V30 26 1 26 27
M  V30 27 2 27 28
M  V30 28 1 28 29
M  V30 29 1 28 30
M  V30 30 2 30 31
M  V30 31 1 31 32
M  V30 32 2 32 33
M  V30 33 1 33 34
M  V30 34 2 26 35
M  V30 35 1 11 36
M  V30 36 1 36 37
M  V30 37 1 37 38
M  V30 38 1 37 7
M  V30 39 1 17 12
M  V30 40 1 35 21
M  V30 41 1 33 27
M  V30 42 1 1 39
M  V30 43 1 1 40
M  V30 44 1 1 41
M  V30 45 1 2 42
M  V30 46 1 2 43
M  V30 47 1 6 44
M  V30 48 1 7 45 CFG=3
M  V30 49 1 8 46 CFG=3
M  V30 50 1 9 47
M  V30 51 1 9 48
M  V30 52 1 10 49
M  V30 53 1 10 50
M  V30 54 1 11 51 CFG=1
M  V30 55 1 13 52
M  V30 56 1 14 53
M  V30 57 1 16 54
M  V30 58 1 18 55
M  V30 59 1 22 56
M  V30 60 1 23 57
M  V30 61 1 30 58
M  V30 62 1 31 59
M  V30 63 1 32 60
M  V30 64 1 36 61
M  V30 65 1 36 62
M  V30 66 1 37 63 CFG=1
M  V30 67 1 38 64
M  V30 68 1 38 65
M  V30 69 1 38 66
M  V30 END BOND
M  V30 END CTAB
M  END
>  <Dataset>  (262) 
ChEMBL_Kinases

>  <Ligand_Instance>  (262) 
nan

>  <PDB_ID>  (262) 
nan

>  <Standardized_SMILES>  (262) 
CCOC(=O)N[C@@H]1[C@H](N)C[C@H](c2ccncc2NC(=O)c2ccc(F)c(-c3c(F)cccc3F)n2)C[C@@H]1C

>  <Name>  (262) 
nan

>  <Pocket>  (262) 
nan

>  <ATP_Site>  (262) 
nan

>  <Peripheral>  (262) 
nan

>  <Num_H_Atoms_ProtBoundConf>  (262) 
nan

>  <Num_Resolved_Atoms>  (262) 
nan

>  <Num_Not_Resolved_Atoms>  (262) 
nan

$$$$
CHEMBL3687420
     RDKit          3D

  0  0  0  0  0  0  0  0  0  0999 V3000
M  V30 BEGIN CTAB
M  V30 COUNTS 63 67 0 0 0
M  V30 BEGIN ATOM
M  V30 1 C 5.349252 -0.904619 3.431224 0
M  V30 2 C 4.071745 -0.157013 3.632408 0
M  V30 3 C 2.879490 -0.160861 2.940395 0
M  V30 4 N 2.070160 0.701336 3.555248 0
M  V30 5 C 0.688994 1.023259 3.163044 0 CFG=2
M  V30 6 C 0.010749 -0.151232 2.533557 0 CFG=2
M  V30 7 N 0.642634 -1.341802 3.124345 0
M  V30 8 C 0.176671 -0.244790 1.055381 0
M  V30 9 N 0.598003 0.989431 0.422306 0
M  V30 10 C 1.437204 0.839073 -0.710677 0
M  V30 11 C 2.726274 1.343587 -0.834799 0
M  V30 12 C 3.445682 1.135553 -1.980010 0
M  V30 13 N 2.918910 0.439018 -3.006904 0
M  V30 14 C 1.662449 -0.088193 -2.963845 0
M  V30 15 C 0.954336 0.132932 -1.800689 0
M  V30 16 N -0.363146 -0.456011 -1.834894 0
M  V30 17 C -1.519296 0.229314 -2.311414 0
M  V30 18 O -1.433896 1.411956 -2.734270 0
M  V30 19 C -2.773800 -0.516254 -2.275353 0
M  V30 20 C -3.928087 0.094066 -2.723683 0
M  V30 21 C -5.142919 -0.567039 -2.711360 0
M  V30 22 C -5.224662 -1.863702 -2.245411 0
M  V30 23 F -6.334943 -2.630864 -2.173634 0
M  V30 24 C -4.056359 -2.449124 -1.803643 0
M  V30 25 C -3.902436 -3.802755 -1.271247 0
M  V30 26 C -4.055563 -3.953350 0.092493 0
M  V30 27 F -4.337817 -2.923953 0.953548 0
M  V30 28 C -3.929654 -5.195007 0.697777 0
M  V30 29 C -3.645411 -6.290389 -0.095149 0
M  V30 30 C -3.489191 -6.153020 -1.465909 0
M  V30 31 C -3.617188 -4.899540 -2.070107 0
M  V30 32 F -3.476673 -4.690250 -3.411204 0
M  V30 33 N -2.877494 -1.795799 -1.819979 0
M  V30 34 C 0.120599 2.227134 1.010207 0
M  V30 35 C 0.606663 2.309082 2.416952 0 CFG=2
M  V30 36 C 1.963152 3.002904 2.404306 0
M  V30 37 N 2.740968 1.222455 4.595434 0
M  V30 38 N 3.952995 0.701111 4.640179 0
M  V30 39 H 5.299913 -1.839197 4.062785 0
M  V30 40 H 5.397314 -1.238670 2.373079 0
M  V30 41 H 6.229769 -0.284702 3.670911 0
M  V30 42 H 2.710698 -0.765595 2.084663 0
M  V30 43 H 0.176315 1.174528 4.149435 0
M  V30 44 H -1.054698 -0.225953 2.882302 0
M  V30 45 H 0.663015 -1.278615 4.164048 0
M  V30 46 H 0.136611 -2.197845 2.789672 0
M  V30 47 H -0.860963 -0.424481 0.644954 0
M  V30 48 H 0.757546 -1.130625 0.738841 0
M  V30 49 H 3.115397 1.887486 -0.011716 0
M  V30 50 H 4.442354 1.549590 -2.023311 0
M  V30 51 H 1.302751 -0.628519 -3.807281 0
M  V30 52 H -0.304335 -1.429467 -1.462043 0
M  V30 53 H -3.965706 1.104682 -3.106295 0
M  V30 54 H -6.083300 -0.125876 -3.055799 0
M  V30 55 H -4.044770 -5.346918 1.771877 0
M  V30 56 H -3.535302 -7.289719 0.324638 0
M  V30 57 H -3.265808 -6.958633 -2.158771 0
M  V30 58 H 0.528204 3.112323 0.459373 0
M  V30 59 H -0.984981 2.196439 0.923508 0
M  V30 60 H -0.071119 3.054105 2.929629 0
M  V30 61 H 2.790681 2.275850 2.334516 0
M  V30 62 H 2.116022 3.586895 3.355619 0
M  V30 63 H 1.940530 3.723704 1.561034 0
M  V30 END ATOM
M  V30 BEGIN BOND
M  V30 1 1 1 2
M  V30 2 2 2 3
M  V30 3 1 3 4
M  V30 4 1 4 5
M  V30 5 1 5 6
M  V30 6 1 6 7
M  V30 7 1 6 8
M  V30 8 1 8 9
M  V30 9 1 9 10
M  V30 10 2 10 11
M  V30 11 1 11 12
M  V30 12 2 12 13
M  V30 13 1 13 14
M  V30 14 2 14 15
M  V30 15 1 15 16
M  V30 16 1 16 17
M  V30 17 2 17 18
M  V30 18 1 17 19
M  V30 19 2 19 20
M  V30 20 1 20 21
M  V30 21 2 21 22
M  V30 22 1 22 23
M  V30 23 1 22 24
M  V30 24 1 24 25
M  V30 25 2 25 26
M  V30 26 1 26 27
M  V30 27 1 26 28
M  V30 28 2 28 29
M  V30 29 1 29 30
M  V30 30 2 30 31
M  V30 31 1 31 32
M  V30 32 2 24 33
M  V30 33 1 9 34
M  V30 34 1 34 35
M  V30 35 1 35 36
M  V30 36 1 4 37
M  V30 37 2 37 38
M  V30 38 1 38 2
M  V30 39 1 35 5
M  V30 40 1 15 10
M  V30 41 1 33 19
M  V30 42 1 31 25
M  V30 43 1 1 39
M  V30 44 1 1 40
M  V30 45 1 1 41
M  V30 46 1 3 42
M  V30 47 1 5 43 CFG=1
M  V30 48 1 6 44 CFG=3
M  V30 49 1 7 45
M  V30 50 1 7 46
M  V30 51 1 8 47
M  V30 52 1 8 48
M  V30 53 1 11 49
M  V30 54 1 12 50
M  V30 55 1 14 51
M  V30 56 1 16 52
M  V30 57 1 20 53
M  V30 58 1 21 54
M  V30 59 1 28 55
M  V30 60 1 29 56
M  V30 61 1 30 57
M  V30 62 1 34 58
M  V30 63 1 34 59
M  V30 64 1 35 60 CFG=1
M  V30 65 1 36 61
M  V30 66 1 36 62
M  V30 67 1 36 63
M  V30 END BOND
M  V30 END CTAB
M  END
>  <Dataset>  (263) 
ChEMBL_Kinases

>  <Ligand_Instance>  (263) 
nan

>  <PDB_ID>  (263) 
nan

>  <Standardized_SMILES>  (263) 
Cc1cn([C@@H]2[C@H](N)CN(c3ccncc3NC(=O)c3ccc(F)c(-c4c(F)cccc4F)n3)C[C@@H]2C)nn1

>  <Name>  (263) 
nan

>  <Pocket>  (263) 
nan

>  <ATP_Site>  (263) 
nan

>  <Peripheral>  (263) 
nan

>  <Num_H_Atoms_ProtBoundConf>  (263) 
nan

>  <Num_Resolved_Atoms>  (263) 
nan

>  <Num_Not_Resolved_Atoms>  (263) 
nan

$$$$
CHEMBL271059
     RDKit          3D

  0  0  0  0  0  0  0  0  0  0999 V3000
M  V30 BEGIN CTAB
M  V30 COUNTS 49 52 0 0 0
M  V30 BEGIN ATOM
M  V30 1 C 2.279164 -3.008714 5.920535 0
M  V30 2 C 2.294608 -2.355117 4.581941 0
M  V30 3 N 3.174881 -2.501934 3.578783 0
M  V30 4 C 2.778792 -1.709258 2.568026 0
M  V30 5 C 3.474114 -1.578029 1.280457 0
M  V30 6 C 2.651844 -2.011086 0.235720 0
M  V30 7 C 3.096485 -1.978763 -1.077472 0
M  V30 8 C 4.365217 -1.513287 -1.353064 0
M  V30 9 F 4.811292 -1.475613 -2.629830 0
M  V30 10 C 5.166196 -1.088030 -0.304095 0
M  V30 11 C 4.737748 -1.115096 0.999813 0
M  V30 12 C 1.608776 -1.048406 2.964310 0
M  V30 13 C 0.944963 -0.112668 2.062103 0
M  V30 14 C 1.745845 0.986160 1.750025 0
M  V30 15 C 1.241694 1.952665 0.903145 0
M  V30 16 C -0.030689 1.793520 0.400694 0
M  V30 17 N -0.768266 2.568658 -0.436251 0
M  V30 18 C -1.974215 1.948606 -0.617302 0
M  V30 19 N -2.918004 2.587079 -1.458154 0
M  V30 20 N -2.050752 0.805331 0.065482 0
M  V30 21 S -3.374411 -0.281198 0.111729 0
M  V30 22 O -2.996716 -1.437480 1.004172 0
M  V30 23 O -4.583107 0.347922 0.753192 0
M  V30 24 C -3.774669 -0.980107 -1.464290 0
M  V30 25 C -4.346798 -0.007677 -2.443050 0
M  V30 26 C -4.857935 -2.032053 -1.203182 0
M  V30 27 C -0.856701 0.717938 0.686294 0
M  V30 28 C -0.322598 -0.221220 1.530105 0
M  V30 29 N 1.359147 -1.483818 4.208724 0
M  V30 30 H 2.765451 -2.409226 6.692485 0
M  V30 31 H 1.230473 -3.250156 6.241453 0
M  V30 32 H 2.775395 -4.013240 5.877633 0
M  V30 33 H 1.635192 -2.398497 0.320058 0
M  V30 34 H 2.501414 -2.301035 -1.915048 0
M  V30 35 H 6.160642 -0.718421 -0.472390 0
M  V30 36 H 5.263701 -0.815847 1.880376 0
M  V30 37 H 2.753410 1.178556 2.106728 0
M  V30 38 H 1.814619 2.830167 0.622787 0
M  V30 39 H -3.207427 2.717834 -2.450867 0
M  V30 40 H -3.753050 3.223335 -1.394656 0
M  V30 41 H -2.867242 -1.517473 -1.814328 0
M  V30 42 H -4.950416 0.741507 -1.899162 0
M  V30 43 H -3.561519 0.434738 -3.094876 0
M  V30 44 H -5.078598 -0.562655 -3.100469 0
M  V30 45 H -4.725030 -2.880433 -1.913209 0
M  V30 46 H -4.833316 -2.372310 -0.153000 0
M  V30 47 H -5.849859 -1.581016 -1.402737 0
M  V30 48 H -0.869207 -1.083094 1.813023 0
M  V30 49 H 0.512361 -1.098510 4.683235 0
M  V30 END ATOM
M  V30 BEGIN BOND
M  V30 1 1 1 2
M  V30 2 2 2 3
M  V30 3 1 3 4
M  V30 4 1 4 5
M  V30 5 2 5 6
M  V30 6 1 6 7
M  V30 7 2 7 8
M  V30 8 1 8 9
M  V30 9 1 8 10
M  V30 10 2 10 11
M  V30 11 2 4 12
M  V30 12 1 12 13
M  V30 13 2 13 14
M  V30 14 1 14 15
M  V30 15 2 15 16
M  V30 16 1 16 17
M  V30 17 2 17 18
M  V30 18 1 18 19
M  V30 19 1 18 20
M  V30 20 1 20 21
M  V30 21 2 21 22
M  V30 22 2 21 23
M  V30 23 1 21 24
M  V30 24 1 24 25
M  V30 25 1 24 26
M  V30 26 1 20 27
M  V30 27 2 27 28
M  V30 28 1 12 29
M  V30 29 1 29 2
M  V30 30 1 11 5
M  V30 31 1 28 13
M  V30 32 1 27 16
M  V30 33 1 1 30
M  V30 34 1 1 31
M  V30 35 1 1 32
M  V30 36 1 6 33
M  V30 37 1 7 34
M  V30 38 1 10 35
M  V30 39 1 11 36
M  V30 40 1 14 37
M  V30 41 1 15 38
M  V30 42 1 19 39
M  V30 43 1 19 40
M  V30 44 1 24 41
M  V30 45 1 25 42
M  V30 46 1 25 43
M  V30 47 1 25 44
M  V30 48 1 26 45
M  V30 49 1 26 46
M  V30 50 1 26 47
M  V30 51 1 28 48
M  V30 52 1 29 49
M  V30 END BOND
M  V30 END CTAB
M  END
>  <Dataset>  (264) 
ChEMBL_Kinases

>  <Ligand_Instance>  (264) 
nan

>  <PDB_ID>  (264) 
nan

>  <Standardized_SMILES>  (264) 
Cc1nc(-c2ccc(F)cc2)c(-c2ccc3nc(N)n(S(=O)(=O)C(C)C)c3c2)[nH]1

>  <Name>  (264) 
nan

>  <Pocket>  (264) 
nan

>  <ATP_Site>  (264) 
nan

>  <Peripheral>  (264) 
nan

>  <Num_H_Atoms_ProtBoundConf>  (264) 
nan

>  <Num_Resolved_Atoms>  (264) 
nan

>  <Num_Not_Resolved_Atoms>  (264) 
nan

$$$$
CHEMBL4297644
     RDKit          3D

  0  0  0  0  0  0  0  0  0  0999 V3000
M  V30 BEGIN CTAB
M  V30 COUNTS 43 47 0 0 0
M  V30 BEGIN ATOM
M  V30 1 C -1.835851 -6.350563 1.191171 0
M  V30 2 C -0.513042 -6.134592 1.791508 0
M  V30 3 N 0.263809 -7.083989 2.390061 0
M  V30 4 N 1.393837 -6.556780 2.824618 0
M  V30 5 C 1.415564 -5.222989 2.530455 0
M  V30 6 C 0.221790 -4.971566 1.886631 0
M  V30 7 C -0.148518 -3.686706 1.411012 0
M  V30 8 C 0.404948 -2.469110 1.404721 0
M  V30 9 C -0.215726 -1.401644 0.855763 0
M  V30 10 N 0.148557 -0.112106 0.740254 0
M  V30 11 C -0.628946 0.808445 0.147978 0
M  V30 12 C -0.059285 2.204254 0.108693 0 CFG=2
M  V30 13 C 0.843994 2.433354 -1.054854 0
M  V30 14 C 2.130663 3.031944 -0.491401 0
M  V30 15 C 1.744595 4.287637 0.251134 0
M  V30 16 C 0.751016 4.008176 1.342546 0
M  V30 17 N 0.507668 2.557248 1.389009 0
M  V30 18 C 1.787364 1.971415 1.660851 0
M  V30 19 C 2.756255 2.068501 0.506516 0
M  V30 20 N -1.837224 0.556237 -0.388151 0
M  V30 21 C -2.321794 -0.694982 -0.340506 0
M  V30 22 O -3.404577 -1.099332 -0.780223 0
M  V30 23 C -1.490740 -1.610144 0.276867 0
M  V30 24 S -1.754533 -3.461263 0.570286 0
M  V30 25 H -2.209851 -7.358532 1.447208 0
M  V30 26 H -2.566685 -5.634066 1.628789 0
M  V30 27 H -1.814907 -6.290078 0.077788 0
M  V30 28 H 2.173075 -7.045396 3.319043 0
M  V30 29 H 2.220260 -4.509224 2.762570 0
M  V30 30 H 1.377252 -2.396365 1.865904 0
M  V30 31 H -0.944424 2.878164 -0.014227 0
M  V30 32 H 1.026651 1.521054 -1.657918 0
M  V30 33 H 0.447098 3.203351 -1.759768 0
M  V30 34 H 2.858488 3.253763 -1.269727 0
M  V30 35 H 1.295144 4.995841 -0.490747 0
M  V30 36 H 2.687524 4.697817 0.676712 0
M  V30 37 H -0.218435 4.530723 1.174622 0
M  V30 38 H 1.202648 4.258488 2.326588 0
M  V30 39 H 2.242549 2.617879 2.469357 0
M  V30 40 H 1.749821 0.966347 2.127867 0
M  V30 41 H 3.740214 2.499882 0.783305 0
M  V30 42 H 2.975493 1.083513 0.038713 0
M  V30 43 H -2.426772 1.276014 -0.842226 0
M  V30 END ATOM
M  V30 BEGIN BOND
M  V30 1 1 1 2
M  V30 2 2 2 3
M  V30 3 1 3 4
M  V30 4 1 4 5
M  V30 5 2 5 6
M  V30 6 1 6 7
M  V30 7 2 7 8
M  V30 8 1 8 9
M  V30 9 1 9 10
M  V30 10 2 10 11
M  V30 11 1 11 12
M  V30 12 1 12 13
M  V30 13 1 13 14
M  V30 14 1 14 15
M  V30 15 1 15 16
M  V30 16 1 16 17
M  V30 17 1 17 18
M  V30 18 1 18 19
M  V30 19 1 11 20
M  V30 20 1 20 21
M  V30 21 2 21 22
M  V30 22 1 21 23
M  V30 23 1 23 24
M  V30 24 1 6 2
M  V30 25 1 24 7
M  V30 26 2 23 9
M  V30 27 1 17 12
M  V30 28 1 19 14
M  V30 29 1 1 25
M  V30 30 1 1 26
M  V30 31 1 1 27
M  V30 32 1 4 28
M  V30 33 1 5 29
M  V30 34 1 8 30
M  V30 35 1 12 31 CFG=3
M  V30 36 1 13 32
M  V30 37 1 13 33
M  V30 38 1 14 34
M  V30 39 1 15 35
M  V30 40 1 15 36
M  V30 41 1 16 37
M  V30 42 1 16 38
M  V30 43 1 18 39
M  V30 44 1 18 40
M  V30 45 1 19 41
M  V30 46 1 19 42
M  V30 47 1 20 43
M  V30 END BOND
M  V30 END CTAB
M  END
>  <Dataset>  (265) 
ChEMBL_Kinases

>  <Ligand_Instance>  (265) 
nan

>  <PDB_ID>  (265) 
nan

>  <Standardized_SMILES>  (265) 
Cc1n[nH]cc1-c1cc2nc([C@@H]3CC4CCN3CC4)[nH]c(=O)c2s1

>  <Name>  (265) 
SIMUROSERTIB

>  <Pocket>  (265) 
nan

>  <ATP_Site>  (265) 
nan

>  <Peripheral>  (265) 
nan

>  <Num_H_Atoms_ProtBoundConf>  (265) 
nan

>  <Num_Resolved_Atoms>  (265) 
nan

>  <Num_Not_Resolved_Atoms>  (265) 
nan

$$$$
CHEMBL3687419
     RDKit          3D

  0  0  0  0  0  0  0  0  0  0999 V3000
M  V30 BEGIN CTAB
M  V30 COUNTS 56 59 0 0 0
M  V30 BEGIN ATOM
M  V30 1 C 3.585686 -2.713673 2.973510 0
M  V30 2 C 2.797924 -2.847493 1.684422 0 CFG=1
M  V30 3 C 1.986735 -1.582935 1.504648 0
M  V30 4 C 1.516789 -1.322359 0.117000 0 CFG=1
M  V30 5 C 1.921317 0.021006 -0.378864 0
M  V30 6 C 3.109810 0.321689 -1.008640 0
M  V30 7 C 3.450239 1.581016 -1.451972 0
M  V30 8 N 2.597113 2.605899 -1.277861 0
M  V30 9 C 1.410185 2.418975 -0.674220 0
M  V30 10 C 1.096503 1.147963 -0.240972 0
M  V30 11 N -0.164719 0.996604 0.389283 0
M  V30 12 C -0.513910 1.115300 1.741886 0
M  V30 13 O 0.320731 1.396438 2.649851 0
M  V30 14 C -1.926957 0.888394 2.030791 0
M  V30 15 C -2.338900 0.989637 3.355649 0
M  V30 16 C -3.655868 0.790808 3.726592 0
M  V30 17 C -4.600555 0.479257 2.742981 0
M  V30 18 F -5.925459 0.256196 2.945988 0
M  V30 19 C -4.156594 0.387101 1.440527 0
M  V30 20 C -5.015466 0.071192 0.303085 0
M  V30 21 C -5.234391 -1.233327 -0.128824 0
M  V30 22 F -4.615381 -2.234360 0.547098 0
M  V30 23 C -6.038546 -1.539727 -1.193912 0
M  V30 24 C -6.656355 -0.515117 -1.865590 0
M  V30 25 C -6.445959 0.777826 -1.445929 0
M  V30 26 C -5.630118 1.109762 -0.363033 0
M  V30 27 F -5.424938 2.366485 0.045335 0
M  V30 28 N -2.885328 0.585536 1.130448 0
M  V30 29 C 1.745866 -2.439323 -0.834122 0
M  V30 30 C 2.997581 -3.225806 -0.688857 0 CFG=1
M  V30 31 N 3.786111 -3.158079 -1.880225 0
M  V30 32 C 3.762128 -2.842334 0.552846 0
M  V30 33 N 5.023799 -2.571309 0.560863 0
M  V30 34 O 5.721399 -2.636728 -0.647149 0
M  V30 35 H 3.790689 -3.746192 3.353635 0
M  V30 36 H 4.544742 -2.214331 2.747461 0
M  V30 37 H 3.065788 -2.139352 3.754693 0
M  V30 38 H 2.169514 -3.761120 1.683340 0
M  V30 39 H 1.158913 -1.584991 2.277033 0
M  V30 40 H 2.724151 -0.779348 1.820771 0
M  V30 41 H 0.384632 -1.229800 0.207140 0
M  V30 42 H 3.816928 -0.480573 -1.161086 0
M  V30 43 H 4.399703 1.765405 -1.943011 0
M  V30 44 H 0.737442 3.235513 -0.538573 0
M  V30 45 H -0.808603 0.767451 -0.401386 0
M  V30 46 H -1.650885 1.227965 4.155439 0
M  V30 47 H -4.044630 0.852871 4.729110 0
M  V30 48 H -6.223874 -2.548687 -1.548801 0
M  V30 49 H -7.304145 -0.655207 -2.711142 0
M  V30 50 H -6.909349 1.639963 -1.938770 0
M  V30 51 H 0.873133 -3.160670 -0.742163 0
M  V30 52 H 1.677884 -2.115767 -1.899027 0
M  V30 53 H 2.720144 -4.304044 -0.476210 0
M  V30 54 H 3.792801 -4.093424 -2.349598 0
M  V30 55 H 3.411042 -2.495788 -2.595725 0
M  V30 56 H 6.697014 -2.430253 -0.662918 0
M  V30 END ATOM
M  V30 BEGIN BOND
M  V30 1 1 1 2
M  V30 2 1 2 3
M  V30 3 1 3 4
M  V30 4 1 4 5
M  V30 5 2 5 6
M  V30 6 1 6 7
M  V30 7 2 7 8
M  V30 8 1 8 9
M  V30 9 2 9 10
M  V30 10 1 10 11
M  V30 11 1 11 12
M  V30 12 2 12 13
M  V30 13 1 12 14
M  V30 14 2 14 15
M  V30 15 1 15 16
M  V30 16 2 16 17
M  V30 17 1 17 18
M  V30 18 1 17 19
M  V30 19 1 19 20
M  V30 20 2 20 21
M  V30 21 1 21 22
M  V30 22 1 21 23
M  V30 23 2 23 24
M  V30 24 1 24 25
M  V30 25 2 25 26
M  V30 26 1 26 27
M  V30 27 2 19 28
M  V30 28 1 4 29
M  V30 29 1 29 30
M  V30 30 1 30 31
M  V30 31 1 30 32
M  V30 32 2 32 33
M  V30 33 1 33 34
M  V30 34 1 32 2
M  V30 35 1 10 5
M  V30 36 1 28 14
M  V30 37 1 26 20
M  V30 38 1 1 35
M  V30 39 1 1 36
M  V30 40 1 1 37
M  V30 41 1 2 38 CFG=1
M  V30 42 1 3 39
M  V30 43 1 3 40
M  V30 44 1 4 41 CFG=1
M  V30 45 1 6 42
M  V30 46 1 7 43
M  V30 47 1 9 44
M  V30 48 1 11 45
M  V30 49 1 15 46
M  V30 50 1 16 47
M  V30 51 1 23 48
M  V30 52 1 24 49
M  V30 53 1 25 50
M  V30 54 1 29 51
M  V30 55 1 29 52
M  V30 56 1 30 53 CFG=1
M  V30 57 1 31 54
M  V30 58 1 31 55
M  V30 59 1 34 56
M  V30 END BOND
M  V30 END CTAB
M  END
>  <Dataset>  (266) 
ChEMBL_Kinases

>  <Ligand_Instance>  (266) 
nan

>  <PDB_ID>  (266) 
nan

>  <Standardized_SMILES>  (266) 
C[C@H]1C[C@@H](c2ccncc2NC(=O)c2ccc(F)c(-c3c(F)cccc3F)n2)C[C@@H](N)/C1=N\O

>  <Name>  (266) 
nan

>  <Pocket>  (266) 
nan

>  <ATP_Site>  (266) 
nan

>  <Peripheral>  (266) 
nan

>  <Num_H_Atoms_ProtBoundConf>  (266) 
nan

>  <Num_Resolved_Atoms>  (266) 
nan

>  <Num_Not_Resolved_Atoms>  (266) 
nan

$$$$
CHEMBL3687418
     RDKit          3D

  0  0  0  0  0  0  0  0  0  0999 V3000
M  V30 BEGIN CTAB
M  V30 COUNTS 60 64 0 0 0
M  V30 BEGIN ATOM
M  V30 1 C 0.598646 -2.566185 2.195024 0
M  V30 2 C 0.997405 -1.435895 1.268340 0 CFG=1
M  V30 3 C 1.549657 -0.270387 2.010526 0
M  V30 4 N 2.096726 0.679938 1.064772 0
M  V30 5 C 1.671703 2.053917 1.099456 0
M  V30 6 C 2.777210 2.875325 1.336483 0
M  V30 7 C 2.599107 4.259296 1.411321 0
M  V30 8 N 1.364117 4.762614 1.252437 0
M  V30 9 C 0.304218 3.973837 1.025087 0
M  V30 10 C 0.415749 2.601749 0.940550 0
M  V30 11 N -0.576956 1.638590 0.710584 0
M  V30 12 C -0.761605 1.354738 -0.685534 0
M  V30 13 O -0.004770 2.017828 -1.430341 0
M  V30 14 C -1.742763 0.383815 -1.158654 0
M  V30 15 C -1.810263 0.213689 -2.527881 0
M  V30 16 C -2.724453 -0.698632 -3.067671 0
M  V30 17 C -3.547224 -1.416069 -2.212527 0
M  V30 18 F -4.446580 -2.310304 -2.701656 0
M  V30 19 C -3.450436 -1.218407 -0.847686 0
M  V30 20 C -4.281933 -1.935666 0.116365 0
M  V30 21 C -5.481132 -1.299598 0.423062 0
M  V30 22 F -5.846691 -0.114305 -0.126747 0
M  V30 23 C -6.401876 -1.832265 1.321078 0
M  V30 24 C -6.059116 -3.050878 1.906161 0
M  V30 25 C -4.876780 -3.705216 1.621423 0
M  V30 26 C -3.977668 -3.147791 0.720338 0
M  V30 27 F -2.792846 -3.700862 0.368457 0
M  V30 28 N -2.559735 -0.332667 -0.362516 0
M  V30 29 C 3.066413 0.207258 0.103797 0
M  V30 30 C 2.589304 -1.000080 -0.638494 0 CFG=1
M  V30 31 N 3.650669 -1.611972 -1.380167 0
M  V30 32 C 1.861567 -2.001489 0.195523 0 CFG=1
M  V30 33 N 2.754548 -3.069051 0.669420 0
M  V30 34 C 4.087553 -3.062687 0.847593 0
M  V30 35 C 4.494721 -4.296313 1.310650 0
M  V30 36 N 3.375109 -5.032444 1.402668 0
M  V30 37 N 2.357379 -4.282116 1.016886 0
M  V30 38 H 0.070407 -3.369280 1.685013 0
M  V30 39 H 1.447454 -2.969462 2.781306 0
M  V30 40 H -0.123441 -2.177748 2.971638 0
M  V30 41 H 0.039360 -1.090721 0.794318 0
M  V30 42 H 0.699327 0.187372 2.578123 0
M  V30 43 H 2.286856 -0.548863 2.789753 0
M  V30 44 H 3.803007 2.582372 1.477767 0
M  V30 45 H 3.411684 4.948862 1.591942 0
M  V30 46 H -0.726544 4.330818 0.887792 0
M  V30 47 H -1.172865 1.124992 1.405674 0
M  V30 48 H -1.191164 0.750472 -3.209497 0
M  V30 49 H -2.814522 -0.867721 -4.145227 0
M  V30 50 H -7.335182 -1.333775 1.557520 0
M  V30 51 H -6.765206 -3.486854 2.612615 0
M  V30 52 H -4.609746 -4.644577 2.070731 0
M  V30 53 H 4.080854 0.093010 0.563225 0
M  V30 54 H 3.205637 1.028445 -0.642867 0
M  V30 55 H 1.862789 -0.609658 -1.410545 0
M  V30 56 H 3.297917 -2.514198 -1.790959 0
M  V30 57 H 3.850641 -0.990628 -2.212877 0
M  V30 58 H 1.162773 -2.549756 -0.504863 0
M  V30 59 H 4.727944 -2.214684 0.653772 0
M  V30 60 H 5.479719 -4.654697 1.562390 0
M  V30 END ATOM
M  V30 BEGIN BOND
M  V30 1 1 1 2
M  V30 2 1 2 3
M  V30 3 1 3 4
M  V30 4 1 4 5
M  V30 5 2 5 6
M  V30 6 1 6 7
M  V30 7 2 7 8
M  V30 8 1 8 9
M  V30 9 2 9 10
M  V30 10 1 10 11
M  V30 11 1 11 12
M  V30 12 2 12 13
M  V30 13 1 12 14
M  V30 14 2 14 15
M  V30 15 1 15 16
M  V30 16 2 16 17
M  V30 17 1 17 18
M  V30 18 1 17 19
M  V30 19 1 19 20
M  V30 20 2 20 21
M  V30 21 1 21 22
M  V30 22 1 21 23
M  V30 23 2 23 24
M  V30 24 1 24 25
M  V30 25 2 25 26
M  V30 26 1 26 27
M  V30 27 2 19 28
M  V30 28 1 4 29
M  V30 29 1 29 30
M  V30 30 1 30 31
M  V30 31 1 30 32
M  V30 32 1 32 33
M  V30 33 1 33 34
M  V30 34 2 34 35
M  V30 35 1 35 36
M  V30 36 2 36 37
M  V30 37 1 32 2
M  V30 38 1 37 33
M  V30 39 1 10 5
M  V30 40 1 28 14
M  V30 41 1 26 20
M  V30 42 1 1 38
M  V30 43 1 1 39
M  V30 44 1 1 40
M  V30 45 1 2 41 CFG=3
M  V30 46 1 3 42
M  V30 47 1 3 43
M  V30 48 1 6 44
M  V30 49 1 7 45
M  V30 50 1 9 46
M  V30 51 1 11 47
M  V30 52 1 15 48
M  V30 53 1 16 49
M  V30 54 1 23 50
M  V30 55 1 24 51
M  V30 56 1 25 52
M  V30 57 1 29 53
M  V30 58 1 29 54
M  V30 59 1 30 55 CFG=3
M  V30 60 1 31 56
M  V30 61 1 31 57
M  V30 62 1 32 58 CFG=3
M  V30 63 1 34 59
M  V30 64 1 35 60
M  V30 END BOND
M  V30 END CTAB
M  END
>  <Dataset>  (267) 
ChEMBL_Kinases

>  <Ligand_Instance>  (267) 
nan

>  <PDB_ID>  (267) 
nan

>  <Standardized_SMILES>  (267) 
C[C@H]1CN(c2ccncc2NC(=O)c2ccc(F)c(-c3c(F)cccc3F)n2)C[C@@H](N)[C@H]1n1ccnn1

>  <Name>  (267) 
nan

>  <Pocket>  (267) 
nan

>  <ATP_Site>  (267) 
nan

>  <Peripheral>  (267) 
nan

>  <Num_H_Atoms_ProtBoundConf>  (267) 
nan

>  <Num_Resolved_Atoms>  (267) 
nan

>  <Num_Not_Resolved_Atoms>  (267) 
nan

$$$$
CHEMBL270724
     RDKit          3D

  0  0  0  0  0  0  0  0  0  0999 V3000
M  V30 BEGIN CTAB
M  V30 COUNTS 19 19 0 0 0
M  V30 BEGIN ATOM
M  V30 1 O 0.307906 -2.007136 4.922792 0
M  V30 2 C 0.801889 -2.059461 3.773580 0
M  V30 3 O 1.575187 -3.168345 3.386377 0
M  V30 4 C 0.571202 -0.967508 2.842714 0
M  V30 5 C 0.980714 -0.807284 1.610185 0
M  V30 6 C 0.856590 0.175725 0.565663 0
M  V30 7 C 1.514388 -0.142093 -0.623229 0
M  V30 8 C 1.483569 0.698268 -1.702429 0
M  V30 9 Br 2.389873 0.240407 -3.312999 0
M  V30 10 C 0.796957 1.876486 -1.625239 0
M  V30 11 Br 0.775207 3.020806 -3.144755 0
M  V30 12 C 0.133818 2.237254 -0.482190 0
M  V30 13 Br -0.813118 3.884348 -0.406217 0
M  V30 14 C 0.198041 1.366700 0.555958 0
M  V30 15 Br -0.737321 1.914043 2.115331 0
M  V30 16 H 1.345082 -4.064028 3.829956 0
M  V30 17 H -0.022614 -0.132132 3.162193 0
M  V30 18 H 1.561790 -1.718489 1.426464 0
M  V30 19 H 2.079339 -1.055933 -0.763227 0
M  V30 END ATOM
M  V30 BEGIN BOND
M  V30 1 2 1 2
M  V30 2 1 2 3
M  V30 3 1 2 4
M  V30 4 2 4 5
M  V30 5 1 5 6
M  V30 6 2 6 7
M  V30 7 1 7 8
M  V30 8 1 8 9
M  V30 9 2 8 10
M  V30 10 1 10 11
M  V30 11 1 10 12
M  V30 12 1 12 13
M  V30 13 2 12 14
M  V30 14 1 14 15
M  V30 15 1 14 6
M  V30 16 1 3 16
M  V30 17 1 4 17
M  V30 18 1 5 18
M  V30 19 1 7 19
M  V30 END BOND
M  V30 END CTAB
M  END
>  <Dataset>  (268) 
ChEMBL_Kinases

>  <Ligand_Instance>  (268) 
nan

>  <PDB_ID>  (268) 
nan

>  <Standardized_SMILES>  (268) 
O=C(O)/C=C/c1cc(Br)c(Br)c(Br)c1Br

>  <Name>  (268) 
nan

>  <Pocket>  (268) 
nan

>  <ATP_Site>  (268) 
nan

>  <Peripheral>  (268) 
nan

>  <Num_H_Atoms_ProtBoundConf>  (268) 
nan

>  <Num_Resolved_Atoms>  (268) 
nan

>  <Num_Not_Resolved_Atoms>  (268) 
nan

$$$$
CHEMBL258202
     RDKit          3D

  0  0  0  0  0  0  0  0  0  0999 V3000
M  V30 BEGIN CTAB
M  V30 COUNTS 46 47 0 0 0
M  V30 BEGIN ATOM
M  V30 1 C -1.318227 -4.696778 1.440388 0
M  V30 2 C 0.057470 -4.044213 1.217772 0
M  V30 3 C 0.596093 -4.551013 -0.081418 0 CFG=1
M  V30 4 C -0.353058 -4.194243 -1.228920 0
M  V30 5 N 1.922091 -4.100025 -0.415221 0
M  V30 6 C 2.540406 -2.847431 -0.823540 0
M  V30 7 N 3.592359 -2.260905 -1.193337 0
M  V30 8 C 3.524994 -0.946479 -1.401203 0
M  V30 9 C 2.344290 -0.199638 -1.233410 0
M  V30 10 C 2.227769 1.321669 -1.240984 0
M  V30 11 O 2.792210 2.370089 -1.546952 0
M  V30 12 N 1.076302 1.896375 -0.666088 0
M  V30 13 C -0.126013 2.504247 -0.065476 0
M  V30 14 C 0.522388 2.578753 1.207390 0
M  V30 15 C -0.485424 2.468975 2.253424 0
M  V30 16 C 0.214646 2.514132 3.562128 0
M  V30 17 O 0.978843 3.413334 3.976912 0
M  V30 18 N -0.060486 1.358968 4.380921 0
M  V30 19 C 0.612647 1.427693 5.654952 0
M  V30 20 C -1.909774 2.308728 1.995341 0
M  V30 21 C -2.079128 2.316933 0.649393 0
M  V30 22 C -1.355196 2.402062 -0.498107 0
M  V30 23 C -1.766947 2.390448 -1.876916 0
M  V30 24 S 1.273852 -1.573363 -0.737375 0
M  V30 25 H -1.630053 -4.548372 2.518466 0
M  V30 26 H -2.098075 -4.229094 0.798088 0
M  V30 27 H -1.243396 -5.759256 1.197033 0
M  V30 28 H 0.670290 -4.538211 2.036490 0
M  V30 29 H 0.029860 -2.989072 1.384674 0
M  V30 30 H 0.642148 -5.632771 -0.068304 0
M  V30 31 H -0.967115 -5.067062 -1.496189 0
M  V30 32 H 0.202281 -3.899576 -2.113512 0
M  V30 33 H -1.065605 -3.419475 -0.865885 0
M  V30 34 H 2.728879 -4.781129 -0.356382 0
M  V30 35 H 4.358551 -0.345410 -1.720642 0
M  V30 36 H 0.643264 0.927469 -0.924972 0
M  V30 37 H 1.530855 2.732691 1.518842 0
M  V30 38 H -0.692910 0.594453 4.085854 0
M  V30 39 H 0.075785 2.099241 6.297620 0
M  V30 40 H 0.687773 0.455689 6.132341 0
M  V30 41 H 1.660501 1.797549 5.535825 0
M  V30 42 H -2.439126 2.205883 2.887407 0
M  V30 43 H -3.186146 2.190889 0.509930 0
M  V30 44 H -1.304429 3.236733 -2.462138 0
M  V30 45 H -2.868636 2.630981 -1.942106 0
M  V30 46 H -1.668508 1.433062 -2.394211 0
M  V30 END ATOM
M  V30 BEGIN BOND
M  V30 1 1 1 2
M  V30 2 1 2 3
M  V30 3 1 3 4
M  V30 4 1 3 5
M  V30 5 1 5 6
M  V30 6 2 6 7
M  V30 7 1 7 8
M  V30 8 2 8 9
M  V30 9 1 9 10
M  V30 10 2 10 11
M  V30 11 1 10 12
M  V30 12 1 12 13
M  V30 13 2 13 14
M  V30 14 1 14 15
M  V30 15 1 15 16
M  V30 16 2 16 17
M  V30 17 1 16 18
M  V30 18 1 18 19
M  V30 19 2 15 20
M  V30 20 1 20 21
M  V30 21 2 21 22
M  V30 22 1 22 23
M  V30 23 1 9 24
M  V30 24 1 24 6
M  V30 25 1 22 13
M  V30 26 1 1 25
M  V30 27 1 1 26
M  V30 28 1 1 27
M  V30 29 1 2 28
M  V30 30 1 2 29
M  V30 31 1 3 30 CFG=1
M  V30 32 1 4 31
M  V30 33 1 4 32
M  V30 34 1 4 33
M  V30 35 1 5 34
M  V30 36 1 8 35
M  V30 37 1 12 36
M  V30 38 1 14 37
M  V30 39 1 18 38
M  V30 40 1 19 39
M  V30 41 1 19 40
M  V30 42 1 19 41
M  V30 43 1 20 42
M  V30 44 1 21 43
M  V30 45 1 23 44
M  V30 46 1 23 45
M  V30 47 1 23 46
M  V30 END BOND
M  V30 END CTAB
M  END
>  <Dataset>  (269) 
ChEMBL_Kinases

>  <Ligand_Instance>  (269) 
nan

>  <PDB_ID>  (269) 
nan

>  <Standardized_SMILES>  (269) 
CC[C@@H](C)Nc1ncc(C(=O)Nc2cc(C(=O)NC)ccc2C)s1

>  <Name>  (269) 
nan

>  <Pocket>  (269) 
nan

>  <ATP_Site>  (269) 
nan

>  <Peripheral>  (269) 
nan

>  <Num_H_Atoms_ProtBoundConf>  (269) 
nan

>  <Num_Resolved_Atoms>  (269) 
nan

>  <Num_Not_Resolved_Atoms>  (269) 
nan

$$$$
CHEMBL4434981
     RDKit          3D

  0  0  0  0  0  0  0  0  0  0999 V3000
M  V30 BEGIN CTAB
M  V30 COUNTS 52 55 0 0 0
M  V30 BEGIN ATOM
M  V30 1 C 2.752666 -0.328845 2.777725 0
M  V30 2 N 4.018553 -0.221576 2.079082 0
M  V30 3 N 5.021387 -1.078430 2.120175 0
M  V30 4 C 6.023385 -0.651168 1.335529 0
M  V30 5 C 7.234062 -1.510671 1.271859 0
M  V30 6 F 6.921812 -2.824515 0.989971 0
M  V30 7 F 8.100548 -0.984965 0.355168 0
M  V30 8 F 7.853270 -1.397099 2.509401 0
M  V30 9 C 5.598816 0.529314 0.791439 0
M  V30 10 C 4.331019 0.802526 1.261946 0
M  V30 11 N 3.611837 1.965616 0.895911 0
M  V30 12 C 2.341419 2.394328 1.342832 0
M  V30 13 N 2.134516 3.421954 2.213284 0
M  V30 14 C 0.858975 3.722746 2.569683 0
M  V30 15 C -0.251807 3.029575 2.085854 0
M  V30 16 C 0.015768 2.004882 1.212434 0
M  V30 17 C -1.061651 1.197007 0.651672 0
M  V30 18 C -2.404476 1.404034 0.930786 0
M  V30 19 C -3.322340 0.555024 0.355987 0
M  V30 20 N -3.009243 -0.463190 -0.459293 0
M  V30 21 C -3.868091 -1.431158 -1.093147 0 CFG=2
M  V30 22 C -5.247376 -1.528033 -0.498331 0
M  V30 23 O -5.932266 -2.506242 -1.232644 0
M  V30 24 C -3.277590 -2.807419 -1.003216 0
M  V30 25 C -2.895406 -3.739587 -1.945606 0
M  V30 26 C -2.352838 -4.916594 -1.537707 0
M  V30 27 C -2.159301 -5.238059 -0.210701 0
M  V30 28 Cl -1.455437 -6.782503 0.204427 0
M  V30 29 C -2.537624 -4.312252 0.769237 0
M  V30 30 F -2.321711 -4.682741 2.053495 0
M  V30 31 C -3.088350 -3.117571 0.346503 0
M  V30 32 C -1.696122 -0.703744 -0.762789 0
M  V30 33 O -1.240061 -1.604653 -1.502295 0
M  V30 34 C -0.739972 0.138172 -0.196615 0
M  V30 35 N 1.300112 1.726581 0.875742 0
M  V30 36 H 2.412293 0.628798 3.211135 0
M  V30 37 H 2.779522 -1.064068 3.624452 0
M  V30 38 H 1.949599 -0.730964 2.089745 0
M  V30 39 H 6.274451 1.057659 0.109982 0
M  V30 40 H 3.963625 2.666680 0.215879 0
M  V30 41 H 0.722604 4.531359 3.252153 0
M  V30 42 H -1.228114 3.310095 2.395693 0
M  V30 43 H -2.702437 2.194427 1.568430 0
M  V30 44 H -4.373836 0.629071 0.505066 0
M  V30 45 H -3.993041 -1.183762 -2.165609 0
M  V30 46 H -5.143624 -1.822993 0.559954 0
M  V30 47 H -5.812107 -0.591356 -0.594334 0
M  V30 48 H -6.531265 -2.123137 -1.907657 0
M  V30 49 H -3.105877 -3.355236 -2.932914 0
M  V30 50 H -2.083346 -5.584120 -2.325327 0
M  V30 51 H -3.326983 -2.506323 1.224986 0
M  V30 52 H 0.306392 -0.013417 -0.405740 0
M  V30 END ATOM
M  V30 BEGIN BOND
M  V30 1 1 1 2
M  V30 2 1 2 3
M  V30 3 2 3 4
M  V30 4 1 4 5
M  V30 5 1 5 6
M  V30 6 1 5 7
M  V30 7 1 5 8
M  V30 8 1 4 9
M  V30 9 2 9 10
M  V30 10 1 10 11
M  V30 11 1 11 12
M  V30 12 2 12 13
M  V30 13 1 13 14
M  V30 14 2 14 15
M  V30 15 1 15 16
M  V30 16 1 16 17
M  V30 17 1 17 18
M  V30 18 2 18 19
M  V30 19 1 19 20
M  V30 20 1 20 21
M  V30 21 1 21 22
M  V30 22 1 22 23
M  V30 23 1 21 24
M  V30 24 2 24 25
M  V30 25 1 25 26
M  V30 26 2 26 27
M  V30 27 1 27 28
M  V30 28 1 27 29
M  V30 29 1 29 30
M  V30 30 2 29 31
M  V30 31 1 20 32
M  V30 32 2 32 33
M  V30 33 1 32 34
M  V30 34 2 16 35
M  V30 35 1 10 2
M  V30 36 1 35 12
M  V30 37 2 34 17
M  V30 38 1 31 24
M  V30 39 1 1 36
M  V30 40 1 1 37
M  V30 41 1 1 38
M  V30 42 1 9 39
M  V30 43 1 11 40
M  V30 44 1 14 41
M  V30 45 1 15 42
M  V30 46 1 18 43
M  V30 47 1 19 44
M  V30 48 1 21 45 CFG=3
M  V30 49 1 22 46
M  V30 50 1 22 47
M  V30 51 1 23 48
M  V30 52 1 25 49
M  V30 53 1 26 50
M  V30 54 1 31 51
M  V30 55 1 34 52
M  V30 END BOND
M  V30 END CTAB
M  END
>  <Dataset>  (270) 
ChEMBL_Kinases

>  <Ligand_Instance>  (270) 
nan

>  <PDB_ID>  (270) 
nan

>  <Standardized_SMILES>  (270) 
Cn1nc(C(F)(F)F)cc1Nc1nccc(-c2ccn([C@H](CO)c3ccc(Cl)c(F)c3)c(=O)c2)n1

>  <Name>  (270) 
nan

>  <Pocket>  (270) 
nan

>  <ATP_Site>  (270) 
nan

>  <Peripheral>  (270) 
nan

>  <Num_H_Atoms_ProtBoundConf>  (270) 
nan

>  <Num_Resolved_Atoms>  (270) 
nan

>  <Num_Not_Resolved_Atoms>  (270) 
nan

$$$$
CHEMBL4434915
     RDKit          3D

  0  0  0  0  0  0  0  0  0  0999 V3000
M  V30 BEGIN CTAB
M  V30 COUNTS 58 62 0 0 0
M  V30 BEGIN ATOM
M  V30 1 O 0.134603 -4.417116 -1.982769 0
M  V30 2 C -0.605529 -3.565839 -1.423087 0
M  V30 3 C -0.153646 -2.568695 -0.454196 0
M  V30 4 C 1.071887 -2.261515 0.104470 0
M  V30 5 C 1.276576 -1.270691 1.011313 0
M  V30 6 C 2.561640 -0.929998 1.610462 0
M  V30 7 C 3.724450 -1.591124 1.307894 0
M  V30 8 C 4.964406 -1.307300 1.843585 0
M  V30 9 N 5.047588 -0.296939 2.740063 0
M  V30 10 C 3.903453 0.376053 3.057402 0
M  V30 11 N 3.946954 1.461298 4.006354 0
M  V30 12 C 2.792401 2.234755 4.415924 0
M  V30 13 C 3.159906 3.310168 5.409579 0
M  V30 14 C 1.890185 4.125812 5.665461 0
M  V30 15 O 1.522042 4.834067 4.525102 0
M  V30 16 C 2.157205 4.361932 3.388272 0
M  V30 17 C 2.066605 2.853682 3.273541 0
M  V30 18 N 2.710936 0.065223 2.509386 0
M  V30 19 C 0.173955 -0.522489 1.395905 0
M  V30 20 C -1.094456 -0.785262 0.865330 0
M  V30 21 C -1.242455 -1.809560 -0.057025 0
M  V30 22 C -2.479830 -2.273577 -0.756517 0
M  V30 23 N -2.005929 -3.356823 -1.575240 0
M  V30 24 C -2.880110 -4.147944 -2.460609 0
M  V30 25 C -3.920729 -4.842032 -1.660884 0
M  V30 26 O -4.750387 -5.610594 -2.473842 0
M  V30 27 C -3.426791 -3.245760 -3.508100 0
M  V30 28 C -2.374979 -2.481506 -4.030475 0
M  V30 29 C -2.601207 -1.539263 -5.038441 0
M  V30 30 C -3.868882 -1.343680 -5.539277 0
M  V30 31 C -4.891292 -2.104104 -5.013638 0
M  V30 32 Cl -6.573743 -1.979119 -5.541763 0
M  V30 33 C -4.687643 -3.036657 -4.020842 0
M  V30 34 H 1.906894 -2.854115 -0.209270 0
M  V30 35 H 3.724578 -2.404783 0.601375 0
M  V30 36 H 5.855428 -1.863068 1.568936 0
M  V30 37 H 4.881665 1.711901 4.433576 0
M  V30 38 H 2.058606 1.577123 4.972751 0
M  V30 39 H 3.996820 3.927466 5.070018 0
M  V30 40 H 3.452349 2.799597 6.352701 0
M  V30 41 H 1.059607 3.444857 5.932620 0
M  V30 42 H 2.067141 4.895270 6.460520 0
M  V30 43 H 3.204932 4.674275 3.371139 0
M  V30 44 H 1.591154 4.833151 2.529660 0
M  V30 45 H 0.990823 2.553976 3.309212 0
M  V30 46 H 2.466901 2.510943 2.278261 0
M  V30 47 H 0.296243 0.282933 2.122500 0
M  V30 48 H -1.939367 -0.180969 1.186531 0
M  V30 49 H -3.163736 -2.629958 0.065215 0
M  V30 50 H -2.940347 -1.436548 -1.314435 0
M  V30 51 H -2.262133 -4.917901 -2.971652 0
M  V30 52 H -3.436436 -5.533105 -0.954386 0
M  V30 53 H -4.601923 -4.153014 -1.116307 0
M  V30 54 H -4.258127 -5.862757 -3.294718 0
M  V30 55 H -1.323958 -2.495602 -3.765365 0
M  V30 56 H -1.841871 -0.915836 -5.488431 0
M  V30 57 H -4.181831 -0.657151 -6.309131 0
M  V30 58 H -5.405985 -3.679939 -3.537395 0
M  V30 END ATOM
M  V30 BEGIN BOND
M  V30 1 2 1 2
M  V30 2 1 2 3
M  V30 3 2 3 4
M  V30 4 1 4 5
M  V30 5 1 5 6
M  V30 6 2 6 7
M  V30 7 1 7 8
M  V30 8 2 8 9
M  V30 9 1 9 10
M  V30 10 1 10 11
M  V30 11 1 11 12
M  V30 12 1 12 13
M  V30 13 1 13 14
M  V30 14 1 14 15
M  V30 15 1 15 16
M  V30 16 1 16 17
M  V30 17 2 10 18
M  V30 18 2 5 19
M  V30 19 1 19 20
M  V30 20 2 20 21
M  V30 21 1 21 22
M  V30 22 1 22 23
M  V30 23 1 23 24
M  V30 24 1 24 25
M  V30 25 1 25 26
M  V30 26 1 24 27
M  V30 27 2 27 28
M  V30 28 1 28 29
M  V30 29 2 29 30
M  V30 30 1 30 31
M  V30 31 1 31 32
M  V30 32 2 31 33
M  V30 33 1 23 2
M  V30 34 1 33 27
M  V30 35 1 21 3
M  V30 36 1 18 6
M  V30 37 1 17 12
M  V30 38 1 4 34
M  V30 39 1 7 35
M  V30 40 1 8 36
M  V30 41 1 11 37
M  V30 42 1 12 38
M  V30 43 1 13 39
M  V30 44 1 13 40
M  V30 45 1 14 41
M  V30 46 1 14 42
M  V30 47 1 16 43
M  V30 48 1 16 44
M  V30 49 1 17 45
M  V30 50 1 17 46
M  V30 51 1 19 47
M  V30 52 1 20 48
M  V30 53 1 22 49
M  V30 54 1 22 50
M  V30 55 1 24 51
M  V30 56 1 25 52
M  V30 57 1 25 53
M  V30 58 1 26 54
M  V30 59 1 28 55
M  V30 60 1 29 56
M  V30 61 1 30 57
M  V30 62 1 33 58
M  V30 END BOND
M  V30 END CTAB
M  END
>  <Dataset>  (271) 
ChEMBL_Kinases

>  <Ligand_Instance>  (271) 
nan

>  <PDB_ID>  (271) 
nan

>  <Standardized_SMILES>  (271) 
O=C1c2cc(-c3ccnc(NC4CCOCC4)n3)ccc2CN1C(CO)c1cccc(Cl)c1

>  <Name>  (271) 
nan

>  <Pocket>  (271) 
nan

>  <ATP_Site>  (271) 
nan

>  <Peripheral>  (271) 
nan

>  <Num_H_Atoms_ProtBoundConf>  (271) 
nan

>  <Num_Resolved_Atoms>  (271) 
nan

>  <Num_Not_Resolved_Atoms>  (271) 
nan

$$$$
CHEMBL3687476
     RDKit          3D

  0  0  0  0  0  0  0  0  0  0999 V3000
M  V30 BEGIN CTAB
M  V30 COUNTS 64 68 0 0 0
M  V30 BEGIN ATOM
M  V30 1 C 3.448902 -0.784885 2.551713 0
M  V30 2 C 2.456870 -0.420029 1.474462 0 CFG=1
M  V30 3 C 3.113802 -0.594180 0.143553 0
M  V30 4 N 2.694469 -1.782414 -0.573301 0
M  V30 5 C 2.529802 -1.911978 -1.980089 0
M  V30 6 C 3.438232 -2.831847 -2.520668 0
M  V30 7 C 3.376780 -3.034362 -3.905154 0
M  V30 8 N 2.490345 -2.384635 -4.707102 0
M  V30 9 C 1.617550 -1.495144 -4.156632 0
M  V30 10 C 1.637282 -1.260016 -2.798380 0
M  V30 11 N 0.725781 -0.342597 -2.221473 0
M  V30 12 C 0.587825 1.030238 -1.889622 0
M  V30 13 O 1.495865 1.883861 -2.110483 0
M  V30 14 C -0.691271 1.367157 -1.273598 0
M  V30 15 C -0.859720 2.687283 -0.919812 0
M  V30 16 C -2.037420 3.129873 -0.326383 0
M  V30 17 C -3.056171 2.231574 -0.087068 0
M  V30 18 F -4.227091 2.647295 0.498112 0
M  V30 19 C -2.861539 0.915825 -0.451118 0
M  V30 20 C -3.901325 -0.084489 -0.233840 0
M  V30 21 C -4.723256 -0.144247 -1.346681 0
M  V30 22 F -4.634235 0.584078 -2.497113 0
M  V30 23 C -5.805374 -1.031846 -1.388432 0
M  V30 24 C -6.052917 -1.853199 -0.309773 0
M  V30 25 C -5.231718 -1.776571 0.772453 0
M  V30 26 C -4.162781 -0.912977 0.837228 0
M  V30 27 F -3.275112 -0.736756 1.845313 0
M  V30 28 N -1.714126 0.504076 -1.025021 0
M  V30 29 C 2.432653 -2.931573 0.267310 0
M  V30 30 C 1.439934 -2.700399 1.355470 0 CFG=1
M  V30 31 N 1.836679 -3.321196 2.611922 0
M  V30 32 C 1.204358 -1.237870 1.536000 0 CFG=1
M  V30 33 N 0.455834 -0.960398 2.773967 0
M  V30 34 C -0.383263 0.080647 2.915063 0
M  V30 35 C -0.943912 0.091598 4.183076 0
M  V30 36 C -1.915578 1.094025 4.696058 0
M  V30 37 O -1.220637 2.165584 5.293690 0
M  V30 38 N -0.392867 -0.988532 4.769728 0
M  V30 39 N 0.420061 -1.594542 3.943698 0
M  V30 40 H 4.013428 0.150419 2.807429 0
M  V30 41 H 4.209407 -1.488796 2.181140 0
M  V30 42 H 2.956848 -1.080948 3.500444 0
M  V30 43 H 2.172572 0.646234 1.634345 0
M  V30 44 H 4.234665 -0.727165 0.258561 0
M  V30 45 H 3.005078 0.339861 -0.447079 0
M  V30 46 H 4.183740 -3.400565 -1.967730 0
M  V30 47 H 4.026462 -3.720740 -4.443034 0
M  V30 48 H 0.893584 -0.952138 -4.746344 0
M  V30 49 H -0.037629 -1.058265 -2.033695 0
M  V30 50 H -0.055956 3.413331 -1.105541 0
M  V30 51 H -2.153334 4.177715 -0.053019 0
M  V30 52 H -6.490399 -1.137196 -2.218424 0
M  V30 53 H -6.868680 -2.569467 -0.259902 0
M  V30 54 H -5.364185 -2.391306 1.658351 0
M  V30 55 H 2.139082 -3.809394 -0.370745 0
M  V30 56 H 3.438271 -3.204190 0.704378 0
M  V30 57 H 0.455896 -3.162732 1.075476 0
M  V30 58 H 1.006938 -3.721196 3.065783 0
M  V30 59 H 2.450392 -4.142399 2.369943 0
M  V30 60 H 0.563826 -0.908539 0.690430 0
M  V30 61 H -0.596870 0.812658 2.148010 0
M  V30 62 H -2.605325 0.623619 5.428707 0
M  V30 63 H -2.505683 1.489921 3.859993 0
M  V30 64 H -1.174374 2.939467 4.649160 0
M  V30 END ATOM
M  V30 BEGIN BOND
M  V30 1 1 1 2
M  V30 2 1 2 3
M  V30 3 1 3 4
M  V30 4 1 4 5
M  V30 5 2 5 6
M  V30 6 1 6 7
M  V30 7 2 7 8
M  V30 8 1 8 9
M  V30 9 2 9 10
M  V30 10 1 10 11
M  V30 11 1 11 12
M  V30 12 2 12 13
M  V30 13 1 12 14
M  V30 14 2 14 15
M  V30 15 1 15 16
M  V30 16 2 16 17
M  V30 17 1 17 18
M  V30 18 1 17 19
M  V30 19 1 19 20
M  V30 20 2 20 21
M  V30 21 1 21 22
M  V30 22 1 21 23
M  V30 23 2 23 24
M  V30 24 1 24 25
M  V30 25 2 25 26
M  V30 26 1 26 27
M  V30 27 2 19 28
M  V30 28 1 4 29
M  V30 29 1 29 30
M  V30 30 1 30 31
M  V30 31 1 30 32
M  V30 32 1 32 33
M  V30 33 1 33 34
M  V30 34 2 34 35
M  V30 35 1 35 36
M  V30 36 1 36 37
M  V30 37 1 35 38
M  V30 38 2 38 39
M  V30 39 1 32 2
M  V30 40 1 39 33
M  V30 41 1 10 5
M  V30 42 1 28 14
M  V30 43 1 26 20
M  V30 44 1 1 40
M  V30 45 1 1 41
M  V30 46 1 1 42
M  V30 47 1 2 43 CFG=1
M  V30 48 1 3 44
M  V30 49 1 3 45
M  V30 50 1 6 46
M  V30 51 1 7 47
M  V30 52 1 9 48
M  V30 53 1 11 49
M  V30 54 1 15 50
M  V30 55 1 16 51
M  V30 56 1 23 52
M  V30 57 1 24 53
M  V30 58 1 25 54
M  V30 59 1 29 55
M  V30 60 1 29 56
M  V30 61 1 30 57 CFG=3
M  V30 62 1 31 58
M  V30 63 1 31 59
M  V30 64 1 32 60 CFG=3
M  V30 65 1 34 61
M  V30 66 1 36 62
M  V30 67 1 36 63
M  V30 68 1 37 64
M  V30 END BOND
M  V30 END CTAB
M  END
>  <Dataset>  (272) 
ChEMBL_Kinases

>  <Ligand_Instance>  (272) 
nan

>  <PDB_ID>  (272) 
nan

>  <Standardized_SMILES>  (272) 
C[C@H]1CN(c2ccncc2NC(=O)c2ccc(F)c(-c3c(F)cccc3F)n2)C[C@@H](N)[C@H]1n1cc(CO)nn1

>  <Name>  (272) 
nan

>  <Pocket>  (272) 
nan

>  <ATP_Site>  (272) 
nan

>  <Peripheral>  (272) 
nan

>  <Num_H_Atoms_ProtBoundConf>  (272) 
nan

>  <Num_Resolved_Atoms>  (272) 
nan

>  <Num_Not_Resolved_Atoms>  (272) 
nan

$$$$
CHEMBL3687475
     RDKit          3D

  0  0  0  0  0  0  0  0  0  0999 V3000
M  V30 BEGIN CTAB
M  V30 COUNTS 64 67 0 0 0
M  V30 BEGIN ATOM
M  V30 1 C 2.773294 -3.362261 3.648963 0
M  V30 2 C 2.298150 -2.155367 2.937444 0
M  V30 3 O 1.178817 -2.550370 2.500577 0
M  V30 4 N 3.019607 -0.906023 2.838238 0
M  V30 5 C 4.294335 -1.027824 3.581945 0
M  V30 6 C 2.727875 0.341826 2.169661 0 CFG=2
M  V30 7 C 1.541828 1.025329 2.750832 0 CFG=2
M  V30 8 N 1.262061 0.602079 4.110858 0
M  V30 9 C 0.335972 0.831173 1.865170 0
M  V30 10 N 0.584264 1.588020 0.642733 0
M  V30 11 C -0.159545 2.606265 -0.016357 0
M  V30 12 C 0.472104 3.828203 -0.173021 0
M  V30 13 C -0.262126 4.810071 -0.815436 0
M  V30 14 N -1.519197 4.598651 -1.265755 0
M  V30 15 C -2.105003 3.390183 -1.094653 0
M  V30 16 C -1.440478 2.358885 -0.464281 0
M  V30 17 N -2.075536 1.112173 -0.300611 0
M  V30 18 C -2.899959 0.477237 0.668940 0
M  V30 19 O -3.233975 1.070889 1.716691 0
M  V30 20 C -3.278685 -0.880153 0.293995 0
M  V30 21 C -4.077994 -1.556605 1.187187 0
M  V30 22 C -4.511498 -2.849591 0.958734 0
M  V30 23 C -4.142555 -3.504663 -0.198120 0
M  V30 24 F -4.471948 -4.746218 -0.571085 0
M  V30 25 C -3.342090 -2.791264 -1.064940 0
M  V30 26 C -2.819956 -3.274200 -2.360707 0
M  V30 27 C -1.630338 -3.936177 -2.594572 0
M  V30 28 F -0.892829 -4.144886 -1.487912 0
M  V30 29 C -1.324899 -4.304558 -3.885923 0
M  V30 30 C -2.201561 -4.011381 -4.921327 0
M  V30 31 C -3.404560 -3.347153 -4.716864 0
M  V30 32 C -3.682776 -2.991178 -3.414040 0
M  V30 33 F -4.881879 -2.338617 -3.269320 0
M  V30 34 N -2.935236 -1.545151 -0.825403 0
M  V30 35 C 1.817404 1.232328 -0.016780 0
M  V30 36 C 2.674224 0.244445 0.683634 0 CFG=2
M  V30 37 C 2.451460 -1.130147 0.114262 0
M  V30 38 H 2.075576 -3.732445 4.430607 0
M  V30 39 H 2.921699 -4.204422 2.922415 0
M  V30 40 H 3.738989 -3.161980 4.191600 0
M  V30 41 H 4.885353 -1.856087 3.142654 0
M  V30 42 H 4.843775 -0.074469 3.528070 0
M  V30 43 H 4.119932 -1.223685 4.653973 0
M  V30 44 H 3.617997 1.017902 2.461670 0
M  V30 45 H 1.700608 2.125880 2.795331 0
M  V30 46 H 1.571147 1.305794 4.803600 0
M  V30 47 H 0.247070 0.429303 4.260807 0
M  V30 48 H -0.514306 1.268831 2.438411 0
M  V30 49 H 0.095366 -0.217461 1.640618 0
M  V30 50 H 1.474816 4.047526 0.168761 0
M  V30 51 H 0.123823 5.820827 -1.001831 0
M  V30 52 H -3.119247 3.189245 -1.447591 0
M  V30 53 H -1.745143 0.683401 -1.215129 0
M  V30 54 H -4.402339 -1.093258 2.117464 0
M  V30 55 H -5.142949 -3.414424 1.640905 0
M  V30 56 H -0.399610 -4.812260 -4.023308 0
M  V30 57 H -1.956193 -4.304079 -5.938960 0
M  V30 58 H -4.060933 -3.137019 -5.550287 0
M  V30 59 H 2.404911 2.184502 -0.158945 0
M  V30 60 H 1.542183 0.810005 -1.007406 0
M  V30 61 H 3.738748 0.499042 0.340259 0
M  V30 62 H 2.879158 -1.139205 -0.943014 0
M  V30 63 H 1.404737 -1.427981 0.055084 0
M  V30 64 H 3.028524 -1.932836 0.615202 0
M  V30 END ATOM
M  V30 BEGIN BOND
M  V30 1 1 1 2
M  V30 2 2 2 3
M  V30 3 1 2 4
M  V30 4 1 4 5
M  V30 5 1 4 6
M  V30 6 1 6 7
M  V30 7 1 7 8
M  V30 8 1 7 9
M  V30 9 1 9 10
M  V30 10 1 10 11
M  V30 11 2 11 12
M  V30 12 1 12 13
M  V30 13 2 13 14
M  V30 14 1 14 15
M  V30 15 2 15 16
M  V30 16 1 16 17
M  V30 17 1 17 18
M  V30 18 2 18 19
M  V30 19 1 18 20
M  V30 20 2 20 21
M  V30 21 1 21 22
M  V30 22 2 22 23
M  V30 23 1 23 24
M  V30 24 1 23 25
M  V30 25 1 25 26
M  V30 26 2 26 27
M  V30 27 1 27 28
M  V30 28 1 27 29
M  V30 29 2 29 30
M  V30 30 1 30 31
M  V30 31 2 31 32
M  V30 32 1 32 33
M  V30 33 2 25 34
M  V30 34 1 10 35
M  V30 35 1 35 36
M  V30 36 1 36 37
M  V30 37 1 36 6
M  V30 38 1 16 11
M  V30 39 1 34 20
M  V30 40 1 32 26
M  V30 41 1 1 38
M  V30 42 1 1 39
M  V30 43 1 1 40
M  V30 44 1 5 41
M  V30 45 1 5 42
M  V30 46 1 5 43
M  V30 47 1 6 44 CFG=3
M  V30 48 1 7 45 CFG=1
M  V30 49 1 8 46
M  V30 50 1 8 47
M  V30 51 1 9 48
M  V30 52 1 9 49
M  V30 53 1 12 50
M  V30 54 1 13 51
M  V30 55 1 15 52
M  V30 56 1 17 53
M  V30 57 1 21 54
M  V30 58 1 22 55
M  V30 59 1 29 56
M  V30 60 1 30 57
M  V30 61 1 31 58
M  V30 62 1 35 59
M  V30 63 1 35 60
M  V30 64 1 36 61 CFG=3
M  V30 65 1 37 62
M  V30 66 1 37 63
M  V30 67 1 37 64
M  V30 END BOND
M  V30 END CTAB
M  END
>  <Dataset>  (273) 
ChEMBL_Kinases

>  <Ligand_Instance>  (273) 
nan

>  <PDB_ID>  (273) 
nan

>  <Standardized_SMILES>  (273) 
CC(=O)N(C)[C@@H]1[C@H](N)CN(c2ccncc2NC(=O)c2ccc(F)c(-c3c(F)cccc3F)n2)C[C@@H]1C

>  <Name>  (273) 
nan

>  <Pocket>  (273) 
nan

>  <ATP_Site>  (273) 
nan

>  <Peripheral>  (273) 
nan

>  <Num_H_Atoms_ProtBoundConf>  (273) 
nan

>  <Num_Resolved_Atoms>  (273) 
nan

>  <Num_Not_Resolved_Atoms>  (273) 
nan

$$$$
CHEMBL4434871
     RDKit          3D

  0  0  0  0  0  0  0  0  0  0999 V3000
M  V30 BEGIN CTAB
M  V30 COUNTS 83 87 0 0 0
M  V30 BEGIN ATOM
M  V30 1 C 4.440539 -3.023270 7.363732 0
M  V30 2 C 5.495195 -2.357237 6.928505 0
M  V30 3 C 5.417479 -1.410906 5.827598 0
M  V30 4 O 6.480479 -0.846305 5.508322 0
M  V30 5 N 4.236178 -1.107705 5.122588 0
M  V30 6 C 4.026305 -0.230182 4.058402 0
M  V30 7 C 4.960058 0.559398 3.439539 0
M  V30 8 C 4.712826 1.418052 2.380863 0
M  V30 9 C 3.435082 1.507295 1.888634 0
M  V30 10 C 3.189911 2.405942 0.772678 0
M  V30 11 O 4.153375 3.057716 0.300562 0
M  V30 12 N 1.882410 2.501070 0.274872 0
M  V30 13 C 1.234193 3.218782 -0.756139 0
M  V30 14 C 0.646136 4.456842 -0.702384 0
M  V30 15 C 0.044489 5.022702 -1.805215 0
M  V30 16 C 0.006516 4.368487 -3.013627 0
M  V30 17 C 0.574639 3.103528 -3.177473 0
M  V30 18 N 0.580054 2.394559 -4.387185 0
M  V30 19 C 0.481361 1.017180 -4.706098 0
M  V30 20 N 0.647595 0.555126 -5.981345 0
M  V30 21 N 0.478447 -0.750281 -5.956710 0
M  V30 22 C 0.203251 -1.221647 -4.733420 0
M  V30 23 C 0.205121 -0.094908 -3.938070 0
M  V30 24 C -0.106473 -0.528923 -2.553663 0
M  V30 25 N -0.709243 -1.828504 -2.776747 0
M  V30 26 C -1.755116 -2.409010 -1.973654 0
M  V30 27 O -2.185224 -3.571755 -2.285724 0
M  V30 28 N -2.323293 -1.758201 -0.866034 0
M  V30 29 C -3.354529 -2.330966 -0.072875 0 CFG=2
M  V30 30 C -4.735452 -1.818542 -0.260014 0
M  V30 31 N -4.978544 -0.437511 -0.018913 0
M  V30 32 C -4.859963 -0.038797 1.350780 0
M  V30 33 C -4.299804 0.498035 -0.863723 0
M  V30 34 C -2.909923 -2.496506 1.323636 0
M  V30 35 C -2.178633 -1.549015 2.027402 0
M  V30 36 C -1.747638 -1.665474 3.332015 0
M  V30 37 C -2.065004 -2.815343 4.000445 0
M  V30 38 C -2.785438 -3.810186 3.387204 0
M  V30 39 C -3.199858 -3.645572 2.063420 0
M  V30 40 C -0.089764 -2.442275 -3.938048 0
M  V30 41 C 1.232880 -3.087107 -3.602154 0
M  V30 42 C -1.009557 -3.384493 -4.668962 0
M  V30 43 C 1.163483 2.604624 -2.010920 0
M  V30 44 C 2.465738 0.730253 2.482944 0
M  V30 45 C 2.766071 -0.106935 3.533250 0
M  V30 46 H 4.086202 -3.735445 8.065868 0
M  V30 47 H 3.412934 -3.008549 7.032409 0
M  V30 48 H 6.406860 -2.576285 7.457496 0
M  V30 49 H 3.420319 -1.659083 5.502589 0
M  V30 50 H 5.980989 0.535194 3.778449 0
M  V30 51 H 5.519446 2.011847 1.947649 0
M  V30 52 H 1.023791 2.007737 0.597638 0
M  V30 53 H 0.701132 4.938607 0.278812 0
M  V30 54 H -0.409663 6.011681 -1.708446 0
M  V30 55 H -0.469668 4.832802 -3.862032 0
M  V30 56 H 0.684635 3.096525 -5.179504 0
M  V30 57 H 0.573354 -1.273254 -6.867748 0
M  V30 58 H -0.783264 0.195902 -2.054215 0
M  V30 59 H 0.830031 -0.633046 -1.940767 0
M  V30 60 H -1.896658 -0.822001 -0.694016 0
M  V30 61 H -3.418989 -3.411904 -0.465962 0
M  V30 62 H -5.427422 -2.358916 0.465390 0
M  V30 63 H -5.146673 -2.160314 -1.252302 0
M  V30 64 H -5.763256 0.618870 1.548526 0
M  V30 65 H -4.005551 0.629410 1.572220 0
M  V30 66 H -4.974736 -0.861396 2.088827 0
M  V30 67 H -3.855569 -0.004561 -1.752110 0
M  V30 68 H -3.455692 0.919758 -0.280933 0
M  V30 69 H -4.944483 1.351941 -1.175197 0
M  V30 70 H -1.934917 -0.645852 1.486016 0
M  V30 71 H -1.174393 -0.825229 3.756087 0
M  V30 72 H -1.701123 -2.857189 5.026890 0
M  V30 73 H -3.020964 -4.707716 3.940312 0
M  V30 74 H -3.767029 -4.456716 1.616648 0
M  V30 75 H 1.185758 -3.700540 -2.686629 0
M  V30 76 H 2.049862 -2.313136 -3.536838 0
M  V30 77 H 1.519388 -3.733854 -4.463528 0
M  V30 78 H -2.031716 -2.982673 -4.611849 0
M  V30 79 H -0.899759 -4.404781 -4.285570 0
M  V30 80 H -0.719308 -3.390831 -5.731084 0
M  V30 81 H 1.627495 1.634906 -2.112924 0
M  V30 82 H 1.447560 0.766198 2.130874 0
M  V30 83 H 1.941179 -0.698810 3.960059 0
M  V30 END ATOM
M  V30 BEGIN BOND
M  V30 1 2 1 2
M  V30 2 1 2 3
M  V30 3 2 3 4
M  V30 4 1 3 5
M  V30 5 1 5 6
M  V30 6 2 6 7
M  V30 7 1 7 8
M  V30 8 2 8 9
M  V30 9 1 9 10
M  V30 10 2 10 11
M  V30 11 1 10 12
M  V30 12 1 12 13
M  V30 13 2 13 14
M  V30 14 1 14 15
M  V30 15 2 15 16
M  V30 16 1 16 17
M  V30 17 1 17 18
M  V30 18 1 18 19
M  V30 19 2 19 20
M  V30 20 1 20 21
M  V30 21 1 21 22
M  V30 22 2 22 23
M  V30 23 1 23 24
M  V30 24 1 24 25
M  V30 25 1 25 26
M  V30 26 2 26 27
M  V30 27 1 26 28
M  V30 28 1 28 29
M  V30 29 1 29 30
M  V30 30 1 30 31
M  V30 31 1 31 32
M  V30 32 1 31 33
M  V30 33 1 29 34
M  V30 34 2 34 35
M  V30 35 1 35 36
M  V30 36 2 36 37
M  V30 37 1 37 38
M  V30 38 2 38 39
M  V30 39 1 25 40
M  V30 40 1 40 41
M  V30 41 1 40 42
M  V30 42 2 17 43
M  V30 43 1 9 44
M  V30 44 2 44 45
M  V30 45 1 45 6
M  V30 46 1 43 13
M  V30 47 1 23 19
M  V30 48 1 39 34
M  V30 49 1 40 22
M  V30 50 1 1 46
M  V30 51 1 1 47
M  V30 52 1 2 48
M  V30 53 1 5 49
M  V30 54 1 7 50
M  V30 55 1 8 51
M  V30 56 1 12 52
M  V30 57 1 14 53
M  V30 58 1 15 54
M  V30 59 1 16 55
M  V30 60 1 18 56
M  V30 61 1 21 57
M  V30 62 1 24 58
M  V30 63 1 24 59
M  V30 64 1 28 60
M  V30 65 1 29 61 CFG=3
M  V30 66 1 30 62
M  V30 67 1 30 63
M  V30 68 1 32 64
M  V30 69 1 32 65
M  V30 70 1 32 66
M  V30 71 1 33 67
M  V30 72 1 33 68
M  V30 73 1 33 69
M  V30 74 1 35 70
M  V30 75 1 36 71
M  V30 76 1 37 72
M  V30 77 1 38 73
M  V30 78 1 39 74
M  V30 79 1 41 75
M  V30 80 1 41 76
M  V30 81 1 41 77
M  V30 82 1 42 78
M  V30 83 1 42 79
M  V30 84 1 42 80
M  V30 85 1 43 81
M  V30 86 1 44 82
M  V30 87 1 45 83
M  V30 END BOND
M  V30 END CTAB
M  END
>  <Dataset>  (274) 
ChEMBL_Kinases

>  <Ligand_Instance>  (274) 
nan

>  <PDB_ID>  (274) 
nan

>  <Standardized_SMILES>  (274) 
C=CC(=O)Nc1ccc(C(=O)Nc2cccc(Nc3n[nH]c4c3CN(C(=O)N[C@H](CN(C)C)c3ccccc3)C4(C)C)c2)cc1

>  <Name>  (274) 
nan

>  <Pocket>  (274) 
nan

>  <ATP_Site>  (274) 
nan

>  <Peripheral>  (274) 
nan

>  <Num_H_Atoms_ProtBoundConf>  (274) 
nan

>  <Num_Resolved_Atoms>  (274) 
nan

>  <Num_Not_Resolved_Atoms>  (274) 
nan

$$$$
CHEMBL4434855
     RDKit          3D

  0  0  0  0  0  0  0  0  0  0999 V3000
M  V30 BEGIN CTAB
M  V30 COUNTS 46 49 0 0 0
M  V30 BEGIN ATOM
M  V30 1 C 2.488889 -4.993321 1.723043 0
M  V30 2 S 3.751882 -3.801387 1.203350 0
M  V30 3 C 3.002677 -2.301784 0.617384 0
M  V30 4 N 3.806747 -1.307250 0.192913 0
M  V30 5 C 3.035845 -0.266607 -0.206249 0
M  V30 6 C 3.456475 0.997117 -0.732216 0
M  V30 7 C 3.240018 1.386943 -2.036969 0
M  V30 8 C 3.661600 2.616556 -2.496283 0
M  V30 9 C 4.323625 3.526698 -1.677978 0
M  V30 10 F 4.767417 4.748737 -2.053660 0
M  V30 11 C 4.512417 3.072910 -0.367960 0
M  V30 12 C 4.114003 1.856269 0.148290 0
M  V30 13 C 1.732874 -0.598515 -0.035495 0
M  V30 14 C 0.443636 0.036903 -0.252526 0
M  V30 15 C -0.143859 0.446008 -1.429180 0
M  V30 16 C -1.380001 1.044295 -1.535368 0
M  V30 17 N -2.059844 1.236831 -0.365365 0
M  V30 18 C -1.520543 0.850155 0.812015 0
M  V30 19 N -2.283072 1.073479 2.020216 0
M  V30 20 C -3.044079 -0.138050 2.124554 0
M  V30 21 O -3.003265 -1.106104 1.325570 0
M  V30 22 C -4.053332 -0.564979 3.168170 0
M  V30 23 C -4.498390 -1.924649 2.718924 0
M  V30 24 C -3.308078 -2.916343 2.654983 0
M  V30 25 C -4.515353 -3.125178 3.536706 0
M  V30 26 C -0.275423 0.246462 0.932139 0
M  V30 27 N 1.726347 -1.858261 0.473878 0
M  V30 28 H 1.946148 -4.557847 2.594497 0
M  V30 29 H 2.994207 -5.904783 2.075978 0
M  V30 30 H 1.770017 -5.148737 0.911974 0
M  V30 31 H 2.739824 0.741276 -2.734319 0
M  V30 32 H 3.517241 2.981048 -3.522031 0
M  V30 33 H 5.034639 3.776219 0.298908 0
M  V30 34 H 4.339090 1.655478 1.194921 0
M  V30 35 H 0.455192 0.255919 -2.307330 0
M  V30 36 H -1.730055 1.319535 -2.520961 0
M  V30 37 H -2.512975 1.696974 2.812492 0
M  V30 38 H -4.874889 0.168970 3.235906 0
M  V30 39 H -3.568378 -0.582414 4.176034 0
M  V30 40 H -5.132352 -1.886422 1.794515 0
M  V30 41 H -3.182067 -3.442860 1.707684 0
M  V30 42 H -2.397335 -2.677176 3.219330 0
M  V30 43 H -4.398204 -3.143227 4.632427 0
M  V30 44 H -5.166381 -3.952738 3.173176 0
M  V30 45 H 0.081150 -0.031016 1.907302 0
M  V30 46 H 0.994211 -2.551605 0.774512 0
M  V30 END ATOM
M  V30 BEGIN BOND
M  V30 1 1 1 2
M  V30 2 1 2 3
M  V30 3 2 3 4
M  V30 4 1 4 5
M  V30 5 1 5 6
M  V30 6 2 6 7
M  V30 7 1 7 8
M  V30 8 2 8 9
M  V30 9 1 9 10
M  V30 10 1 9 11
M  V30 11 2 11 12
M  V30 12 2 5 13
M  V30 13 1 13 14
M  V30 14 2 14 15
M  V30 15 1 15 16
M  V30 16 2 16 17
M  V30 17 1 17 18
M  V30 18 1 18 19
M  V30 19 1 19 20
M  V30 20 2 20 21
M  V30 21 1 20 22
M  V30 22 1 22 23
M  V30 23 1 23 24
M  V30 24 1 24 25
M  V30 25 2 18 26
M  V30 26 1 13 27
M  V30 27 1 27 3
M  V30 28 1 12 6
M  V30 29 1 26 14
M  V30 30 1 25 23
M  V30 31 1 1 28
M  V30 32 1 1 29
M  V30 33 1 1 30
M  V30 34 1 7 31
M  V30 35 1 8 32
M  V30 36 1 11 33
M  V30 37 1 12 34
M  V30 38 1 15 35
M  V30 39 1 16 36
M  V30 40 1 19 37
M  V30 41 1 22 38
M  V30 42 1 22 39
M  V30 43 1 23 40
M  V30 44 1 24 41
M  V30 45 1 24 42
M  V30 46 1 25 43
M  V30 47 1 25 44
M  V30 48 1 26 45
M  V30 49 1 27 46
M  V30 END BOND
M  V30 END CTAB
M  END
>  <Dataset>  (275) 
ChEMBL_Kinases

>  <Ligand_Instance>  (275) 
nan

>  <PDB_ID>  (275) 
nan

>  <Standardized_SMILES>  (275) 
CSc1nc(-c2ccc(F)cc2)c(-c2ccnc(NC(=O)CC3CC3)c2)[nH]1

>  <Name>  (275) 
nan

>  <Pocket>  (275) 
nan

>  <ATP_Site>  (275) 
nan

>  <Peripheral>  (275) 
nan

>  <Num_H_Atoms_ProtBoundConf>  (275) 
nan

>  <Num_Resolved_Atoms>  (275) 
nan

>  <Num_Not_Resolved_Atoms>  (275) 
nan

$$$$
CHEMBL3687474
     RDKit          3D

  0  0  0  0  0  0  0  0  0  0999 V3000
M  V30 BEGIN CTAB
M  V30 COUNTS 62 65 0 0 0
M  V30 BEGIN ATOM
M  V30 1 C 2.666956 -0.380325 4.086179 0
M  V30 2 C 1.582801 -0.276912 3.033983 0 CFG=1
M  V30 3 C 2.028945 0.367075 1.766474 0
M  V30 4 C 2.077659 -0.647528 0.641938 0 CFG=1
M  V30 5 C 2.736808 -0.151673 -0.572317 0
M  V30 6 C 4.120985 -0.325917 -0.678822 0
M  V30 7 C 4.762996 0.137948 -1.820401 0
M  V30 8 N 4.089389 0.739596 -2.804903 0
M  V30 9 C 2.753290 0.937017 -2.760811 0
M  V30 10 C 2.091439 0.484603 -1.635912 0
M  V30 11 N 0.694157 0.659358 -1.531995 0
M  V30 12 C -0.290693 1.550844 -1.075860 0
M  V30 13 O 0.108518 2.618077 -0.548901 0
M  V30 14 C -1.711434 1.256795 -1.204968 0
M  V30 15 N -2.276693 0.171708 -1.744111 0
M  V30 16 C -3.394876 -0.036042 -1.834675 0
M  V30 17 C -4.246363 -1.175944 -2.397994 0
M  V30 18 C -5.620920 -1.109555 -2.345322 0
M  V30 19 F -6.253044 -0.059945 -1.805125 0
M  V30 20 C -6.262370 -2.196068 -2.886328 0
M  V30 21 C -5.658471 -3.305116 -3.456029 0
M  V30 22 C -4.260273 -3.242900 -3.443935 0
M  V30 23 C -3.522708 -2.198239 -2.925460 0
M  V30 24 F -2.173589 -2.206181 -2.947872 0
M  V30 25 S -4.259803 1.405750 -1.097956 0
M  V30 26 C -2.573172 2.235239 -0.701663 0
M  V30 27 N -2.439039 3.461877 -0.085813 0
M  V30 28 C 2.752203 -1.870907 1.200962 0
M  V30 29 C 1.914922 -2.562854 2.214428 0 CFG=1
M  V30 30 N 2.696602 -3.270284 3.190011 0
M  V30 31 C 0.904659 -1.618653 2.851070 0 CFG=1
M  V30 32 O 0.503851 -2.061415 4.068246 0
M  V30 33 C -0.824442 -2.282657 4.283736 0
M  V30 34 C -1.768213 -1.145057 4.233320 0
M  V30 35 C -1.906956 -0.407575 3.019931 0
M  V30 36 N -2.034697 0.197478 2.048592 0
M  V30 37 H 3.636019 -0.117777 3.567300 0
M  V30 38 H 2.727678 -1.353997 4.571917 0
M  V30 39 H 2.551763 0.416166 4.876723 0
M  V30 40 H 0.805413 0.419630 3.472848 0
M  V30 41 H 3.075318 0.728323 1.929689 0
M  V30 42 H 1.362876 1.193087 1.437986 0
M  V30 43 H 1.026725 -0.914353 0.321387 0
M  V30 44 H 4.743495 -0.791968 0.050007 0
M  V30 45 H 5.843180 0.024602 -1.948577 0
M  V30 46 H 2.188875 1.431599 -3.566387 0
M  V30 47 H 0.365334 -0.244135 -1.978350 0
M  V30 48 H -7.350020 -2.208261 -2.877243 0
M  V30 49 H -6.201106 -4.124662 -3.863202 0
M  V30 50 H -3.712286 -4.088188 -3.879530 0
M  V30 51 H -2.773013 3.583840 0.909424 0
M  V30 52 H -1.990396 4.136328 -0.755246 0
M  V30 53 H 3.711816 -1.553083 1.657819 0
M  V30 54 H 3.036480 -2.596560 0.408073 0
M  V30 55 H 1.304231 -3.350122 1.689952 0
M  V30 56 H 2.137396 -3.706347 3.936167 0
M  V30 57 H 3.181133 -4.052638 2.683932 0
M  V30 58 H 0.055640 -1.522159 2.176276 0
M  V30 59 H -0.911341 -2.697531 5.346010 0
M  V30 60 H -1.237970 -3.077855 3.599998 0
M  V30 61 H -1.592879 -0.462961 5.125229 0
M  V30 62 H -2.793965 -1.584832 4.459809 0
M  V30 END ATOM
M  V30 BEGIN BOND
M  V30 1 1 1 2
M  V30 2 1 2 3
M  V30 3 1 3 4
M  V30 4 1 4 5
M  V30 5 2 5 6
M  V30 6 1 6 7
M  V30 7 2 7 8
M  V30 8 1 8 9
M  V30 9 2 9 10
M  V30 10 1 10 11
M  V30 11 1 11 12
M  V30 12 2 12 13
M  V30 13 1 12 14
M  V30 14 1 14 15
M  V30 15 2 15 16
M  V30 16 1 16 17
M  V30 17 2 17 18
M  V30 18 1 18 19
M  V30 19 1 18 20
M  V30 20 2 20 21
M  V30 21 1 21 22
M  V30 22 2 22 23
M  V30 23 1 23 24
M  V30 24 1 16 25
M  V30 25 1 25 26
M  V30 26 1 26 27
M  V30 27 1 4 28
M  V30 28 1 28 29
M  V30 29 1 29 30
M  V30 30 1 29 31
M  V30 31 1 31 32
M  V30 32 1 32 33
M  V30 33 1 33 34
M  V30 34 1 34 35
M  V30 35 3 35 36
M  V30 36 1 31 2
M  V30 37 1 10 5
M  V30 38 2 26 14
M  V30 39 1 23 17
M  V30 40 1 1 37
M  V30 41 1 1 38
M  V30 42 1 1 39
M  V30 43 1 2 40 CFG=1
M  V30 44 1 3 41
M  V30 45 1 3 42
M  V30 46 1 4 43 CFG=3
M  V30 47 1 6 44
M  V30 48 1 7 45
M  V30 49 1 9 46
M  V30 50 1 11 47
M  V30 51 1 20 48
M  V30 52 1 21 49
M  V30 53 1 22 50
M  V30 54 1 27 51
M  V30 55 1 27 52
M  V30 56 1 28 53
M  V30 57 1 28 54
M  V30 58 1 29 55 CFG=3
M  V30 59 1 30 56
M  V30 60 1 30 57
M  V30 61 1 31 58 CFG=3
M  V30 62 1 33 59
M  V30 63 1 33 60
M  V30 64 1 34 61
M  V30 65 1 34 62
M  V30 END BOND
M  V30 END CTAB
M  END
>  <Dataset>  (276) 
ChEMBL_Kinases

>  <Ligand_Instance>  (276) 
nan

>  <PDB_ID>  (276) 
nan

>  <Standardized_SMILES>  (276) 
C[C@H]1C[C@@H](c2ccncc2NC(=O)c2nc(-c3c(F)cccc3F)sc2N)C[C@@H](N)[C@H]1OCCC#N

>  <Name>  (276) 
nan

>  <Pocket>  (276) 
nan

>  <ATP_Site>  (276) 
nan

>  <Peripheral>  (276) 
nan

>  <Num_H_Atoms_ProtBoundConf>  (276) 
nan

>  <Num_Resolved_Atoms>  (276) 
nan

>  <Num_Not_Resolved_Atoms>  (276) 
nan

$$$$
CHEMBL3687444
     RDKit          3D

  0  0  0  0  0  0  0  0  0  0999 V3000
M  V30 BEGIN CTAB
M  V30 COUNTS 61 64 0 0 0
M  V30 BEGIN ATOM
M  V30 1 C 2.900576 -1.936842 2.845244 0
M  V30 2 C 2.411502 -1.714616 1.440253 0 CFG=1
M  V30 3 C 2.473026 -0.222899 1.105505 0
M  V30 4 C 1.832032 -0.011842 -0.225457 0 CFG=1
M  V30 5 C 1.751171 1.396079 -0.615917 0
M  V30 6 C 2.762757 1.992813 -1.316575 0
M  V30 7 C 2.646211 3.310465 -1.660843 0
M  V30 8 N 1.553462 4.018457 -1.318603 0
M  V30 9 C 0.538496 3.462326 -0.628680 0
M  V30 10 C 0.634993 2.128997 -0.269349 0
M  V30 11 N -0.470909 1.607196 0.455640 0
M  V30 12 C -0.823399 1.498843 1.821339 0
M  V30 13 O -0.073339 1.924912 2.739310 0
M  V30 14 C -2.115117 0.857632 2.050757 0
M  V30 15 C -2.500211 0.729549 3.369318 0
M  V30 16 C -3.690028 0.148189 3.769136 0
M  V30 17 C -4.520398 -0.323234 2.748454 0
M  V30 18 F -5.718539 -0.914233 3.040574 0
M  V30 19 C -4.125038 -0.189993 1.429100 0
M  V30 20 C -4.959413 -0.667151 0.332494 0
M  V30 21 C -5.938092 0.024952 -0.356175 0
M  V30 22 F -6.123654 1.305030 0.061724 0
M  V30 23 C -6.622071 -0.611910 -1.372404 0
M  V30 24 C -6.331415 -1.923255 -1.695769 0
M  V30 25 C -5.359250 -2.643913 -1.027527 0
M  V30 26 C -4.681257 -1.981374 -0.005263 0
M  V30 27 F -3.732893 -2.764468 0.608359 0
M  V30 28 N -2.952703 0.386559 1.108371 0
M  V30 29 C 2.582410 -0.786420 -1.295066 0
M  V30 30 C 2.488461 -2.267414 -0.921284 0 CFG=1
M  V30 31 N 3.071014 -3.097439 -1.951886 0
M  V30 32 C 3.215583 -2.409863 0.399252 0 CFG=2
M  V30 33 S 3.627132 -4.080306 0.761569 0
M  V30 34 C 2.240185 -5.123876 1.003854 0
M  V30 35 O 4.415128 -4.594816 -0.432662 0
M  V30 36 O 4.562508 -4.147695 1.919437 0
M  V30 37 H 3.978455 -2.053762 2.932442 0
M  V30 38 H 2.318641 -2.799121 3.278088 0
M  V30 39 H 2.600798 -1.056175 3.460610 0
M  V30 40 H 1.352250 -2.011735 1.338343 0
M  V30 41 H 2.051832 0.403378 1.888422 0
M  V30 42 H 3.576898 -0.039453 0.953957 0
M  V30 43 H 0.787400 -0.414734 -0.174463 0
M  V30 44 H 3.649746 1.491975 -1.617037 0
M  V30 45 H 3.439194 3.814663 -2.221189 0
M  V30 46 H -0.326894 4.061958 -0.369619 0
M  V30 47 H -1.060503 1.268626 -0.334942 0
M  V30 48 H -1.882612 1.082738 4.179610 0
M  V30 49 H -3.975395 0.056543 4.812108 0
M  V30 50 H -7.379361 -0.014764 -1.875926 0
M  V30 51 H -6.895963 -2.370055 -2.496894 0
M  V30 52 H -5.154532 -3.672959 -1.305636 0
M  V30 53 H 2.192953 -0.568786 -2.291378 0
M  V30 54 H 3.656682 -0.507176 -1.200872 0
M  V30 55 H 1.399913 -2.455042 -0.786464 0
M  V30 56 H 3.368473 -2.473576 -2.724228 0
M  V30 57 H 2.319286 -3.755038 -2.264707 0
M  V30 58 H 4.167765 -1.832579 0.263866 0
M  V30 59 H 1.386495 -4.793579 0.356376 0
M  V30 60 H 1.931809 -5.242205 2.057066 0
M  V30 61 H 2.499932 -6.158193 0.661666 0
M  V30 END ATOM
M  V30 BEGIN BOND
M  V30 1 1 1 2
M  V30 2 1 2 3
M  V30 3 1 3 4
M  V30 4 1 4 5
M  V30 5 2 5 6
M  V30 6 1 6 7
M  V30 7 2 7 8
M  V30 8 1 8 9
M  V30 9 2 9 10
M  V30 10 1 10 11
M  V30 11 1 11 12
M  V30 12 2 12 13
M  V30 13 1 12 14
M  V30 14 2 14 15
M  V30 15 1 15 16
M  V30 16 2 16 17
M  V30 17 1 17 18
M  V30 18 1 17 19
M  V30 19 1 19 20
M  V30 20 2 20 21
M  V30 21 1 21 22
M  V30 22 1 21 23
M  V30 23 2 23 24
M  V30 24 1 24 25
M  V30 25 2 25 26
M  V30 26 1 26 27
M  V30 27 2 19 28
M  V30 28 1 4 29
M  V30 29 1 29 30
M  V30 30 1 30 31
M  V30 31 1 30 32
M  V30 32 1 32 33
M  V30 33 1 33 34
M  V30 34 2 33 35
M  V30 35 2 33 36
M  V30 36 1 32 2
M  V30 37 1 10 5
M  V30 38 1 28 14
M  V30 39 1 26 20
M  V30 40 1 1 37
M  V30 41 1 1 38
M  V30 42 1 1 39
M  V30 43 1 2 40 CFG=1
M  V30 44 1 3 41
M  V30 45 1 3 42
M  V30 46 1 4 43 CFG=1
M  V30 47 1 6 44
M  V30 48 1 7 45
M  V30 49 1 9 46
M  V30 50 1 11 47
M  V30 51 1 15 48
M  V30 52 1 16 49
M  V30 53 1 23 50
M  V30 54 1 24 51
M  V30 55 1 25 52
M  V30 56 1 29 53
M  V30 57 1 29 54
M  V30 58 1 30 55 CFG=1
M  V30 59 1 31 56
M  V30 60 1 31 57
M  V30 61 1 32 58 CFG=3
M  V30 62 1 34 59
M  V30 63 1 34 60
M  V30 64 1 34 61
M  V30 END BOND
M  V30 END CTAB
M  END
>  <Dataset>  (277) 
ChEMBL_Kinases

>  <Ligand_Instance>  (277) 
nan

>  <PDB_ID>  (277) 
nan

>  <Standardized_SMILES>  (277) 
C[C@H]1C[C@@H](c2ccncc2NC(=O)c2ccc(F)c(-c3c(F)cccc3F)n2)C[C@@H](N)[C@@H]1S(C)(=O)=O

>  <Name>  (277) 
nan

>  <Pocket>  (277) 
nan

>  <ATP_Site>  (277) 
nan

>  <Peripheral>  (277) 
nan

>  <Num_H_Atoms_ProtBoundConf>  (277) 
nan

>  <Num_Resolved_Atoms>  (277) 
nan

>  <Num_Not_Resolved_Atoms>  (277) 
nan

$$$$
CHEMBL3687473
     RDKit          3D

  0  0  0  0  0  0  0  0  0  0999 V3000
M  V30 BEGIN CTAB
M  V30 COUNTS 62 65 0 0 0
M  V30 BEGIN ATOM
M  V30 1 C 1.968567 -0.883971 4.761838 0
M  V30 2 C 1.906992 -1.338529 3.337609 0 CFG=2
M  V30 3 C 2.125495 -0.181684 2.354832 0
M  V30 4 C 2.668365 -0.939764 1.128221 0 CFG=2
M  V30 5 C 3.177312 0.008106 0.164623 0
M  V30 6 C 4.528108 0.392903 0.075839 0
M  V30 7 C 5.083922 1.276066 -0.807769 0
M  V30 8 N 4.253938 1.864965 -1.717628 0
M  V30 9 C 2.941498 1.544435 -1.693447 0
M  V30 10 C 2.420398 0.646898 -0.783726 0
M  V30 11 N 1.055230 0.474236 -0.939025 0
M  V30 12 C -0.145877 1.060561 -0.444205 0
M  V30 13 O -0.009281 2.014592 0.369570 0
M  V30 14 C -1.480875 0.611800 -0.832935 0
M  V30 15 N -1.659049 -0.402790 -1.687174 0
M  V30 16 C -2.825677 -0.750852 -1.989693 0
M  V30 17 C -3.400516 -1.777727 -2.857983 0
M  V30 18 C -4.760264 -1.944340 -3.013444 0
M  V30 19 F -5.616731 -1.139398 -2.348909 0
M  V30 20 C -5.155835 -2.957011 -3.867081 0
M  V30 21 C -4.273616 -3.765239 -4.534528 0
M  V30 22 C -2.907692 -3.576321 -4.360248 0
M  V30 23 C -2.476196 -2.563049 -3.505710 0
M  V30 24 F -1.136183 -2.421611 -3.371435 0
M  V30 25 S -3.906904 0.364700 -1.061265 0
M  V30 26 C -2.520793 1.280297 -0.280015 0
M  V30 27 N -2.704721 2.321340 0.593075 0
M  V30 28 C 1.894632 -2.107011 0.737017 0
M  V30 29 C 0.714039 -2.493884 1.574495 0 CFG=2
M  V30 30 N -0.557677 -2.274397 0.861204 0
M  V30 31 C 0.573351 -1.861004 2.911927 0 CFG=2
M  V30 32 O -0.320170 -0.797693 2.832638 0
M  V30 33 C -1.401459 -0.945215 3.690889 0
M  V30 34 C -2.300687 0.265136 3.518380 0
M  V30 35 C -1.572645 1.493738 3.843449 0
M  V30 36 N -0.980624 2.456224 4.100494 0
M  V30 37 H 1.260989 -1.440924 5.431490 0
M  V30 38 H 2.976329 -1.107996 5.180244 0
M  V30 39 H 1.863779 0.224559 4.855259 0
M  V30 40 H 2.648543 -2.152413 3.203755 0
M  V30 41 H 1.196260 0.342418 2.153989 0
M  V30 42 H 2.885278 0.485988 2.765783 0
M  V30 43 H 3.621061 -1.346025 1.623296 0
M  V30 44 H 5.219630 -0.067055 0.797891 0
M  V30 45 H 6.143110 1.487247 -0.771902 0
M  V30 46 H 2.397104 2.077130 -2.461169 0
M  V30 47 H 0.898198 -0.299299 -1.621648 0
M  V30 48 H -6.219161 -3.130596 -4.024919 0
M  V30 49 H -4.584582 -4.552596 -5.198579 0
M  V30 50 H -2.210677 -4.228562 -4.898957 0
M  V30 51 H -3.509837 2.287444 1.238925 0
M  V30 52 H -2.047884 3.130215 0.607085 0
M  V30 53 H 2.552722 -3.038234 0.719801 0
M  V30 54 H 1.532585 -2.132690 -0.313150 0
M  V30 55 H 0.668183 -3.611693 1.758818 0
M  V30 56 H -1.048596 -1.427824 1.174917 0
M  V30 57 H -0.458927 -2.412697 -0.150632 0
M  V30 58 H 0.154622 -2.557046 3.668074 0
M  V30 59 H -1.981401 -1.857886 3.544992 0
M  V30 60 H -1.109927 -0.921830 4.756941 0
M  V30 61 H -3.062310 0.163058 4.345678 0
M  V30 62 H -2.784643 0.310555 2.537847 0
M  V30 END ATOM
M  V30 BEGIN BOND
M  V30 1 1 1 2
M  V30 2 1 2 3
M  V30 3 1 3 4
M  V30 4 1 4 5
M  V30 5 2 5 6
M  V30 6 1 6 7
M  V30 7 2 7 8
M  V30 8 1 8 9
M  V30 9 2 9 10
M  V30 10 1 10 11
M  V30 11 1 11 12
M  V30 12 2 12 13
M  V30 13 1 12 14
M  V30 14 1 14 15
M  V30 15 2 15 16
M  V30 16 1 16 17
M  V30 17 2 17 18
M  V30 18 1 18 19
M  V30 19 1 18 20
M  V30 20 2 20 21
M  V30 21 1 21 22
M  V30 22 2 22 23
M  V30 23 1 23 24
M  V30 24 1 16 25
M  V30 25 1 25 26
M  V30 26 1 26 27
M  V30 27 1 4 28
M  V30 28 1 28 29
M  V30 29 1 29 30
M  V30 30 1 29 31
M  V30 31 1 31 32
M  V30 32 1 32 33
M  V30 33 1 33 34
M  V30 34 1 34 35
M  V30 35 3 35 36
M  V30 36 1 31 2
M  V30 37 1 10 5
M  V30 38 2 26 14
M  V30 39 1 23 17
M  V30 40 1 1 37
M  V30 41 1 1 38
M  V30 42 1 1 39
M  V30 43 1 2 40 CFG=1
M  V30 44 1 3 41
M  V30 45 1 3 42
M  V30 46 1 4 43 CFG=1
M  V30 47 1 6 44
M  V30 48 1 7 45
M  V30 49 1 9 46
M  V30 50 1 11 47
M  V30 51 1 20 48
M  V30 52 1 21 49
M  V30 53 1 22 50
M  V30 54 1 27 51
M  V30 55 1 27 52
M  V30 56 1 28 53
M  V30 57 1 28 54
M  V30 58 1 29 55 CFG=1
M  V30 59 1 30 56
M  V30 60 1 30 57
M  V30 61 1 31 58 CFG=1
M  V30 62 1 33 59
M  V30 63 1 33 60
M  V30 64 1 34 61
M  V30 65 1 34 62
M  V30 END BOND
M  V30 END CTAB
M  END
>  <Dataset>  (278) 
ChEMBL_Kinases

>  <Ligand_Instance>  (278) 
nan

>  <PDB_ID>  (278) 
nan

>  <Standardized_SMILES>  (278) 
C[C@@H]1C[C@H](c2ccncc2NC(=O)c2nc(-c3c(F)cccc3F)sc2N)C[C@H](N)[C@@H]1OCCC#N

>  <Name>  (278) 
nan

>  <Pocket>  (278) 
nan

>  <ATP_Site>  (278) 
nan

>  <Peripheral>  (278) 
nan

>  <Num_H_Atoms_ProtBoundConf>  (278) 
nan

>  <Num_Resolved_Atoms>  (278) 
nan

>  <Num_Not_Resolved_Atoms>  (278) 
nan

$$$$
CHEMBL258618
     RDKit          3D

  0  0  0  0  0  0  0  0  0  0999 V3000
M  V30 BEGIN CTAB
M  V30 COUNTS 60 64 0 0 0
M  V30 BEGIN ATOM
M  V30 1 C 3.781874 -2.523910 2.803147 0
M  V30 2 C 3.316067 -1.121309 2.465204 0
M  V30 3 C 2.478594 -1.098336 1.255382 0
M  V30 4 O 2.715386 -2.328031 1.286849 0
M  V30 5 C 1.744671 -0.224115 0.412315 0
M  V30 6 C 1.710431 1.119862 0.703676 0
M  V30 7 C 2.373338 1.759418 1.815454 0
M  V30 8 C 1.912867 1.983446 3.100046 0
M  V30 9 C 2.695753 2.623842 4.033456 0
M  V30 10 C 3.971530 3.074529 3.744747 0
M  V30 11 C 4.430372 2.845625 2.447438 0
M  V30 12 C 3.663616 2.210896 1.510291 0
M  V30 13 C 0.995972 1.971223 -0.111078 0
M  V30 14 C 0.918092 3.321592 0.119078 0
M  V30 15 C 0.196225 4.153540 -0.711352 0
M  V30 16 Cl 0.075208 5.860708 -0.452958 0
M  V30 17 C -0.465024 3.619766 -1.800738 0
M  V30 18 C -0.412478 2.266332 -2.068223 0
M  V30 19 C 0.322078 1.478017 -1.208417 0
M  V30 20 C 0.424674 0.117297 -1.405592 0
M  V30 21 O -0.202352 -0.333916 -2.424769 0
M  V30 22 N 1.115475 -0.775575 -0.635374 0
M  V30 23 C 1.091720 -2.147909 -1.018439 0
M  V30 24 C -0.069761 -2.825157 -0.358128 0
M  V30 25 C -1.360400 -2.922863 -0.892931 0
M  V30 26 C -2.187019 -3.609654 -0.027721 0
M  V30 27 C -3.599671 -3.953385 -0.155047 0
M  V30 28 O -4.220276 -4.603308 0.754444 0
M  V30 29 N -4.332020 -3.567599 -1.312361 0
M  V30 30 C -5.733917 -3.856080 -1.540668 0
M  V30 31 C -6.521026 -2.731651 -2.200717 0
M  V30 32 C -6.189479 -3.982493 -2.946033 0
M  V30 33 N -1.397124 -3.919615 1.015075 0
M  V30 34 C -1.853998 -4.657000 2.185466 0
M  V30 35 N -0.173792 -3.464659 0.820884 0
M  V30 36 H 2.915306 -3.191184 2.981623 0
M  V30 37 H 4.463108 -2.515692 3.685525 0
M  V30 38 H 4.407431 -2.897383 1.966432 0
M  V30 39 H 4.235646 -0.479159 2.364974 0
M  V30 40 H 2.798598 -0.754959 3.382287 0
M  V30 41 H 0.909773 1.607883 3.262283 0
M  V30 42 H 2.271389 2.770739 5.035549 0
M  V30 43 H 4.576973 3.576428 4.486828 0
M  V30 44 H 5.436256 3.212037 2.253574 0
M  V30 45 H 4.133266 2.090894 0.531315 0
M  V30 46 H 1.422853 3.760714 0.958653 0
M  V30 47 H -1.048639 4.245713 -2.483953 0
M  V30 48 H -0.925430 1.819840 -2.921529 0
M  V30 49 H 2.041528 -2.701429 -0.896130 0
M  V30 50 H 0.882042 -2.204631 -2.127393 0
M  V30 51 H -1.731869 -2.542246 -1.837793 0
M  V30 52 H -3.820640 -3.034386 -2.057155 0
M  V30 53 H -6.235298 -4.423545 -0.723839 0
M  V30 54 H -5.986566 -1.816405 -2.539396 0
M  V30 55 H -7.557172 -2.530122 -1.874870 0
M  V30 56 H -7.043311 -4.624336 -3.200806 0
M  V30 57 H -5.424542 -3.925943 -3.744157 0
M  V30 58 H -1.109322 -4.590011 3.014424 0
M  V30 59 H -2.062075 -5.724963 1.966155 0
M  V30 60 H -2.808238 -4.232342 2.579864 0
M  V30 END ATOM
M  V30 BEGIN BOND
M  V30 1 1 1 2
M  V30 2 1 2 3
M  V30 3 2 3 4
M  V30 4 1 3 5
M  V30 5 2 5 6
M  V30 6 1 6 7
M  V30 7 2 7 8
M  V30 8 1 8 9
M  V30 9 2 9 10
M  V30 10 1 10 11
M  V30 11 2 11 12
M  V30 12 1 6 13
M  V30 13 2 13 14
M  V30 14 1 14 15
M  V30 15 1 15 16
M  V30 16 2 15 17
M  V30 17 1 17 18
M  V30 18 2 18 19
M  V30 19 1 19 20
M  V30 20 2 20 21
M  V30 21 1 20 22
M  V30 22 1 22 23
M  V30 23 1 23 24
M  V30 24 1 24 25
M  V30 25 2 25 26
M  V30 26 1 26 27
M  V30 27 2 27 28
M  V30 28 1 27 29
M  V30 29 1 29 30
M  V30 30 1 30 31
M  V30 31 1 31 32
M  V30 32 1 26 33
M  V30 33 1 33 34
M  V30 34 1 33 35
M  V30 35 1 22 5
M  V30 36 2 35 24
M  V30 37 1 12 7
M  V30 38 1 19 13
M  V30 39 1 32 30
M  V30 40 1 1 36
M  V30 41 1 1 37
M  V30 42 1 1 38
M  V30 43 1 2 39
M  V30 44 1 2 40
M  V30 45 1 8 41
M  V30 46 1 9 42
M  V30 47 1 10 43
M  V30 48 1 11 44
M  V30 49 1 12 45
M  V30 50 1 14 46
M  V30 51 1 17 47
M  V30 52 1 18 48
M  V30 53 1 23 49
M  V30 54 1 23 50
M  V30 55 1 25 51
M  V30 56 1 29 52
M  V30 57 1 30 53
M  V30 58 1 31 54
M  V30 59 1 31 55
M  V30 60 1 32 56
M  V30 61 1 32 57
M  V30 62 1 34 58
M  V30 63 1 34 59
M  V30 64 1 34 60
M  V30 END BOND
M  V30 END CTAB
M  END
>  <Dataset>  (279) 
ChEMBL_Kinases

>  <Ligand_Instance>  (279) 
nan

>  <PDB_ID>  (279) 
nan

>  <Standardized_SMILES>  (279) 
CCC(=O)c1c(-c2ccccc2)c2cc(Cl)ccc2c(=O)n1Cc1cc(C(=O)NC2CC2)n(C)n1

>  <Name>  (279) 
nan

>  <Pocket>  (279) 
nan

>  <ATP_Site>  (279) 
nan

>  <Peripheral>  (279) 
nan

>  <Num_H_Atoms_ProtBoundConf>  (279) 
nan

>  <Num_Resolved_Atoms>  (279) 
nan

>  <Num_Not_Resolved_Atoms>  (279) 
nan

$$$$
CHEMBL3687472
     RDKit          3D

  0  0  0  0  0  0  0  0  0  0999 V3000
M  V30 BEGIN CTAB
M  V30 COUNTS 62 65 0 0 0
M  V30 BEGIN ATOM
M  V30 1 C -3.069489 -1.144171 -3.836282 0
M  V30 2 O -2.683460 -1.414398 -2.527744 0
M  V30 3 C -1.346034 -1.740524 -2.421286 0 CFG=1
M  V30 4 C -0.607389 -0.819007 -1.494044 0 CFG=2
M  V30 5 N -0.754157 0.572301 -1.853700 0
M  V30 6 C 0.870660 -1.242605 -1.543000 0
M  V30 7 C 0.935471 -2.509125 -0.744106 0 CFG=2
M  V30 8 C 2.254748 -3.063168 -0.479159 0
M  V30 9 C 2.815817 -4.075928 -1.272534 0
M  V30 10 C 4.059996 -4.629361 -1.041351 0
M  V30 11 N 4.768171 -4.164976 0.006986 0
M  V30 12 C 4.221864 -3.193994 0.761443 0
M  V30 13 C 3.001474 -2.598317 0.596499 0
M  V30 14 N 2.473025 -1.590632 1.400246 0
M  V30 15 C 3.005533 -0.952544 2.547660 0
M  V30 16 O 4.121699 -1.298626 2.960071 0
M  V30 17 C 2.319620 0.099715 3.287950 0
M  V30 18 C 2.858014 0.692363 4.385905 0
M  V30 19 C 2.247955 1.690327 5.117799 0
M  V30 20 C 1.010928 2.112866 4.706891 0
M  V30 21 F 0.403567 3.105562 5.434540 0
M  V30 22 C 0.448653 1.511362 3.580867 0
M  V30 23 C -0.868921 2.025744 3.219355 0
M  V30 24 C -1.883063 1.309295 3.850055 0
M  V30 25 F -1.740284 0.271259 4.691888 0
M  V30 26 C -3.219312 1.645632 3.634874 0
M  V30 27 C -3.523494 2.704854 2.782937 0
M  V30 28 C -4.939117 3.085094 2.535433 0
M  V30 29 C -2.504776 3.401360 2.168329 0
M  V30 30 C -1.178321 3.077268 2.373940 0
M  V30 31 F -0.103708 3.681010 1.832636 0
M  V30 32 N 1.102612 0.553192 2.928404 0
M  V30 33 C 0.162254 -3.546482 -1.568419 0
M  V30 34 C -1.272389 -3.119913 -1.774321 0 CFG=2
M  V30 35 C -1.899686 -4.127565 -2.715071 0
M  V30 36 H -4.166846 -0.895823 -3.783954 0
M  V30 37 H -2.993276 -1.998900 -4.515942 0
M  V30 38 H -2.565011 -0.277991 -4.263949 0
M  V30 39 H -0.819058 -1.728662 -3.397742 0
M  V30 40 H -0.933050 -0.992025 -0.447779 0
M  V30 41 H -0.661794 1.218980 -1.046866 0
M  V30 42 H -1.756820 0.662517 -2.190906 0
M  V30 43 H 1.401332 -0.389620 -1.120954 0
M  V30 44 H 1.112160 -1.383712 -2.602271 0
M  V30 45 H 0.284457 -2.381804 0.170524 0
M  V30 46 H 2.317722 -4.492894 -2.114606 0
M  V30 47 H 4.475947 -5.412893 -1.668049 0
M  V30 48 H 4.878037 -2.904684 1.566598 0
M  V30 49 H 1.525873 -1.184447 1.176843 0
M  V30 50 H 3.833437 0.383890 4.739158 0
M  V30 51 H 2.723268 2.129046 5.987108 0
M  V30 52 H -4.060544 1.143569 4.082673 0
M  V30 53 H -5.599788 2.600071 3.285274 0
M  V30 54 H -5.060413 4.199168 2.570132 0
M  V30 55 H -5.308152 2.763010 1.539563 0
M  V30 56 H -2.674907 4.236287 1.493681 0
M  V30 57 H 0.141361 -4.471811 -0.969596 0
M  V30 58 H 0.590124 -3.639360 -2.578643 0
M  V30 59 H -1.851763 -3.063387 -0.837779 0
M  V30 60 H -1.433649 -5.145345 -2.569923 0
M  V30 61 H -2.982548 -4.219254 -2.578567 0
M  V30 62 H -1.705741 -3.884033 -3.774013 0
M  V30 END ATOM
M  V30 BEGIN BOND
M  V30 1 1 1 2
M  V30 2 1 2 3
M  V30 3 1 3 4
M  V30 4 1 4 5
M  V30 5 1 4 6
M  V30 6 1 6 7
M  V30 7 1 7 8
M  V30 8 2 8 9
M  V30 9 1 9 10
M  V30 10 2 10 11
M  V30 11 1 11 12
M  V30 12 2 12 13
M  V30 13 1 13 14
M  V30 14 1 14 15
M  V30 15 2 15 16
M  V30 16 1 15 17
M  V30 17 2 17 18
M  V30 18 1 18 19
M  V30 19 2 19 20
M  V30 20 1 20 21
M  V30 21 1 20 22
M  V30 22 1 22 23
M  V30 23 2 23 24
M  V30 24 1 24 25
M  V30 25 1 24 26
M  V30 26 2 26 27
M  V30 27 1 27 28
M  V30 28 1 27 29
M  V30 29 2 29 30
M  V30 30 1 30 31
M  V30 31 2 22 32
M  V30 32 1 7 33
M  V30 33 1 33 34
M  V30 34 1 34 35
M  V30 35 1 34 3
M  V30 36 1 13 8
M  V30 37 1 32 17
M  V30 38 1 30 23
M  V30 39 1 1 36
M  V30 40 1 1 37
M  V30 41 1 1 38
M  V30 42 1 3 39 CFG=3
M  V30 43 1 4 40 CFG=1
M  V30 44 1 5 41
M  V30 45 1 5 42
M  V30 46 1 6 43
M  V30 47 1 6 44
M  V30 48 1 7 45 CFG=1
M  V30 49 1 9 46
M  V30 50 1 10 47
M  V30 51 1 12 48
M  V30 52 1 14 49
M  V30 53 1 18 50
M  V30 54 1 19 51
M  V30 55 1 26 52
M  V30 56 1 28 53
M  V30 57 1 28 54
M  V30 58 1 28 55
M  V30 59 1 29 56
M  V30 60 1 33 57
M  V30 61 1 33 58
M  V30 62 1 34 59 CFG=1
M  V30 63 1 35 60
M  V30 64 1 35 61
M  V30 65 1 35 62
M  V30 END BOND
M  V30 END CTAB
M  END
>  <Dataset>  (280) 
ChEMBL_Kinases

>  <Ligand_Instance>  (280) 
nan

>  <PDB_ID>  (280) 
nan

>  <Standardized_SMILES>  (280) 
CO[C@H]1[C@H](N)C[C@H](c2ccncc2NC(=O)c2ccc(F)c(-c3c(F)cc(C)cc3F)n2)C[C@@H]1C

>  <Name>  (280) 
nan

>  <Pocket>  (280) 
nan

>  <ATP_Site>  (280) 
nan

>  <Peripheral>  (280) 
nan

>  <Num_H_Atoms_ProtBoundConf>  (280) 
nan

>  <Num_Resolved_Atoms>  (280) 
nan

>  <Num_Not_Resolved_Atoms>  (280) 
nan

$$$$
CHEMBL4434688
     RDKit          3D

  0  0  0  0  0  0  0  0  0  0999 V3000
M  V30 BEGIN CTAB
M  V30 COUNTS 65 68 0 0 0
M  V30 BEGIN ATOM
M  V30 1 C 2.895270 -3.233216 3.027810 0
M  V30 2 O 3.476954 -2.298507 3.910210 0
M  V30 3 C 3.557869 -0.950978 3.672876 0
M  V30 4 C 4.177151 -0.154340 4.649087 0
M  V30 5 C 4.299652 1.210598 4.484140 0
M  V30 6 C 3.824896 1.838470 3.367877 0
M  V30 7 C 3.206256 1.094872 2.376555 0
M  V30 8 C 2.615327 1.460989 1.062387 0 CFG=1
M  V30 9 C 3.423375 0.767378 -0.046265 0
M  V30 10 N 1.239941 0.936686 0.987043 0
M  V30 11 C 0.280625 1.860224 0.492131 0
M  V30 12 O 0.595684 3.031133 0.138167 0
M  V30 13 C -1.087953 1.366029 0.422815 0
M  V30 14 C -1.912976 2.233506 1.123305 0
M  V30 15 C -3.290588 2.007329 1.248694 0
M  V30 16 C -3.796158 0.885648 0.646414 0
M  V30 17 C -5.213652 0.526053 0.701445 0
M  V30 18 C -5.657488 -0.796864 0.692917 0
M  V30 19 C -6.994580 -1.140746 0.744372 0
M  V30 20 N -7.924790 -0.159264 0.805320 0
M  V30 21 C -7.520441 1.123888 0.814625 0
M  V30 22 C -6.201665 1.506699 0.764457 0
M  V30 23 C -2.967435 0.034616 -0.046536 0
M  V30 24 C -1.610918 0.244334 -0.177971 0
M  V30 25 N -0.701299 -0.582859 -0.881169 0
M  V30 26 C 0.059083 -0.188368 -2.049693 0
M  V30 27 C 0.857718 -1.305564 -2.627866 0
M  V30 28 C 0.155140 -2.611303 -2.789844 0
M  V30 29 C 1.107121 -3.795316 -2.695948 0
M  V30 30 N 0.359733 -5.012467 -2.867091 0
M  V30 31 C -0.889223 -2.794870 -1.708777 0
M  V30 32 C -0.403762 -1.978368 -0.521511 0
M  V30 33 C 3.089993 -0.279394 2.557166 0
M  V30 34 H 1.825459 -3.099936 2.840482 0
M  V30 35 H 3.486645 -3.337090 2.079954 0
M  V30 36 H 3.012245 -4.242261 3.517914 0
M  V30 37 H 4.596313 -0.531248 5.584315 0
M  V30 38 H 4.756241 1.901399 5.180880 0
M  V30 39 H 3.834862 2.884539 3.081706 0
M  V30 40 H 2.630658 2.516498 0.820265 0
M  V30 41 H 4.380047 0.390518 0.397460 0
M  V30 42 H 3.564615 1.410805 -0.917941 0
M  V30 43 H 2.893552 -0.163441 -0.384020 0
M  V30 44 H 0.975526 -0.029655 1.267249 0
M  V30 45 H -1.624643 3.162587 1.644491 0
M  V30 46 H -3.956293 2.679055 1.794271 0
M  V30 47 H -4.882161 -1.542114 0.646045 0
M  V30 48 H -7.283552 -2.204280 0.734675 0
M  V30 49 H -8.304080 1.896834 0.864655 0
M  V30 50 H -5.900715 2.538720 0.775011 0
M  V30 51 H -3.365208 -0.861524 -0.528699 0
M  V30 52 H 0.795114 0.607109 -1.743974 0
M  V30 53 H -0.612580 0.271870 -2.813729 0
M  V30 54 H 1.155201 -0.981055 -3.669107 0
M  V30 55 H 1.778039 -1.462827 -2.029510 0
M  V30 56 H -0.366018 -2.700715 -3.770454 0
M  V30 57 H 1.906684 -3.654018 -3.441596 0
M  V30 58 H 1.601432 -3.826476 -1.696877 0
M  V30 59 H -0.616467 -4.878094 -3.229270 0
M  V30 60 H 0.436573 -5.637966 -2.055571 0
M  V30 61 H -0.990291 -3.845506 -1.370201 0
M  V30 62 H -1.847007 -2.377453 -2.125528 0
M  V30 63 H -0.924336 -2.271416 0.410853 0
M  V30 64 H 0.679549 -2.050232 -0.410512 0
M  V30 65 H 2.634675 -1.016458 1.874411 0
M  V30 END ATOM
M  V30 BEGIN BOND
M  V30 1 1 1 2
M  V30 2 1 2 3
M  V30 3 2 3 4
M  V30 4 1 4 5
M  V30 5 2 5 6
M  V30 6 1 6 7
M  V30 7 1 7 8
M  V30 8 1 8 9
M  V30 9 1 8 10
M  V30 10 1 10 11
M  V30 11 2 11 12
M  V30 12 1 11 13
M  V30 13 2 13 14
M  V30 14 1 14 15
M  V30 15 2 15 16
M  V30 16 1 16 17
M  V30 17 2 17 18
M  V30 18 1 18 19
M  V30 19 2 19 20
M  V30 20 1 20 21
M  V30 21 2 21 22
M  V30 22 1 16 23
M  V30 23 2 23 24
M  V30 24 1 24 25
M  V30 25 1 25 26
M  V30 26 1 26 27
M  V30 27 1 27 28
M  V30 28 1 28 29
M  V30 29 1 29 30
M  V30 30 1 28 31
M  V30 31 1 31 32
M  V30 32 2 7 33
M  V30 33 1 33 3
M  V30 34 1 24 13
M  V30 35 1 32 25
M  V30 36 1 22 17
M  V30 37 1 1 34
M  V30 38 1 1 35
M  V30 39 1 1 36
M  V30 40 1 4 37
M  V30 41 1 5 38
M  V30 42 1 6 39
M  V30 43 1 8 40 CFG=3
M  V30 44 1 9 41
M  V30 45 1 9 42
M  V30 46 1 9 43
M  V30 47 1 10 44
M  V30 48 1 14 45
M  V30 49 1 15 46
M  V30 50 1 18 47
M  V30 51 1 19 48
M  V30 52 1 21 49
M  V30 53 1 22 50
M  V30 54 1 23 51
M  V30 55 1 26 52
M  V30 56 1 26 53
M  V30 57 1 27 54
M  V30 58 1 27 55
M  V30 59 1 28 56
M  V30 60 1 29 57
M  V30 61 1 29 58
M  V30 62 1 30 59
M  V30 63 1 30 60
M  V30 64 1 31 61
M  V30 65 1 31 62
M  V30 66 1 32 63
M  V30 67 1 32 64
M  V30 68 1 33 65
M  V30 END BOND
M  V30 END CTAB
M  END
>  <Dataset>  (281) 
ChEMBL_Kinases

>  <Ligand_Instance>  (281) 
nan

>  <PDB_ID>  (281) 
nan

>  <Standardized_SMILES>  (281) 
COc1cccc([C@@H](C)NC(=O)c2ccc(-c3ccncc3)cc2N2CCC(CN)CC2)c1

>  <Name>  (281) 
nan

>  <Pocket>  (281) 
nan

>  <ATP_Site>  (281) 
nan

>  <Peripheral>  (281) 
nan

>  <Num_H_Atoms_ProtBoundConf>  (281) 
nan

>  <Num_Resolved_Atoms>  (281) 
nan

>  <Num_Not_Resolved_Atoms>  (281) 
nan

$$$$
CHEMBL3702049
     RDKit          3D

  0  0  0  0  0  0  0  0  0  0999 V3000
M  V30 BEGIN CTAB
M  V30 COUNTS 59 64 0 0 0
M  V30 BEGIN ATOM
M  V30 1 C 2.641119 -5.338127 5.002979 0
M  V30 2 C 3.062057 -4.135364 4.424815 0
M  V30 3 C 2.557090 -3.785228 3.191585 0
M  V30 4 C 2.816839 -2.666187 2.429973 0
M  V30 5 C 3.627050 -1.567949 2.624426 0
M  V30 6 N 3.689486 -0.599927 1.690030 0
M  V30 7 C 2.938842 -0.735216 0.561763 0
M  V30 8 N 2.904434 0.203553 -0.507337 0
M  V30 9 C 1.918003 1.216709 -0.354732 0
M  V30 10 C 1.087045 1.260313 0.741159 0
M  V30 11 C 0.120190 2.261129 0.882350 0
M  V30 12 C -0.029471 3.250052 -0.091171 0
M  V30 13 C -1.030949 4.305346 0.035842 0
M  V30 14 N -2.314829 4.067484 -0.499443 0
M  V30 15 C -3.019963 2.947716 0.052025 0
M  V30 16 C -2.738107 1.772754 -0.849534 0
M  V30 17 O -3.638422 1.851342 -1.897484 0
M  V30 18 C -3.636042 3.154116 -2.351080 0
M  V30 19 C -2.410144 3.949237 -1.923282 0
M  V30 20 C 0.834945 3.160143 -1.178120 0
M  V30 21 N 1.750918 2.174682 -1.267365 0
M  V30 22 N 2.154813 -1.810556 0.387019 0
M  V30 23 C 2.055294 -2.805632 1.287559 0
M  V30 24 N 1.334386 -3.964561 1.309443 0
M  V30 25 C 0.436178 -4.464441 0.320792 0
M  V30 26 C -0.907210 -4.891457 0.809612 0
M  V30 27 C -1.939016 -4.468665 -0.226974 0
M  V30 28 C -1.180666 -3.720746 -1.301992 0
M  V30 29 C 0.105324 -3.300796 -0.623865 0
M  V30 30 C 1.654538 -4.543008 2.474260 0
M  V30 31 C 1.288891 -5.715509 3.113746 0
M  V30 32 N 1.750021 -6.109730 4.319922 0
M  V30 33 H 3.063689 -5.571815 5.971414 0
M  V30 34 H 3.770894 -3.513162 4.959149 0
M  V30 35 H 4.219326 -1.485369 3.540724 0
M  V30 36 H 3.507513 0.220663 -1.357753 0
M  V30 37 H 1.161861 0.515289 1.527027 0
M  V30 38 H -0.527551 2.274756 1.760712 0
M  V30 39 H -0.617709 5.220025 -0.451861 0
M  V30 40 H -1.160714 4.588626 1.113218 0
M  V30 41 H -2.805878 2.762772 1.117949 0
M  V30 42 H -4.110358 3.188681 0.017168 0
M  V30 43 H -2.762313 0.830407 -0.281313 0
M  V30 44 H -1.733724 1.812906 -1.336147 0
M  V30 45 H -4.586234 3.662697 -2.123461 0
M  V30 46 H -3.566140 3.084912 -3.473289 0
M  V30 47 H -1.537632 3.540743 -2.435230 0
M  V30 48 H -2.584979 4.976953 -2.343461 0
M  V30 49 H 0.792377 3.875513 -1.972713 0
M  V30 50 H 0.944670 -5.263631 -0.252387 0
M  V30 51 H -1.226647 -4.435862 1.762377 0
M  V30 52 H -0.942175 -6.010284 0.808167 0
M  V30 53 H -2.747370 -3.841835 0.207750 0
M  V30 54 H -2.439267 -5.307479 -0.723049 0
M  V30 55 H -1.729174 -2.823523 -1.645716 0
M  V30 56 H -0.981368 -4.367244 -2.182954 0
M  V30 57 H 0.915099 -3.140459 -1.343477 0
M  V30 58 H -0.110262 -2.379503 -0.066708 0
M  V30 59 H 0.580292 -6.381192 2.626490 0
M  V30 END ATOM
M  V30 BEGIN BOND
M  V30 1 2 1 2
M  V30 2 1 2 3
M  V30 3 1 3 4
M  V30 4 2 4 5
M  V30 5 1 5 6
M  V30 6 2 6 7
M  V30 7 1 7 8
M  V30 8 1 8 9
M  V30 9 2 9 10
M  V30 10 1 10 11
M  V30 11 2 11 12
M  V30 12 1 12 13
M  V30 13 1 13 14
M  V30 14 1 14 15
M  V30 15 1 15 16
M  V30 16 1 16 17
M  V30 17 1 17 18
M  V30 18 1 18 19
M  V30 19 1 12 20
M  V30 20 2 20 21
M  V30 21 1 7 22
M  V30 22 2 22 23
M  V30 23 1 23 24
M  V30 24 1 24 25
M  V30 25 1 25 26
M  V30 26 1 26 27
M  V30 27 1 27 28
M  V30 28 1 28 29
M  V30 29 1 24 30
M  V30 30 1 30 31
M  V30 31 2 31 32
M  V30 32 1 32 1
M  V30 33 2 30 3
M  V30 34 1 23 4
M  V30 35 1 29 25
M  V30 36 1 21 9
M  V30 37 1 19 14
M  V30 38 1 1 33
M  V30 39 1 2 34
M  V30 40 1 5 35
M  V30 41 1 8 36
M  V30 42 1 10 37
M  V30 43 1 11 38
M  V30 44 1 13 39
M  V30 45 1 13 40
M  V30 46 1 15 41
M  V30 47 1 15 42
M  V30 48 1 16 43
M  V30 49 1 16 44
M  V30 50 1 18 45
M  V30 51 1 18 46
M  V30 52 1 19 47
M  V30 53 1 19 48
M  V30 54 1 20 49
M  V30 55 1 25 50
M  V30 56 1 26 51
M  V30 57 1 26 52
M  V30 58 1 27 53
M  V30 59 1 27 54
M  V30 60 1 28 55
M  V30 61 1 28 56
M  V30 62 1 29 57
M  V30 63 1 29 58
M  V30 64 1 31 59
M  V30 END BOND
M  V30 END CTAB
M  END
>  <Dataset>  (282) 
ChEMBL_Kinases

>  <Ligand_Instance>  (282) 
nan

>  <PDB_ID>  (282) 
nan

>  <Standardized_SMILES>  (282) 
c1cc2c3cnc(Nc4ccc(CN5CCOCC5)cn4)nc3n(C3CCCC3)c2cn1

>  <Name>  (282) 
nan

>  <Pocket>  (282) 
nan

>  <ATP_Site>  (282) 
nan

>  <Peripheral>  (282) 
nan

>  <Num_H_Atoms_ProtBoundConf>  (282) 
nan

>  <Num_Resolved_Atoms>  (282) 
nan

>  <Num_Not_Resolved_Atoms>  (282) 
nan

$$$$
CHEMBL442972
     RDKit          3D

  0  0  0  0  0  0  0  0  0  0999 V3000
M  V30 BEGIN CTAB
M  V30 COUNTS 55 59 0 0 0
M  V30 BEGIN ATOM
M  V30 1 C 3.782565 -1.100206 4.030530 0
M  V30 2 C 3.441329 -1.191422 2.557071 0
M  V30 3 C 2.188112 -1.989824 2.328537 0
M  V30 4 C 3.394784 0.150948 1.898332 0
M  V30 5 N 2.421716 1.054089 2.460703 0
M  V30 6 C 2.555015 1.946745 3.463830 0
M  V30 7 N 3.758659 2.171380 4.194827 0
M  V30 8 N 1.345170 2.560812 3.621017 0
M  V30 9 C 0.461883 2.065478 2.732974 0
M  V30 10 C -0.865024 2.350070 2.491313 0
M  V30 11 C -1.517780 1.665269 1.495503 0
M  V30 12 C -0.846030 0.713388 0.759392 0
M  V30 13 C -1.288371 -0.145187 -0.333593 0
M  V30 14 N -0.786370 -0.056437 -1.584803 0
M  V30 15 C -1.359874 -0.956943 -2.399347 0
M  V30 16 C -1.169455 -1.257629 -3.813286 0
M  V30 17 C -1.877617 -2.245641 -4.464844 0
M  V30 18 F -2.792468 -2.977896 -3.780156 0
M  V30 19 C -1.709600 -2.542157 -5.800105 0
M  V30 20 C -0.781723 -1.822847 -6.560504 0
M  V30 21 C -0.058485 -0.827947 -5.934601 0
M  V30 22 C -0.264753 -0.570890 -4.595661 0
M  V30 23 F 0.491120 0.414099 -4.095977 0
M  V30 24 N -2.239784 -1.618462 -1.626844 0
M  V30 25 C -2.226079 -1.154513 -0.365593 0
M  V30 26 C -3.029216 -1.604326 0.764012 0
M  V30 27 C -2.708113 -2.915701 1.133411 0
M  V30 28 C -3.376938 -3.509040 2.190118 0
M  V30 29 C -4.357211 -2.816918 2.881077 0
M  V30 30 C -4.669996 -1.525046 2.513176 0
M  V30 31 C -4.008337 -0.936513 1.466896 0
M  V30 32 N 0.468831 0.474757 1.045040 0
M  V30 33 C 1.143470 1.117083 2.004258 0
M  V30 34 H 3.016895 -0.529659 4.555005 0
M  V30 35 H 4.779706 -0.642392 4.186712 0
M  V30 36 H 3.887659 -2.148094 4.412223 0
M  V30 37 H 4.286012 -1.744030 2.089277 0
M  V30 38 H 1.355237 -1.495177 2.877770 0
M  V30 39 H 2.346555 -3.027958 2.702062 0
M  V30 40 H 1.981181 -1.987677 1.237487 0
M  V30 41 H 4.430106 0.585093 1.939854 0
M  V30 42 H 3.223103 -0.027659 0.810849 0
M  V30 43 H 4.516071 2.723451 3.745883 0
M  V30 44 H 4.604932 2.703627 3.880378 0
M  V30 45 H -1.421475 3.079716 3.038815 0
M  V30 46 H -2.527368 1.769640 1.189269 0
M  V30 47 H -0.051553 0.616224 -1.891990 0
M  V30 48 H -2.292907 -3.327715 -6.255373 0
M  V30 49 H -0.623323 -2.027835 -7.608840 0
M  V30 50 H 0.649930 -0.288706 -6.543267 0
M  V30 51 H -1.963660 -3.545752 0.665668 0
M  V30 52 H -3.233260 -4.506847 2.581356 0
M  V30 53 H -4.933370 -3.194845 3.718492 0
M  V30 54 H -5.419306 -0.903470 2.990285 0
M  V30 55 H -4.185514 0.060557 1.108629 0
M  V30 END ATOM
M  V30 BEGIN BOND
M  V30 1 1 1 2
M  V30 2 1 2 3
M  V30 3 1 2 4
M  V30 4 1 4 5
M  V30 5 1 5 6
M  V30 6 1 6 7
M  V30 7 2 6 8
M  V30 8 1 8 9
M  V30 9 2 9 10
M  V30 10 1 10 11
M  V30 11 2 11 12
M  V30 12 1 12 13
M  V30 13 1 13 14
M  V30 14 1 14 15
M  V30 15 1 15 16
M  V30 16 2 16 17
M  V30 17 1 17 18
M  V30 18 1 17 19
M  V30 19 2 19 20
M  V30 20 1 20 21
M  V30 21 2 21 22
M  V30 22 1 22 23
M  V30 23 2 15 24
M  V30 24 1 24 25
M  V30 25 1 25 26
M  V30 26 2 26 27
M  V30 27 1 27 28
M  V30 28 2 28 29
M  V30 29 1 29 30
M  V30 30 2 30 31
M  V30 31 1 12 32
M  V30 32 2 32 33
M  V30 33 1 33 5
M  V30 34 1 33 9
M  V30 35 2 25 13
M  V30 36 1 31 26
M  V30 37 1 22 16
M  V30 38 1 1 34
M  V30 39 1 1 35
M  V30 40 1 1 36
M  V30 41 1 2 37
M  V30 42 1 3 38
M  V30 43 1 3 39
M  V30 44 1 3 40
M  V30 45 1 4 41
M  V30 46 1 4 42
M  V30 47 1 7 43
M  V30 48 1 7 44
M  V30 49 1 10 45
M  V30 50 1 11 46
M  V30 51 1 14 47
M  V30 52 1 19 48
M  V30 53 1 20 49
M  V30 54 1 21 50
M  V30 55 1 27 51
M  V30 56 1 28 52
M  V30 57 1 29 53
M  V30 58 1 30 54
M  V30 59 1 31 55
M  V30 END BOND
M  V30 END CTAB
M  END
>  <Dataset>  (283) 
ChEMBL_Kinases

>  <Ligand_Instance>  (283) 
nan

>  <PDB_ID>  (283) 
nan

>  <Standardized_SMILES>  (283) 
CC(C)Cn1c(N)nc2ccc(-c3[nH]c(-c4c(F)cccc4F)nc3-c3ccccc3)nc21

>  <Name>  (283) 
nan

>  <Pocket>  (283) 
nan

>  <ATP_Site>  (283) 
nan

>  <Peripheral>  (283) 
nan

>  <Num_H_Atoms_ProtBoundConf>  (283) 
nan

>  <Num_Resolved_Atoms>  (283) 
nan

>  <Num_Not_Resolved_Atoms>  (283) 
nan

$$$$
CHEMBL3687471
     RDKit          3D

  0  0  0  0  0  0  0  0  0  0999 V3000
M  V30 BEGIN CTAB
M  V30 COUNTS 65 68 0 0 0
M  V30 BEGIN ATOM
M  V30 1 C 1.803421 -1.425510 5.833173 0
M  V30 2 O 1.385645 -0.760842 4.659183 0
M  V30 3 C 2.164416 0.243360 4.054562 0
M  V30 4 O 3.298587 0.693738 4.434401 0
M  V30 5 N 1.766827 0.933989 2.864627 0
M  V30 6 C 2.751431 1.891758 2.488340 0
M  V30 7 C 0.517574 0.558441 2.296182 0 CFG=2
M  V30 8 C 0.597035 -0.080697 0.935942 0 CFG=2
M  V30 9 N 1.599968 -1.133836 0.940789 0
M  V30 10 C 0.761418 0.866937 -0.204344 0
M  V30 11 N -0.264981 1.856143 -0.123518 0
M  V30 12 C -1.066772 2.197389 -1.245453 0
M  V30 13 C -0.897825 3.556160 -1.549298 0
M  V30 14 C -1.590977 4.124872 -2.623492 0
M  V30 15 N -2.417826 3.361075 -3.359897 0
M  V30 16 C -2.578488 2.061518 -3.068234 0
M  V30 17 C -1.923433 1.443476 -2.022699 0
M  V30 18 N -2.001096 0.105846 -1.612318 0
M  V30 19 C -2.872047 -0.549337 -0.670873 0
M  V30 20 O -3.746165 0.083254 -0.054485 0
M  V30 21 C -2.633280 -1.989465 -0.516677 0
M  V30 22 C -3.434903 -2.679076 0.373544 0
M  V30 23 C -3.243985 -4.034123 0.548036 0
M  V30 24 C -2.273740 -4.725723 -0.141139 0
M  V30 25 F -1.968625 -6.030963 -0.081355 0
M  V30 26 C -1.496864 -3.995735 -1.019593 0
M  V30 27 C -0.396655 -4.478406 -1.878392 0
M  V30 28 C 0.911741 -4.498665 -1.441969 0
M  V30 29 F 1.214734 -4.067685 -0.194087 0
M  V30 30 C 1.915458 -4.965114 -2.295242 0
M  V30 31 C 1.630506 -5.412727 -3.581263 0
M  V30 32 C 0.323820 -5.379012 -3.981627 0
M  V30 33 C -0.705344 -4.921013 -3.160153 0
M  V30 34 F -1.954694 -4.931292 -3.655944 0
M  V30 35 N -1.694617 -2.684579 -1.176829 0
M  V30 36 C -0.505363 2.543268 1.134575 0
M  V30 37 C -0.554940 1.614058 2.313039 0 CFG=2
M  V30 38 C -0.569083 2.424393 3.563621 0
M  V30 39 H 0.938707 -1.392528 6.545798 0
M  V30 40 H 2.601698 -0.822968 6.315572 0
M  V30 41 H 2.131448 -2.455265 5.658731 0
M  V30 42 H 3.159946 2.472475 3.361893 0
M  V30 43 H 3.667953 1.406040 2.043545 0
M  V30 44 H 2.448028 2.649188 1.753660 0
M  V30 45 H 0.115528 -0.247151 2.966203 0
M  V30 46 H -0.369371 -0.605985 0.785544 0
M  V30 47 H 2.366428 -0.785793 1.590062 0
M  V30 48 H 1.190907 -1.946270 1.475148 0
M  V30 49 H 0.789224 0.293678 -1.125475 0
M  V30 50 H 1.756101 1.401569 -0.175508 0
M  V30 51 H -0.265755 4.278083 -1.038512 0
M  V30 52 H -1.498618 5.167293 -2.902825 0
M  V30 53 H -3.239832 1.394289 -3.636055 0
M  V30 54 H -1.264775 -0.421110 -2.133483 0
M  V30 55 H -4.209412 -2.200515 0.942505 0
M  V30 56 H -3.835936 -4.650661 1.232824 0
M  V30 57 H 2.943404 -4.977765 -1.943488 0
M  V30 58 H 2.449980 -5.761069 -4.191854 0
M  V30 59 H 0.187750 -5.748908 -5.007222 0
M  V30 60 H -1.495567 3.044767 1.097030 0
M  V30 61 H 0.211009 3.380705 1.271861 0
M  V30 62 H -1.543551 1.099400 2.244871 0
M  V30 63 H -1.576198 2.826138 3.806505 0
M  V30 64 H 0.082508 3.326639 3.412917 0
M  V30 65 H -0.273546 1.852044 4.473407 0
M  V30 END ATOM
M  V30 BEGIN BOND
M  V30 1 1 1 2
M  V30 2 1 2 3
M  V30 3 2 3 4
M  V30 4 1 3 5
M  V30 5 1 5 6
M  V30 6 1 5 7
M  V30 7 1 7 8
M  V30 8 1 8 9
M  V30 9 1 8 10
M  V30 10 1 10 11
M  V30 11 1 11 12
M  V30 12 2 12 13
M  V30 13 1 13 14
M  V30 14 2 14 15
M  V30 15 1 15 16
M  V30 16 2 16 17
M  V30 17 1 17 18
M  V30 18 1 18 19
M  V30 19 2 19 20
M  V30 20 1 19 21
M  V30 21 2 21 22
M  V30 22 1 22 23
M  V30 23 2 23 24
M  V30 24 1 24 25
M  V30 25 1 24 26
M  V30 26 1 26 27
M  V30 27 2 27 28
M  V30 28 1 28 29
M  V30 29 1 28 30
M  V30 30 2 30 31
M  V30 31 1 31 32
M  V30 32 2 32 33
M  V30 33 1 33 34
M  V30 34 2 26 35
M  V30 35 1 11 36
M  V30 36 1 36 37
M  V30 37 1 37 38
M  V30 38 1 37 7
M  V30 39 1 17 12
M  V30 40 1 35 21
M  V30 41 1 33 27
M  V30 42 1 1 39
M  V30 43 1 1 40
M  V30 44 1 1 41
M  V30 45 1 6 42
M  V30 46 1 6 43
M  V30 47 1 6 44
M  V30 48 1 7 45 CFG=1
M  V30 49 1 8 46 CFG=3
M  V30 50 1 9 47
M  V30 51 1 9 48
M  V30 52 1 10 49
M  V30 53 1 10 50
M  V30 54 1 13 51
M  V30 55 1 14 52
M  V30 56 1 16 53
M  V30 57 1 18 54
M  V30 58 1 22 55
M  V30 59 1 23 56
M  V30 60 1 30 57
M  V30 61 1 31 58
M  V30 62 1 32 59
M  V30 63 1 36 60
M  V30 64 1 36 61
M  V30 65 1 37 62 CFG=3
M  V30 66 1 38 63
M  V30 67 1 38 64
M  V30 68 1 38 65
M  V30 END BOND
M  V30 END CTAB
M  END
>  <Dataset>  (284) 
ChEMBL_Kinases

>  <Ligand_Instance>  (284) 
nan

>  <PDB_ID>  (284) 
nan

>  <Standardized_SMILES>  (284) 
COC(=O)N(C)[C@@H]1[C@H](N)CN(c2ccncc2NC(=O)c2ccc(F)c(-c3c(F)cccc3F)n2)C[C@@H]1C

>  <Name>  (284) 
nan

>  <Pocket>  (284) 
nan

>  <ATP_Site>  (284) 
nan

>  <Peripheral>  (284) 
nan

>  <Num_H_Atoms_ProtBoundConf>  (284) 
nan

>  <Num_Resolved_Atoms>  (284) 
nan

>  <Num_Not_Resolved_Atoms>  (284) 
nan

$$$$
CHEMBL3687470
     RDKit          3D

  0  0  0  0  0  0  0  0  0  0999 V3000
M  V30 BEGIN CTAB
M  V30 COUNTS 66 69 0 0 0
M  V30 BEGIN ATOM
M  V30 1 C 1.653431 -2.745793 3.828745 0
M  V30 2 O 1.469786 -1.516732 3.173187 0
M  V30 3 C 2.116926 -0.377597 3.595596 0
M  V30 4 O 2.886551 -0.498720 4.607533 0
M  V30 5 N 2.125524 0.970582 3.140801 0
M  V30 6 C 3.013892 1.691507 4.010128 0
M  V30 7 C 1.253695 1.060670 2.008084 0 CFG=2
M  V30 8 C 1.928851 1.449240 0.741031 0 CFG=2
M  V30 9 N 2.155641 2.867924 0.578920 0
M  V30 10 C 1.050974 0.995284 -0.402685 0
M  V30 11 C -0.362817 1.386721 -0.187972 0 CFG=2
M  V30 12 C -0.961294 1.892391 -1.434450 0
M  V30 13 C -0.934454 3.262780 -1.709837 0
M  V30 14 C -1.462095 3.895909 -2.838996 0
M  V30 15 N -2.062584 3.089743 -3.762212 0
M  V30 16 C -2.097966 1.767682 -3.515481 0
M  V30 17 C -1.586994 1.126295 -2.415654 0
M  V30 18 N -1.653381 -0.272916 -2.227997 0
M  V30 19 C -2.234576 -1.273052 -3.042620 0
M  V30 20 O -2.797606 -0.948266 -4.116163 0
M  V30 21 C -2.231884 -2.695890 -2.725239 0
M  V30 22 C -2.806955 -3.629499 -3.554030 0
M  V30 23 C -2.813039 -4.978808 -3.268443 0
M  V30 24 C -2.230480 -5.459150 -2.115344 0
M  V30 25 F -2.227604 -6.773208 -1.821134 0
M  V30 26 C -1.663261 -4.496481 -1.307018 0
M  V30 27 C -1.018653 -4.895477 -0.057930 0
M  V30 28 C 0.291168 -5.252467 0.182386 0
M  V30 29 F 1.062008 -5.217844 -0.917592 0
M  V30 30 C 0.670854 -5.594899 1.463843 0
M  V30 31 C -0.251702 -5.582296 2.506638 0
M  V30 32 C -1.568762 -5.226731 2.282691 0
M  V30 33 C -1.948277 -4.881569 0.986517 0
M  V30 34 F -3.261983 -4.553311 0.896742 0
M  V30 35 N -1.667182 -3.182491 -1.602990 0
M  V30 36 C -0.560090 2.393087 0.914261 0
M  V30 37 C 0.036466 1.922003 2.222188 0 CFG=2
M  V30 38 C 0.442433 3.118705 3.048209 0
M  V30 39 H 0.783674 -3.030300 4.443089 0
M  V30 40 H 2.534783 -2.714781 4.519438 0
M  V30 41 H 1.927706 -3.550720 3.089262 0
M  V30 42 H 2.596721 1.651615 5.037222 0
M  V30 43 H 3.114016 2.764437 3.752894 0
M  V30 44 H 4.029416 1.206842 4.054295 0
M  V30 45 H 0.857935 0.011678 1.861997 0
M  V30 46 H 2.935665 0.948548 0.628298 0
M  V30 47 H 1.967101 3.158646 -0.391244 0
M  V30 48 H 3.039148 3.215867 0.973643 0
M  V30 49 H 1.179755 -0.124518 -0.437553 0
M  V30 50 H 1.507413 1.413933 -1.321104 0
M  V30 51 H -0.928894 0.447187 0.097304 0
M  V30 52 H -0.490684 4.018215 -1.077529 0
M  V30 53 H -1.428769 4.954874 -3.027958 0
M  V30 54 H -2.597412 1.255247 -4.321979 0
M  V30 55 H -1.233513 -0.735259 -1.396618 0
M  V30 56 H -3.279543 -3.297110 -4.476986 0
M  V30 57 H -3.282178 -5.647771 -3.964807 0
M  V30 58 H 1.704920 -5.864120 1.588366 0
M  V30 59 H 0.075285 -5.857158 3.509057 0
M  V30 60 H -2.241523 -5.234194 3.129363 0
M  V30 61 H -1.647147 2.503363 1.073649 0
M  V30 62 H -0.146831 3.392159 0.722275 0
M  V30 63 H -0.713555 1.350299 2.803380 0
M  V30 64 H -0.453345 3.790675 3.209361 0
M  V30 65 H 1.247741 3.722346 2.600954 0
M  V30 66 H 0.744336 2.838374 4.075453 0
M  V30 END ATOM
M  V30 BEGIN BOND
M  V30 1 1 1 2
M  V30 2 1 2 3
M  V30 3 2 3 4
M  V30 4 1 3 5
M  V30 5 1 5 6
M  V30 6 1 5 7
M  V30 7 1 7 8
M  V30 8 1 8 9
M  V30 9 1 8 10
M  V30 10 1 10 11
M  V30 11 1 11 12
M  V30 12 2 12 13
M  V30 13 1 13 14
M  V30 14 2 14 15
M  V30 15 1 15 16
M  V30 16 2 16 17
M  V30 17 1 17 18
M  V30 18 1 18 19
M  V30 19 2 19 20
M  V30 20 1 19 21
M  V30 21 2 21 22
M  V30 22 1 22 23
M  V30 23 2 23 24
M  V30 24 1 24 25
M  V30 25 1 24 26
M  V30 26 1 26 27
M  V30 27 2 27 28
M  V30 28 1 28 29
M  V30 29 1 28 30
M  V30 30 2 30 31
M  V30 31 1 31 32
M  V30 32 2 32 33
M  V30 33 1 33 34
M  V30 34 2 26 35
M  V30 35 1 11 36
M  V30 36 1 36 37
M  V30 37 1 37 38
M  V30 38 1 37 7
M  V30 39 1 17 12
M  V30 40 1 35 21
M  V30 41 1 33 27
M  V30 42 1 1 39
M  V30 43 1 1 40
M  V30 44 1 1 41
M  V30 45 1 6 42
M  V30 46 1 6 43
M  V30 47 1 6 44
M  V30 48 1 7 45 CFG=3
M  V30 49 1 8 46 CFG=3
M  V30 50 1 9 47
M  V30 51 1 9 48
M  V30 52 1 10 49
M  V30 53 1 10 50
M  V30 54 1 11 51 CFG=1
M  V30 55 1 13 52
M  V30 56 1 14 53
M  V30 57 1 16 54
M  V30 58 1 18 55
M  V30 59 1 22 56
M  V30 60 1 23 57
M  V30 61 1 30 58
M  V30 62 1 31 59
M  V30 63 1 32 60
M  V30 64 1 36 61
M  V30 65 1 36 62
M  V30 66 1 37 63 CFG=1
M  V30 67 1 38 64
M  V30 68 1 38 65
M  V30 69 1 38 66
M  V30 END BOND
M  V30 END CTAB
M  END
>  <Dataset>  (285) 
ChEMBL_Kinases

>  <Ligand_Instance>  (285) 
nan

>  <PDB_ID>  (285) 
nan

>  <Standardized_SMILES>  (285) 
COC(=O)N(C)[C@@H]1[C@H](N)C[C@H](c2ccncc2NC(=O)c2ccc(F)c(-c3c(F)cccc3F)n2)C[C@@H]1C

>  <Name>  (285) 
nan

>  <Pocket>  (285) 
nan

>  <ATP_Site>  (285) 
nan

>  <Peripheral>  (285) 
nan

>  <Num_H_Atoms_ProtBoundConf>  (285) 
nan

>  <Num_Resolved_Atoms>  (285) 
nan

>  <Num_Not_Resolved_Atoms>  (285) 
nan

$$$$
CHEMBL442919
     RDKit          3D

  0  0  0  0  0  0  0  0  0  0999 V3000
M  V30 BEGIN CTAB
M  V30 COUNTS 84 91 0 0 0
M  V30 BEGIN ATOM
M  V30 1 O -3.152551 -6.406779 3.389311 0
M  V30 2 C -2.936569 -6.307488 1.994839 0
M  V30 3 C -4.036147 -7.016230 1.271870 0
M  V30 4 N -5.347694 -6.596656 1.459349 0
M  V30 5 C -5.888491 -5.409044 0.985416 0
M  V30 6 C -5.279101 -4.165365 1.440484 0
M  V30 7 N -5.595858 -3.587693 2.616024 0
M  V30 8 N -4.907451 -2.473978 2.695474 0
M  V30 9 C -4.161558 -2.333338 1.595521 0
M  V30 10 C -3.273034 -1.374433 1.163575 0
M  V30 11 C -3.025723 -0.282816 1.949593 0
M  V30 12 C -2.163500 0.697483 1.575881 0
M  V30 13 C -1.758214 1.910118 2.233202 0
M  V30 14 C -1.109181 1.842611 3.457060 0
M  V30 15 C -0.695020 2.965716 4.133006 0
M  V30 16 C -0.967014 4.184551 3.513358 0
M  V30 17 C -1.611855 4.275048 2.295319 0
M  V30 18 C -2.017675 3.127789 1.636892 0
M  V30 19 C -1.518084 0.574147 0.352113 0
M  V30 20 C -0.560149 1.428429 -0.337734 0
M  V30 21 C -0.803505 1.878714 -1.625313 0
M  V30 22 C 0.150537 2.682937 -2.226921 0
M  V30 23 C 1.350035 3.070512 -1.612124 0
M  V30 24 C 2.243559 3.904437 -2.400569 0
M  V30 25 N 3.228884 3.250412 -3.188725 0
M  V30 26 C 4.224131 2.510157 -2.467403 0
M  V30 27 C 4.954053 1.531825 -3.377487 0
M  V30 28 C 4.051494 0.431575 -3.838794 0
M  V30 29 C 4.054207 -0.713050 -2.877582 0
M  V30 30 N 4.222639 -2.028921 -2.791988 0
M  V30 31 N 4.082607 -2.450852 -1.560622 0
M  V30 32 C 3.811724 -1.378104 -0.801410 0
M  V30 33 C 3.576572 -1.418286 0.652119 0
M  V30 34 C 3.306337 -0.293063 1.395519 0
M  V30 35 C 3.081444 -0.266225 2.746113 0
M  V30 36 C 3.135414 -1.496718 3.407393 0
M  V30 37 C 3.407515 -2.618216 2.650941 0
M  V30 38 N 3.616441 -2.557061 1.326218 0
M  V30 39 N 3.797898 -0.321256 -1.622637 0
M  V30 40 C 2.640437 0.995297 -3.976368 0
M  V30 41 C 2.759126 2.465220 -4.283918 0
M  V30 42 C 1.521454 2.585873 -0.333274 0
M  V30 43 C 0.596199 1.781049 0.303743 0
M  V30 44 N -1.757753 -0.516730 -0.445524 0
M  V30 45 C -2.630053 -1.494619 -0.053104 0
M  V30 46 C -2.915222 -2.611960 -0.813944 0
M  V30 47 C -3.802731 -3.579090 -0.393506 0
M  V30 48 N -4.379108 -3.385136 0.792629 0
M  V30 49 H -3.072933 -7.370830 3.609151 0
M  V30 50 H -1.963726 -6.872997 1.847370 0
M  V30 51 H -2.741626 -5.297427 1.688803 0
M  V30 52 H -3.736296 -7.093268 0.180059 0
M  V30 53 H -3.966356 -8.097292 1.618341 0
M  V30 54 H -5.985518 -7.320496 1.834807 0
M  V30 55 H -6.982632 -5.385910 1.322481 0
M  V30 56 H -6.012408 -5.387548 -0.144720 0
M  V30 57 H -3.483483 -0.111644 2.911486 0
M  V30 58 H -0.930851 0.854192 3.880377 0
M  V30 59 H -0.201088 2.831407 5.071284 0
M  V30 60 H -0.645027 5.089483 4.035995 0
M  V30 61 H -1.793472 5.272716 1.864234 0
M  V30 62 H -2.519853 3.212966 0.685311 0
M  V30 63 H -1.710761 1.617184 -2.157689 0
M  V30 64 H -0.077552 3.010297 -3.224836 0
M  V30 65 H 1.654797 4.555382 -3.079582 0
M  V30 66 H 2.790784 4.615154 -1.724519 0
M  V30 67 H 3.860594 2.056218 -1.537315 0
M  V30 68 H 5.010337 3.259027 -2.172260 0
M  V30 69 H 5.838417 1.180114 -2.822402 0
M  V30 70 H 5.343352 2.129179 -4.233868 0
M  V30 71 H 4.359015 0.065078 -4.830289 0
M  V30 72 H 4.172515 -3.438299 -1.268608 0
M  V30 73 H 3.263126 0.664009 0.906117 0
M  V30 74 H 2.873045 0.653238 3.279065 0
M  V30 75 H 2.957671 -1.479179 4.476535 0
M  V30 76 H 3.445310 -3.558333 3.180724 0
M  V30 77 H 2.049031 0.742219 -3.101221 0
M  V30 78 H 2.168150 0.514832 -4.873443 0
M  V30 79 H 1.846299 2.870183 -4.766757 0
M  V30 80 H 3.538903 2.553753 -5.091238 0
M  V30 81 H 2.423666 2.870239 0.161439 0
M  V30 82 H 0.800092 1.437622 1.307110 0
M  V30 83 H -2.414007 -2.716370 -1.776940 0
M  V30 84 H -4.010712 -4.448861 -1.008688 0
M  V30 END ATOM
M  V30 BEGIN BOND
M  V30 1 1 1 2
M  V30 2 1 2 3
M  V30 3 1 3 4
M  V30 4 1 4 5
M  V30 5 1 5 6
M  V30 6 2 6 7
M  V30 7 1 7 8
M  V30 8 2 8 9
M  V30 9 1 9 10
M  V30 10 2 10 11
M  V30 11 1 11 12
M  V30 12 1 12 13
M  V30 13 2 13 14
M  V30 14 1 14 15
M  V30 15 2 15 16
M  V30 16 1 16 17
M  V30 17 2 17 18
M  V30 18 2 12 19
M  V30 19 1 19 20
M  V30 20 2 20 21
M  V30 21 1 21 22
M  V30 22 2 22 23
M  V30 23 1 23 24
M  V30 24 1 24 25
M  V30 25 1 25 26
M  V30 26 1 26 27
M  V30 27 1 27 28
M  V30 28 1 28 29
M  V30 29 2 29 30
M  V30 30 1 30 31
M  V30 31 1 31 32
M  V30 32 1 32 33
M  V30 33 2 33 34
M  V30 34 1 34 35
M  V30 35 2 35 36
M  V30 36 1 36 37
M  V30 37 2 37 38
M  V30 38 2 32 39
M  V30 39 1 28 40
M  V30 40 1 40 41
M  V30 41 1 23 42
M  V30 42 2 42 43
M  V30 43 1 19 44
M  V30 44 2 44 45
M  V30 45 1 45 46
M  V30 46 2 46 47
M  V30 47 1 47 48
M  V30 48 1 48 6
M  V30 49 1 48 9
M  V30 50 1 45 10
M  V30 51 1 18 13
M  V30 52 1 43 20
M  V30 53 1 41 25
M  V30 54 1 39 29
M  V30 55 1 38 33
M  V30 56 1 1 49
M  V30 57 1 2 50
M  V30 58 1 2 51
M  V30 59 1 3 52
M  V30 60 1 3 53
M  V30 61 1 4 54
M  V30 62 1 5 55
M  V30 63 1 5 56
M  V30 64 1 11 57
M  V30 65 1 14 58
M  V30 66 1 15 59
M  V30 67 1 16 60
M  V30 68 1 17 61
M  V30 69 1 18 62
M  V30 70 1 21 63
M  V30 71 1 22 64
M  V30 72 1 24 65
M  V30 73 1 24 66
M  V30 74 1 26 67
M  V30 75 1 26 68
M  V30 76 1 27 69
M  V30 77 1 27 70
M  V30 78 1 28 71
M  V30 79 1 31 72
M  V30 80 1 34 73
M  V30 81 1 35 74
M  V30 82 1 36 75
M  V30 83 1 37 76
M  V30 84 1 40 77
M  V30 85 1 40 78
M  V30 86 1 41 79
M  V30 87 1 41 80
M  V30 88 1 42 81
M  V30 89 1 43 82
M  V30 90 1 46 83
M  V30 91 1 47 84
M  V30 END BOND
M  V30 END CTAB
M  END
>  <Dataset>  (286) 
ChEMBL_Kinases

>  <Ligand_Instance>  (286) 
nan

>  <PDB_ID>  (286) 
nan

>  <Standardized_SMILES>  (286) 
OCCNCc1nnc2c3cc(-c4ccccc4)c(-c4ccc(CN5CCC(c6n[nH]c(-c7ccccn7)n6)CC5)cc4)nc3ccn12

>  <Name>  (286) 
nan

>  <Pocket>  (286) 
nan

>  <ATP_Site>  (286) 
nan

>  <Peripheral>  (286) 
nan

>  <Num_H_Atoms_ProtBoundConf>  (286) 
nan

>  <Num_Resolved_Atoms>  (286) 
nan

>  <Num_Not_Resolved_Atoms>  (286) 
nan

$$$$
CHEMBL3702050
     RDKit          3D

  0  0  0  0  0  0  0  0  0  0999 V3000
M  V30 BEGIN CTAB
M  V30 COUNTS 67 72 0 0 0
M  V30 BEGIN ATOM
M  V30 1 C 3.176549 -0.642416 3.776735 0
M  V30 2 O 3.735507 0.478279 4.368123 0
M  V30 3 C 3.248447 1.620586 3.695488 0
M  V30 4 C 3.849059 2.839357 4.344634 0
M  V30 5 N 3.491617 4.084174 3.829294 0
M  V30 6 C 2.208916 4.605520 3.946028 0
M  V30 7 C 1.584393 4.877388 2.590984 0
M  V30 8 N 2.207565 3.991745 1.632667 0
M  V30 9 C 1.584882 2.868249 1.029636 0
M  V30 10 C 0.338978 2.397120 1.373467 0
M  V30 11 C -0.166651 1.291570 0.720002 0
M  V30 12 C 0.481409 0.594356 -0.275908 0
M  V30 13 N -0.014165 -0.545703 -0.956436 0
M  V30 14 C -1.245336 -1.218595 -0.762583 0
M  V30 15 N -2.191913 -0.882708 0.124724 0
M  V30 16 C -3.353910 -1.511853 0.317317 0
M  V30 17 C -3.615237 -2.610290 -0.464576 0
M  V30 18 C -4.615097 -3.540417 -0.633269 0
M  V30 19 C -5.819057 -3.626175 0.056125 0
M  V30 20 C -6.709183 -4.626570 -0.243688 0
M  V30 21 N -6.364201 -5.489708 -1.207613 0
M  V30 22 C -5.202318 -5.419966 -1.883911 0
M  V30 23 C -4.250641 -4.425457 -1.627673 0
M  V30 24 N -3.038528 -4.059730 -2.078961 0
M  V30 25 C -2.459833 -4.862862 -3.137175 0
M  V30 26 C -1.101619 -4.439821 -3.560274 0
M  V30 27 C -0.146615 -5.097426 -2.627091 0
M  V30 28 C -0.792311 -6.438511 -2.371829 0
M  V30 29 C -2.259045 -6.261164 -2.609529 0
M  V30 30 C -2.661980 -2.975521 -1.382022 0
M  V30 31 N -1.521106 -2.289581 -1.511755 0
M  V30 32 N 1.693309 1.091306 -0.576998 0
M  V30 33 C 2.219470 2.163537 0.035098 0
M  V30 34 C 3.553583 4.431562 1.400102 0
M  V30 35 C 4.262458 4.505625 2.729707 0
M  V30 36 H 3.509104 -1.589955 4.244625 0
M  V30 37 H 2.055981 -0.594875 3.802109 0
M  V30 38 H 3.477222 -0.662255 2.710513 0
M  V30 39 H 2.161325 1.562445 3.718172 0
M  V30 40 H 3.568626 1.516793 2.627280 0
M  V30 41 H 4.968313 2.722920 4.209156 0
M  V30 42 H 3.723735 2.738712 5.452556 0
M  V30 43 H 1.479975 3.937772 4.490354 0
M  V30 44 H 2.145887 5.559313 4.549356 0
M  V30 45 H 1.803443 5.939067 2.336703 0
M  V30 46 H 0.486184 4.699902 2.660985 0
M  V30 47 H -0.236249 2.887317 2.145542 0
M  V30 48 H -1.146159 0.974713 1.038780 0
M  V30 49 H 0.628350 -0.930318 -1.700816 0
M  V30 50 H -4.096991 -1.212651 1.043766 0
M  V30 51 H -6.107512 -2.933845 0.832685 0
M  V30 52 H -7.646826 -4.701722 0.289300 0
M  V30 53 H -4.961164 -6.133405 -2.657112 0
M  V30 54 H -3.122185 -4.867464 -4.037806 0
M  V30 55 H -0.974702 -3.341712 -3.655602 0
M  V30 56 H -0.922559 -4.904172 -4.575347 0
M  V30 57 H 0.039567 -4.587520 -1.677827 0
M  V30 58 H 0.865161 -5.241656 -3.107811 0
M  V30 59 H -0.563835 -6.755655 -1.326451 0
M  V30 60 H -0.361986 -7.152145 -3.113973 0
M  V30 61 H -2.634605 -7.031281 -3.313134 0
M  V30 62 H -2.788488 -6.406093 -1.641480 0
M  V30 63 H 3.197133 2.399458 -0.349520 0
M  V30 64 H 4.120964 3.864567 0.650667 0
M  V30 65 H 3.458476 5.462491 0.936906 0
M  V30 66 H 5.154233 3.833317 2.628855 0
M  V30 67 H 4.622950 5.571823 2.834503 0
M  V30 END ATOM
M  V30 BEGIN BOND
M  V30 1 1 1 2
M  V30 2 1 2 3
M  V30 3 1 3 4
M  V30 4 1 4 5
M  V30 5 1 5 6
M  V30 6 1 6 7
M  V30 7 1 7 8
M  V30 8 1 8 9
M  V30 9 2 9 10
M  V30 10 1 10 11
M  V30 11 2 11 12
M  V30 12 1 12 13
M  V30 13 1 13 14
M  V30 14 2 14 15
M  V30 15 1 15 16
M  V30 16 2 16 17
M  V30 17 1 17 18
M  V30 18 2 18 19
M  V30 19 1 19 20
M  V30 20 2 20 21
M  V30 21 1 21 22
M  V30 22 2 22 23
M  V30 23 1 23 24
M  V30 24 1 24 25
M  V30 25 1 25 26
M  V30 26 1 26 27
M  V30 27 1 27 28
M  V30 28 1 28 29
M  V30 29 1 24 30
M  V30 30 2 30 31
M  V30 31 1 12 32
M  V30 32 2 32 33
M  V30 33 1 8 34
M  V30 34 1 34 35
M  V30 35 1 35 5
M  V30 36 1 33 9
M  V30 37 1 31 14
M  V30 38 1 30 17
M  V30 39 1 23 18
M  V30 40 1 29 25
M  V30 41 1 1 36
M  V30 42 1 1 37
M  V30 43 1 1 38
M  V30 44 1 3 39
M  V30 45 1 3 40
M  V30 46 1 4 41
M  V30 47 1 4 42
M  V30 48 1 6 43
M  V30 49 1 6 44
M  V30 50 1 7 45
M  V30 51 1 7 46
M  V30 52 1 10 47
M  V30 53 1 11 48
M  V30 54 1 13 49
M  V30 55 1 16 50
M  V30 56 1 19 51
M  V30 57 1 20 52
M  V30 58 1 22 53
M  V30 59 1 25 54
M  V30 60 1 26 55
M  V30 61 1 26 56
M  V30 62 1 27 57
M  V30 63 1 27 58
M  V30 64 1 28 59
M  V30 65 1 28 60
M  V30 66 1 29 61
M  V30 67 1 29 62
M  V30 68 1 33 63
M  V30 69 1 34 64
M  V30 70 1 34 65
M  V30 71 1 35 66
M  V30 72 1 35 67
M  V30 END BOND
M  V30 END CTAB
M  END
>  <Dataset>  (287) 
ChEMBL_Kinases

>  <Ligand_Instance>  (287) 
nan

>  <PDB_ID>  (287) 
nan

>  <Standardized_SMILES>  (287) 
COCCN1CCN(c2ccc(Nc3ncc4c5ccncc5n(C5CCCC5)c4n3)nc2)CC1

>  <Name>  (287) 
nan

>  <Pocket>  (287) 
nan

>  <ATP_Site>  (287) 
nan

>  <Peripheral>  (287) 
nan

>  <Num_H_Atoms_ProtBoundConf>  (287) 
nan

>  <Num_Resolved_Atoms>  (287) 
nan

>  <Num_Not_Resolved_Atoms>  (287) 
nan

$$$$
CHEMBL3702053
     RDKit          3D

  0  0  0  0  0  0  0  0  0  0999 V3000
M  V30 BEGIN CTAB
M  V30 COUNTS 71 76 0 0 0
M  V30 BEGIN ATOM
M  V30 1 C 2.818724 -1.517406 1.658080 0
M  V30 2 C 4.165054 -1.229419 1.084493 0
M  V30 3 N 4.370961 0.121515 0.696892 0
M  V30 4 C 4.460593 1.105858 1.669237 0
M  V30 5 C 3.140275 1.334919 2.363806 0
M  V30 6 C 4.873750 0.309456 -0.612127 0
M  V30 7 C 5.141937 1.697448 -1.081369 0
M  V30 8 C 3.899599 2.480711 -1.430180 0
M  V30 9 N 2.828477 1.546849 -1.847923 0
M  V30 10 C 1.434399 1.567030 -1.580544 0
M  V30 11 C 0.655117 0.443126 -1.874525 0
M  V30 12 C -0.679628 0.612332 -1.555884 0
M  V30 13 C -1.286327 1.719754 -1.006101 0
M  V30 14 N -2.694657 1.740860 -0.717965 0
M  V30 15 C -3.365959 0.529637 -1.034931 0
M  V30 16 N -3.985534 0.133756 -2.173707 0
M  V30 17 C -4.563234 -1.081774 -2.270781 0
M  V30 18 C -4.550314 -1.978798 -1.215831 0
M  V30 19 C -5.029550 -3.243165 -1.008353 0
M  V30 20 C -5.721643 -4.093036 -1.821239 0
M  V30 21 C -6.066853 -5.332280 -1.303642 0
M  V30 22 N -5.736064 -5.697109 -0.042028 0
M  V30 23 C -5.058098 -4.831277 0.716643 0
M  V30 24 C -4.670680 -3.570539 0.282644 0
M  V30 25 N -3.997905 -2.560722 0.861244 0
M  V30 26 C -3.490352 -2.606374 2.217139 0
M  V30 27 C -4.509906 -2.082267 3.207038 0
M  V30 28 C -3.977330 -0.768378 3.704564 0
M  V30 29 C -2.494657 -0.762417 3.430773 0
M  V30 30 C -2.216243 -1.858704 2.428101 0
M  V30 31 C -3.909321 -1.565026 -0.042123 0
M  V30 32 N -3.350872 -0.343521 -0.000756 0
M  V30 33 N -0.431881 2.750630 -0.763111 0
M  V30 34 N 0.856675 2.651837 -1.045554 0
M  V30 35 C 3.510828 0.534547 -2.631614 0
M  V30 36 C 3.981098 -0.466734 -1.579208 0
M  V30 37 H 1.967817 -1.232890 0.985287 0
M  V30 38 H 2.738710 -2.652527 1.671214 0
M  V30 39 H 2.661948 -1.230595 2.700453 0
M  V30 40 H 4.942300 -1.612890 1.786138 0
M  V30 41 H 4.286287 -1.870263 0.167059 0
M  V30 42 H 5.167834 0.728193 2.478807 0
M  V30 43 H 4.853201 2.078662 1.403931 0
M  V30 44 H 2.942962 2.440139 2.488975 0
M  V30 45 H 3.150141 0.968285 3.429757 0
M  V30 46 H 2.263217 0.961203 1.808164 0
M  V30 47 H 5.846058 -0.232403 -0.648760 0
M  V30 48 H 5.741810 2.281528 -0.373517 0
M  V30 49 H 5.758523 1.652410 -2.008673 0
M  V30 50 H 4.081170 3.108097 -2.324564 0
M  V30 51 H 3.553805 3.170071 -0.637351 0
M  V30 52 H 1.044987 -0.452652 -2.297524 0
M  V30 53 H -1.284734 -0.275805 -1.790075 0
M  V30 54 H -3.044395 2.638868 -0.315078 0
M  V30 55 H -5.041975 -1.338786 -3.202564 0
M  V30 56 H -5.964155 -3.755258 -2.826957 0
M  V30 57 H -6.620504 -6.012455 -1.953211 0
M  V30 58 H -4.810202 -5.156254 1.722421 0
M  V30 59 H -3.302306 -3.662527 2.497758 0
M  V30 60 H -5.506541 -2.007418 2.741279 0
M  V30 61 H -4.611267 -2.763714 4.096115 0
M  V30 62 H -4.165974 -0.671115 4.801350 0
M  V30 63 H -4.504641 0.050094 3.179129 0
M  V30 64 H -2.227479 0.194030 2.974672 0
M  V30 65 H -1.944521 -0.974034 4.388042 0
M  V30 66 H -1.851898 -1.462714 1.460115 0
M  V30 67 H -1.396153 -2.514592 2.833049 0
M  V30 68 H 4.300697 0.895323 -3.286786 0
M  V30 69 H 2.716242 0.061408 -3.279232 0
M  V30 70 H 3.072318 -0.825816 -1.066655 0
M  V30 71 H 4.473513 -1.344358 -2.014330 0
M  V30 END ATOM
M  V30 BEGIN BOND
M  V30 1 1 1 2
M  V30 2 1 2 3
M  V30 3 1 3 4
M  V30 4 1 4 5
M  V30 5 1 3 6
M  V30 6 1 6 7
M  V30 7 1 7 8
M  V30 8 1 8 9
M  V30 9 1 9 10
M  V30 10 2 10 11
M  V30 11 1 11 12
M  V30 12 2 12 13
M  V30 13 1 13 14
M  V30 14 1 14 15
M  V30 15 2 15 16
M  V30 16 1 16 17
M  V30 17 2 17 18
M  V30 18 1 18 19
M  V30 19 2 19 20
M  V30 20 1 20 21
M  V30 21 2 21 22
M  V30 22 1 22 23
M  V30 23 2 23 24
M  V30 24 1 24 25
M  V30 25 1 25 26
M  V30 26 1 26 27
M  V30 27 1 27 28
M  V30 28 1 28 29
M  V30 29 1 29 30
M  V30 30 1 25 31
M  V30 31 2 31 32
M  V30 32 1 13 33
M  V30 33 2 33 34
M  V30 34 1 9 35
M  V30 35 1 35 36
M  V30 36 1 36 6
M  V30 37 1 34 10
M  V30 38 1 32 15
M  V30 39 1 31 18
M  V30 40 1 24 19
M  V30 41 1 30 26
M  V30 42 1 1 37
M  V30 43 1 1 38
M  V30 44 1 1 39
M  V30 45 1 2 40
M  V30 46 1 2 41
M  V30 47 1 4 42
M  V30 48 1 4 43
M  V30 49 1 5 44
M  V30 50 1 5 45
M  V30 51 1 5 46
M  V30 52 1 6 47
M  V30 53 1 7 48
M  V30 54 1 7 49
M  V30 55 1 8 50
M  V30 56 1 8 51
M  V30 57 1 11 52
M  V30 58 1 12 53
M  V30 59 1 14 54
M  V30 60 1 17 55
M  V30 61 1 20 56
M  V30 62 1 21 57
M  V30 63 1 23 58
M  V30 64 1 26 59
M  V30 65 1 27 60
M  V30 66 1 27 61
M  V30 67 1 28 62
M  V30 68 1 28 63
M  V30 69 1 29 64
M  V30 70 1 29 65
M  V30 71 1 30 66
M  V30 72 1 30 67
M  V30 73 1 35 68
M  V30 74 1 35 69
M  V30 75 1 36 70
M  V30 76 1 36 71
M  V30 END BOND
M  V30 END CTAB
M  END
>  <Dataset>  (288) 
ChEMBL_Kinases

>  <Ligand_Instance>  (288) 
nan

>  <PDB_ID>  (288) 
nan

>  <Standardized_SMILES>  (288) 
CCN(CC)C1CCN(c2ccc(Nc3ncc4c5ccncc5n(C5CCCC5)c4n3)nn2)CC1

>  <Name>  (288) 
nan

>  <Pocket>  (288) 
nan

>  <ATP_Site>  (288) 
nan

>  <Peripheral>  (288) 
nan

>  <Num_H_Atoms_ProtBoundConf>  (288) 
nan

>  <Num_Resolved_Atoms>  (288) 
nan

>  <Num_Not_Resolved_Atoms>  (288) 
nan

$$$$
CHEMBL3687486
     RDKit          3D

  0  0  0  0  0  0  0  0  0  0999 V3000
M  V30 BEGIN CTAB
M  V30 COUNTS 59 62 0 0 0
M  V30 BEGIN ATOM
M  V30 1 C 0.534809 -1.858310 3.737579 0
M  V30 2 O 0.846935 -1.160382 2.580616 0
M  V30 3 C 2.135531 -0.692004 2.545086 0 CFG=1
M  V30 4 C 2.968454 -1.275548 1.443932 0 CFG=2
M  V30 5 C 4.422427 -1.155537 1.850330 0
M  V30 6 C 2.701128 -0.721846 0.082794 0
M  V30 7 C 1.913255 0.541395 0.170635 0 CFG=2
M  V30 8 C 1.830770 1.258465 -1.127231 0
M  V30 9 C 2.850869 2.182587 -1.362091 0
M  V30 10 C 2.776649 2.855809 -2.576539 0
M  V30 11 N 1.797500 2.641769 -3.470420 0
M  V30 12 C 0.793160 1.745701 -3.262102 0
M  V30 13 C 0.840906 1.065273 -2.069460 0
M  V30 14 N -0.131966 0.078577 -1.670226 0
M  V30 15 C -1.196967 0.735318 -0.953639 0
M  V30 16 O -1.010355 1.969025 -0.862125 0
M  V30 17 C -2.340581 0.017483 -0.413187 0
M  V30 18 C -3.281253 0.761542 0.246086 0
M  V30 19 C -4.403653 0.199940 0.799489 0
M  V30 20 C -4.608415 -1.165212 0.697257 0
M  V30 21 F -5.694201 -1.807272 1.216716 0
M  V30 22 C -3.638444 -1.903441 0.022120 0
M  V30 23 C -3.733363 -3.348484 -0.155949 0
M  V30 24 C -4.403311 -3.671184 -1.328715 0
M  V30 25 F -4.917844 -2.784454 -2.219768 0
M  V30 26 C -4.600321 -5.002059 -1.684088 0
M  V30 27 C -4.114568 -5.974666 -0.844011 0
M  V30 28 C -3.440219 -5.665951 0.336320 0
M  V30 29 C -3.250259 -4.333245 0.679397 0
M  V30 30 F -2.622950 -3.876004 1.778852 0
M  V30 31 N -2.554740 -1.303359 -0.502896 0
M  V30 32 C 2.533650 1.410334 1.246295 0
M  V30 33 C 2.112812 0.814247 2.572090 0 CFG=2
M  V30 34 N 2.877773 1.367954 3.667576 0
M  V30 35 H 1.157646 -2.749514 3.908526 0
M  V30 36 H -0.550375 -2.094358 3.693176 0
M  V30 37 H 0.678535 -1.169716 4.592328 0
M  V30 38 H 2.638745 -1.005519 3.506572 0
M  V30 39 H 2.729768 -2.358745 1.408394 0
M  V30 40 H 4.629451 -0.250913 2.457071 0
M  V30 41 H 4.694549 -2.016333 2.459866 0
M  V30 42 H 5.056122 -1.080997 0.933460 0
M  V30 43 H 2.223017 -1.467436 -0.599635 0
M  V30 44 H 3.679590 -0.489693 -0.404665 0
M  V30 45 H 0.839952 0.304811 0.418781 0
M  V30 46 H 3.676311 2.423718 -0.709478 0
M  V30 47 H 3.507376 3.598536 -2.879078 0
M  V30 48 H -0.008203 1.540264 -3.943347 0
M  V30 49 H -0.180373 -0.966355 -1.810647 0
M  V30 50 H -3.189355 1.827419 0.364898 0
M  V30 51 H -5.147299 0.790700 1.321090 0
M  V30 52 H -5.102290 -5.341949 -2.563644 0
M  V30 53 H -4.217138 -7.019485 -1.032008 0
M  V30 54 H -3.038629 -6.393298 1.031488 0
M  V30 55 H 2.163155 2.430436 1.102433 0
M  V30 56 H 3.614177 1.432797 1.080744 0
M  V30 57 H 1.060646 1.189707 2.734132 0
M  V30 58 H 2.282248 1.738438 4.442630 0
M  V30 59 H 3.478025 2.166082 3.325737 0
M  V30 END ATOM
M  V30 BEGIN BOND
M  V30 1 1 1 2
M  V30 2 1 2 3
M  V30 3 1 3 4
M  V30 4 1 4 5
M  V30 5 1 4 6
M  V30 6 1 6 7
M  V30 7 1 7 8
M  V30 8 2 8 9
M  V30 9 1 9 10
M  V30 10 2 10 11
M  V30 11 1 11 12
M  V30 12 2 12 13
M  V30 13 1 13 14
M  V30 14 1 14 15
M  V30 15 2 15 16
M  V30 16 1 15 17
M  V30 17 2 17 18
M  V30 18 1 18 19
M  V30 19 2 19 20
M  V30 20 1 20 21
M  V30 21 1 20 22
M  V30 22 1 22 23
M  V30 23 2 23 24
M  V30 24 1 24 25
M  V30 25 1 24 26
M  V30 26 2 26 27
M  V30 27 1 27 28
M  V30 28 2 28 29
M  V30 29 1 29 30
M  V30 30 2 22 31
M  V30 31 1 7 32
M  V30 32 1 32 33
M  V30 33 1 33 34
M  V30 34 1 33 3
M  V30 35 1 13 8
M  V30 36 1 31 17
M  V30 37 1 29 23
M  V30 38 1 1 35
M  V30 39 1 1 36
M  V30 40 1 1 37
M  V30 41 1 3 38 CFG=1
M  V30 42 1 4 39 CFG=3
M  V30 43 1 5 40
M  V30 44 1 5 41
M  V30 45 1 5 42
M  V30 46 1 6 43
M  V30 47 1 6 44
M  V30 48 1 7 45 CFG=1
M  V30 49 1 9 46
M  V30 50 1 10 47
M  V30 51 1 12 48
M  V30 52 1 14 49
M  V30 53 1 18 50
M  V30 54 1 19 51
M  V30 55 1 26 52
M  V30 56 1 27 53
M  V30 57 1 28 54
M  V30 58 1 32 55
M  V30 59 1 32 56
M  V30 60 1 33 57 CFG=1
M  V30 61 1 34 58
M  V30 62 1 34 59
M  V30 END BOND
M  V30 END CTAB
M  END
>  <Dataset>  (289) 
ChEMBL_Kinases

>  <Ligand_Instance>  (289) 
nan

>  <PDB_ID>  (289) 
nan

>  <Standardized_SMILES>  (289) 
CO[C@H]1[C@H](C)C[C@H](c2ccncc2NC(=O)c2ccc(F)c(-c3c(F)cccc3F)n2)C[C@@H]1N

>  <Name>  (289) 
nan

>  <Pocket>  (289) 
nan

>  <ATP_Site>  (289) 
nan

>  <Peripheral>  (289) 
nan

>  <Num_H_Atoms_ProtBoundConf>  (289) 
nan

>  <Num_Resolved_Atoms>  (289) 
nan

>  <Num_Not_Resolved_Atoms>  (289) 
nan

$$$$
CHEMBL3702052
     RDKit          3D

  0  0  0  0  0  0  0  0  0  0999 V3000
M  V30 BEGIN CTAB
M  V30 COUNTS 72 77 0 0 0
M  V30 BEGIN ATOM
M  V30 1 C 4.746691 -2.589882 0.381323 0
M  V30 2 C 5.755790 -1.715733 -0.263482 0
M  V30 3 N 5.368640 -0.390055 -0.601525 0
M  V30 4 C 5.169744 0.432250 0.487700 0
M  V30 5 C 3.940971 0.078228 1.278929 0
M  V30 6 C 6.029086 0.064062 -1.753513 0
M  V30 7 C 5.774364 1.482511 -2.169601 0
M  V30 8 C 4.322241 1.700669 -2.545378 0
M  V30 9 N 3.528426 0.495050 -2.406571 0
M  V30 10 C 2.236023 0.388601 -1.791870 0
M  V30 11 C 1.416875 -0.718350 -1.870736 0
M  V30 12 C 0.196727 -0.714357 -1.230446 0
M  V30 13 C -0.291419 0.340161 -0.491881 0
M  V30 14 N -1.542864 0.368234 0.175892 0
M  V30 15 C -2.540832 -0.641520 0.219045 0
M  V30 16 N -2.470884 -1.824714 -0.402220 0
M  V30 17 C -3.377303 -2.795954 -0.388783 0
M  V30 18 C -4.517712 -2.564613 0.344423 0
M  V30 19 C -5.679911 -3.240116 0.643138 0
M  V30 20 C -6.086189 -4.510095 0.237663 0
M  V30 21 C -7.327136 -4.948889 0.696491 0
M  V30 22 N -8.087541 -4.161638 1.498791 0
M  V30 23 C -7.684256 -2.922857 1.890274 0
M  V30 24 C -6.461449 -2.444414 1.461013 0
M  V30 25 N -5.787516 -1.275714 1.671056 0
M  V30 26 C -6.314811 -0.190235 2.497268 0
M  V30 27 C -5.811509 1.154874 2.072504 0
M  V30 28 C -4.905848 1.664564 3.168194 0
M  V30 29 C -4.602674 0.485469 4.048173 0
M  V30 30 C -5.843651 -0.367220 3.946499 0
M  V30 31 C -4.613382 -1.353692 0.993560 0
M  V30 32 N -3.638469 -0.436974 0.915874 0
M  V30 33 N 0.532424 1.399350 -0.437835 0
M  V30 34 C 1.727820 1.432620 -1.047830 0
M  V30 35 C 4.035104 -0.753587 -2.907806 0
M  V30 36 C 5.532154 -0.736059 -2.944935 0
M  V30 37 H 5.178018 -3.643742 0.314707 0
M  V30 38 H 3.781868 -2.690176 -0.156282 0
M  V30 39 H 4.636001 -2.422426 1.448667 0
M  V30 40 H 6.589634 -1.601230 0.509996 0
M  V30 41 H 6.257724 -2.258053 -1.101861 0
M  V30 42 H 6.018194 0.352474 1.249814 0
M  V30 43 H 5.139136 1.527648 0.301619 0
M  V30 44 H 3.339245 1.008182 1.483337 0
M  V30 45 H 4.150649 -0.302695 2.305241 0
M  V30 46 H 3.252601 -0.610783 0.761352 0
M  V30 47 H 7.119505 -0.123396 -1.680920 0
M  V30 48 H 6.073790 2.251909 -1.468523 0
M  V30 49 H 6.364745 1.631900 -3.098761 0
M  V30 50 H 3.899556 2.554171 -1.991165 0
M  V30 51 H 4.212082 1.989877 -3.630756 0
M  V30 52 H 1.747465 -1.574032 -2.439288 0
M  V30 53 H -0.376066 -1.616566 -1.342055 0
M  V30 54 H -1.741890 1.254052 0.698904 0
M  V30 55 H -3.277843 -3.733193 -0.905290 0
M  V30 56 H -5.479057 -5.142396 -0.404106 0
M  V30 57 H -7.713977 -5.939496 0.415963 0
M  V30 58 H -8.318143 -2.324862 2.531456 0
M  V30 59 H -7.407107 -0.251876 2.500682 0
M  V30 60 H -5.364820 1.190870 1.080317 0
M  V30 61 H -6.702398 1.843671 2.053537 0
M  V30 62 H -5.440321 2.408291 3.828856 0
M  V30 63 H -3.975573 2.147143 2.759433 0
M  V30 64 H -3.719678 -0.095473 3.713033 0
M  V30 65 H -4.454097 0.774409 5.099623 0
M  V30 66 H -5.511836 -1.430245 4.035084 0
M  V30 67 H -6.626425 -0.089292 4.672672 0
M  V30 68 H 2.237988 2.359216 -0.888996 0
M  V30 69 H 3.748139 -1.629688 -2.289715 0
M  V30 70 H 3.680079 -0.976402 -3.944066 0
M  V30 71 H 5.986450 -1.737463 -3.033865 0
M  V30 72 H 5.850908 -0.208435 -3.891408 0
M  V30 END ATOM
M  V30 BEGIN BOND
M  V30 1 1 1 2
M  V30 2 1 2 3
M  V30 3 1 3 4
M  V30 4 1 4 5
M  V30 5 1 3 6
M  V30 6 1 6 7
M  V30 7 1 7 8
M  V30 8 1 8 9
M  V30 9 1 9 10
M  V30 10 2 10 11
M  V30 11 1 11 12
M  V30 12 2 12 13
M  V30 13 1 13 14
M  V30 14 1 14 15
M  V30 15 2 15 16
M  V30 16 1 16 17
M  V30 17 2 17 18
M  V30 18 1 18 19
M  V30 19 2 19 20
M  V30 20 1 20 21
M  V30 21 2 21 22
M  V30 22 1 22 23
M  V30 23 2 23 24
M  V30 24 1 24 25
M  V30 25 1 25 26
M  V30 26 1 26 27
M  V30 27 1 27 28
M  V30 28 1 28 29
M  V30 29 1 29 30
M  V30 30 1 25 31
M  V30 31 2 31 32
M  V30 32 1 13 33
M  V30 33 2 33 34
M  V30 34 1 9 35
M  V30 35 1 35 36
M  V30 36 1 36 6
M  V30 37 1 34 10
M  V30 38 1 32 15
M  V30 39 1 31 18
M  V30 40 1 24 19
M  V30 41 1 30 26
M  V30 42 1 1 37
M  V30 43 1 1 38
M  V30 44 1 1 39
M  V30 45 1 2 40
M  V30 46 1 2 41
M  V30 47 1 4 42
M  V30 48 1 4 43
M  V30 49 1 5 44
M  V30 50 1 5 45
M  V30 51 1 5 46
M  V30 52 1 6 47
M  V30 53 1 7 48
M  V30 54 1 7 49
M  V30 55 1 8 50
M  V30 56 1 8 51
M  V30 57 1 11 52
M  V30 58 1 12 53
M  V30 59 1 14 54
M  V30 60 1 17 55
M  V30 61 1 20 56
M  V30 62 1 21 57
M  V30 63 1 23 58
M  V30 64 1 26 59
M  V30 65 1 27 60
M  V30 66 1 27 61
M  V30 67 1 28 62
M  V30 68 1 28 63
M  V30 69 1 29 64
M  V30 70 1 29 65
M  V30 71 1 30 66
M  V30 72 1 30 67
M  V30 73 1 34 68
M  V30 74 1 35 69
M  V30 75 1 35 70
M  V30 76 1 36 71
M  V30 77 1 36 72
M  V30 END BOND
M  V30 END CTAB
M  END
>  <Dataset>  (290) 
ChEMBL_Kinases

>  <Ligand_Instance>  (290) 
nan

>  <PDB_ID>  (290) 
nan

>  <Standardized_SMILES>  (290) 
CCN(CC)C1CCN(c2ccc(Nc3ncc4c5ccncc5n(C5CCCC5)c4n3)nc2)CC1

>  <Name>  (290) 
nan

>  <Pocket>  (290) 
nan

>  <ATP_Site>  (290) 
nan

>  <Peripheral>  (290) 
nan

>  <Num_H_Atoms_ProtBoundConf>  (290) 
nan

>  <Num_Resolved_Atoms>  (290) 
nan

>  <Num_Not_Resolved_Atoms>  (290) 
nan

$$$$
CHEMBL255835
     RDKit          3D

  0  0  0  0  0  0  0  0  0  0999 V3000
M  V30 BEGIN CTAB
M  V30 COUNTS 71 77 0 0 0
M  V30 BEGIN ATOM
M  V30 1 N 6.246940 -0.761830 3.567741 0
M  V30 2 C 6.393933 -0.294796 2.225209 0
M  V30 3 N 7.591172 -0.130899 1.634434 0
M  V30 4 C 7.638172 0.319494 0.350761 0
M  V30 5 N 6.485705 0.585914 -0.285035 0
M  V30 6 C 5.267748 0.436208 0.267454 0
M  V30 7 N 4.149559 0.729491 -0.448119 0
M  V30 8 C 2.936598 0.575387 0.116537 0
M  V30 9 C 1.658187 0.849187 -0.530324 0
M  V30 10 C 1.166782 0.240187 -1.673007 0
M  V30 11 C -0.073000 0.626614 -2.145567 0
M  V30 12 C -0.829004 1.592159 -1.518738 0
M  V30 13 C -2.154717 1.958130 -2.081544 0
M  V30 14 N -3.179572 1.134219 -1.526639 0
M  V30 15 C -3.303755 1.225427 -0.099428 0
M  V30 16 C -4.569830 0.616177 0.421338 0
M  V30 17 C -5.151860 -0.453749 -0.467650 0
M  V30 18 C -4.503906 -1.781742 -0.283521 0
M  V30 19 C -3.189698 -2.148834 -0.590888 0
M  V30 20 C -2.955159 -3.467277 -0.278091 0
M  V30 21 C -1.695117 -4.177087 -0.467296 0
M  V30 22 C -0.596513 -3.530873 -1.005584 0
M  V30 23 C 0.594188 -4.187603 -1.188264 0
M  V30 24 N 0.733502 -5.500739 -0.844685 0
M  V30 25 C -0.345934 -6.125106 -0.319064 0
M  V30 26 C -1.561186 -5.501242 -0.118815 0
M  V30 27 N -4.134905 -3.894560 0.219663 0
M  V30 28 N -5.036058 -2.928804 0.220851 0
M  V30 29 C -5.231261 -0.014076 -1.894907 0
M  V30 30 C -4.455840 1.279517 -2.148434 0
M  V30 31 C -0.333962 2.196022 -0.379904 0
M  V30 32 C 0.902080 1.828476 0.113303 0
M  V30 33 C 2.830385 0.117914 1.426900 0
M  V30 34 C 1.580331 -0.093164 2.159821 0
M  V30 35 C 0.739049 -1.058865 1.612671 0
M  V30 36 C -0.487539 -1.373653 2.195679 0
M  V30 37 C -0.836918 -0.695568 3.331377 0
M  V30 38 C -0.021432 0.270149 3.899256 0
M  V30 39 C 1.188289 0.569616 3.310364 0
M  V30 40 C 3.965578 -0.180972 2.156605 0
M  V30 41 C 5.203801 -0.021790 1.574640 0
M  V30 42 H 6.567305 -0.555558 4.552803 0
M  V30 43 H 5.648795 -1.586862 3.848129 0
M  V30 44 H 8.572458 0.472212 -0.180570 0
M  V30 45 H 1.815409 -0.505054 -2.105985 0
M  V30 46 H -0.401701 0.111532 -3.044875 0
M  V30 47 H -2.111615 1.778825 -3.156939 0
M  V30 48 H -2.314422 3.031872 -1.901355 0
M  V30 49 H -3.260065 2.282320 0.267743 0
M  V30 50 H -2.436716 0.697397 0.351332 0
M  V30 51 H -4.348584 0.112971 1.393706 0
M  V30 52 H -5.372858 1.393529 0.579374 0
M  V30 53 H -6.213037 -0.585913 -0.101092 0
M  V30 54 H -2.431147 -1.507619 -1.018409 0
M  V30 55 H -0.648343 -2.477542 -1.300049 0
M  V30 56 H 1.438521 -3.660941 -1.611271 0
M  V30 57 H -0.152535 -7.157941 -0.075379 0
M  V30 58 H -2.392587 -6.071276 0.312758 0
M  V30 59 H -4.309993 -4.865409 0.559669 0
M  V30 60 H -4.790627 -0.800774 -2.536521 0
M  V30 61 H -6.283624 0.197556 -2.213686 0
M  V30 62 H -5.049235 2.093435 -1.660552 0
M  V30 63 H -4.423609 1.428054 -3.236594 0
M  V30 64 H -0.961831 2.947134 0.076563 0
M  V30 65 H 1.238692 2.346851 1.022157 0
M  V30 66 H 0.972141 -1.621600 0.715873 0
M  V30 67 H -1.129802 -2.114131 1.773812 0
M  V30 68 H -1.781985 -0.921587 3.800581 0
M  V30 69 H -0.270655 0.824741 4.798019 0
M  V30 70 H 1.902592 1.300736 3.662663 0
M  V30 71 H 3.941497 -0.543448 3.188597 0
M  V30 END ATOM
M  V30 BEGIN BOND
M  V30 1 1 1 2
M  V30 2 2 2 3
M  V30 3 1 3 4
M  V30 4 2 4 5
M  V30 5 1 5 6
M  V30 6 2 6 7
M  V30 7 1 7 8
M  V30 8 1 8 9
M  V30 9 2 9 10
M  V30 10 1 10 11
M  V30 11 2 11 12
M  V30 12 1 12 13
M  V30 13 1 13 14
M  V30 14 1 14 15
M  V30 15 1 15 16
M  V30 16 1 16 17
M  V30 17 1 17 18
M  V30 18 1 18 19
M  V30 19 2 19 20
M  V30 20 1 20 21
M  V30 21 2 21 22
M  V30 22 1 22 23
M  V30 23 2 23 24
M  V30 24 1 24 25
M  V30 25 2 25 26
M  V30 26 1 20 27
M  V30 27 1 27 28
M  V30 28 1 17 29
M  V30 29 1 29 30
M  V30 30 1 12 31
M  V30 31 2 31 32
M  V30 32 2 8 33
M  V30 33 1 33 34
M  V30 34 2 34 35
M  V30 35 1 35 36
M  V30 36 2 36 37
M  V30 37 1 37 38
M  V30 38 2 38 39
M  V30 39 1 33 40
M  V30 40 2 40 41
M  V30 41 1 41 2
M  V30 42 1 41 6
M  V30 43 1 32 9
M  V30 44 1 39 34
M  V30 45 1 30 14
M  V30 46 2 28 18
M  V30 47 1 26 21
M  V30 48 1 1 42
M  V30 49 1 1 43
M  V30 50 1 4 44
M  V30 51 1 10 45
M  V30 52 1 11 46
M  V30 53 1 13 47
M  V30 54 1 13 48
M  V30 55 1 15 49
M  V30 56 1 15 50
M  V30 57 1 16 51
M  V30 58 1 16 52
M  V30 59 1 17 53
M  V30 60 1 19 54
M  V30 61 1 22 55
M  V30 62 1 23 56
M  V30 63 1 25 57
M  V30 64 1 26 58
M  V30 65 1 27 59
M  V30 66 1 29 60
M  V30 67 1 29 61
M  V30 68 1 30 62
M  V30 69 1 30 63
M  V30 70 1 31 64
M  V30 71 1 32 65
M  V30 72 1 35 66
M  V30 73 1 36 67
M  V30 74 1 37 68
M  V30 75 1 38 69
M  V30 76 1 39 70
M  V30 77 1 40 71
M  V30 END BOND
M  V30 END CTAB
M  END
>  <Dataset>  (291) 
ChEMBL_Kinases

>  <Ligand_Instance>  (291) 
nan

>  <PDB_ID>  (291) 
nan

>  <Standardized_SMILES>  (291) 
Nc1ncnc2nc(-c3ccc(CN4CCC(c5cc(-c6ccncc6)[nH]n5)CC4)cc3)c(-c3ccccc3)cc12

>  <Name>  (291) 
nan

>  <Pocket>  (291) 
nan

>  <ATP_Site>  (291) 
nan

>  <Peripheral>  (291) 
nan

>  <Num_H_Atoms_ProtBoundConf>  (291) 
nan

>  <Num_Resolved_Atoms>  (291) 
nan

>  <Num_Not_Resolved_Atoms>  (291) 
nan

$$$$
CHEMBL3687485
     RDKit          3D

  0  0  0  0  0  0  0  0  0  0999 V3000
M  V30 BEGIN CTAB
M  V30 COUNTS 59 62 0 0 0
M  V30 BEGIN ATOM
M  V30 1 C 4.608480 -3.014304 1.390771 0
M  V30 2 O 4.114843 -1.732676 1.248543 0
M  V30 3 C 2.869692 -1.692910 0.624792 0 CFG=1
M  V30 4 C 1.872845 -1.179256 1.588772 0 CFG=2
M  V30 5 N 0.569930 -1.735546 1.190985 0
M  V30 6 C 1.750326 0.297479 1.678328 0
M  V30 7 C 2.209993 1.139116 0.594997 0 CFG=2
M  V30 8 C 1.464097 2.356586 0.255579 0
M  V30 9 C 1.869794 3.679036 0.463166 0
M  V30 10 C 1.122516 4.784092 0.113195 0
M  V30 11 N -0.083854 4.625114 -0.469402 0
M  V30 12 C -0.507229 3.342038 -0.684925 0
M  V30 13 C 0.248102 2.215783 -0.331315 0
M  V30 14 N -0.489895 1.058806 -0.668559 0
M  V30 15 C -0.808181 0.136739 -1.704250 0
M  V30 16 O -0.317821 0.256786 -2.858823 0
M  V30 17 C -1.728895 -0.939968 -1.336653 0
M  V30 18 C -2.034054 -1.829662 -2.340642 0
M  V30 19 C -2.894695 -2.896505 -2.125299 0
M  V30 20 C -3.434198 -3.029601 -0.858590 0
M  V30 21 F -4.276212 -4.057417 -0.613905 0
M  V30 22 C -3.123138 -2.133410 0.142173 0
M  V30 23 C -3.670680 -2.239406 1.489828 0
M  V30 24 C -4.853187 -1.639439 1.902024 0
M  V30 25 F -5.514171 -0.922142 0.981253 0
M  V30 26 C -5.274000 -1.816036 3.224250 0
M  V30 27 C -4.572536 -2.553132 4.128619 0
M  V30 28 C -3.388990 -3.151811 3.710676 0
M  V30 29 C -2.952813 -2.989190 2.401553 0
M  V30 30 F -1.790296 -3.621910 2.124390 0
M  V30 31 N -2.280144 -1.113727 -0.122283 0
M  V30 32 C 2.717554 0.488380 -0.655677 0
M  V30 33 C 2.961851 -0.954308 -0.657992 0 CFG=2
M  V30 34 C 2.084230 -1.689173 -1.684009 0
M  V30 35 H 5.579633 -3.110890 1.871629 0
M  V30 36 H 4.624077 -3.538002 0.414174 0
M  V30 37 H 3.823091 -3.565440 1.985900 0
M  V30 38 H 2.632213 -2.756537 0.417079 0
M  V30 39 H 2.072719 -1.689287 2.554778 0
M  V30 40 H -0.141415 -1.493342 1.920691 0
M  V30 41 H 0.694203 -2.779121 1.225047 0
M  V30 42 H 2.294684 0.545234 2.645637 0
M  V30 43 H 0.707320 0.619168 1.997206 0
M  V30 44 H 3.192772 1.610541 0.988782 0
M  V30 45 H 2.857889 3.788777 0.940360 0
M  V30 46 H 1.555410 5.735732 0.330474 0
M  V30 47 H -1.499569 3.378293 -1.162506 0
M  V30 48 H -0.933295 0.918170 0.294024 0
M  V30 49 H -1.589912 -1.698733 -3.337997 0
M  V30 50 H -3.098387 -3.564799 -2.952429 0
M  V30 51 H -6.210612 -1.329227 3.515770 0
M  V30 52 H -4.901189 -2.687858 5.151838 0
M  V30 53 H -2.842799 -3.737477 4.450482 0
M  V30 54 H 1.970023 0.705507 -1.478244 0
M  V30 55 H 3.635937 1.039213 -1.063452 0
M  V30 56 H 4.003795 -1.147591 -1.059192 0
M  V30 57 H 2.578322 -2.667710 -1.958453 0
M  V30 58 H 2.067450 -1.070945 -2.579856 0
M  V30 59 H 1.127247 -1.967040 -1.243768 0
M  V30 END ATOM
M  V30 BEGIN BOND
M  V30 1 1 1 2
M  V30 2 1 2 3
M  V30 3 1 3 4
M  V30 4 1 4 5
M  V30 5 1 4 6
M  V30 6 1 6 7
M  V30 7 1 7 8
M  V30 8 2 8 9
M  V30 9 1 9 10
M  V30 10 2 10 11
M  V30 11 1 11 12
M  V30 12 2 12 13
M  V30 13 1 13 14
M  V30 14 1 14 15
M  V30 15 2 15 16
M  V30 16 1 15 17
M  V30 17 2 17 18
M  V30 18 1 18 19
M  V30 19 2 19 20
M  V30 20 1 20 21
M  V30 21 1 20 22
M  V30 22 1 22 23
M  V30 23 2 23 24
M  V30 24 1 24 25
M  V30 25 1 24 26
M  V30 26 2 26 27
M  V30 27 1 27 28
M  V30 28 2 28 29
M  V30 29 1 29 30
M  V30 30 2 22 31
M  V30 31 1 7 32
M  V30 32 1 32 33
M  V30 33 1 33 34
M  V30 34 1 33 3
M  V30 35 1 13 8
M  V30 36 1 31 17
M  V30 37 1 29 23
M  V30 38 1 1 35
M  V30 39 1 1 36
M  V30 40 1 1 37
M  V30 41 1 3 38 CFG=3
M  V30 42 1 4 39 CFG=1
M  V30 43 1 5 40
M  V30 44 1 5 41
M  V30 45 1 6 42
M  V30 46 1 6 43
M  V30 47 1 7 44 CFG=1
M  V30 48 1 9 45
M  V30 49 1 10 46
M  V30 50 1 12 47
M  V30 51 1 14 48
M  V30 52 1 18 49
M  V30 53 1 19 50
M  V30 54 1 26 51
M  V30 55 1 27 52
M  V30 56 1 28 53
M  V30 57 1 32 54
M  V30 58 1 32 55
M  V30 59 1 33 56 CFG=3
M  V30 60 1 34 57
M  V30 61 1 34 58
M  V30 62 1 34 59
M  V30 END BOND
M  V30 END CTAB
M  END
>  <Dataset>  (292) 
ChEMBL_Kinases

>  <Ligand_Instance>  (292) 
nan

>  <PDB_ID>  (292) 
nan

>  <Standardized_SMILES>  (292) 
CO[C@H]1[C@H](N)C[C@H](c2ccncc2NC(=O)c2ccc(F)c(-c3c(F)cccc3F)n2)C[C@@H]1C

>  <Name>  (292) 
nan

>  <Pocket>  (292) 
nan

>  <ATP_Site>  (292) 
nan

>  <Peripheral>  (292) 
nan

>  <Num_H_Atoms_ProtBoundConf>  (292) 
nan

>  <Num_Resolved_Atoms>  (292) 
nan

>  <Num_Not_Resolved_Atoms>  (292) 
nan

$$$$
CHEMBL3687484
     RDKit          3D

  0  0  0  0  0  0  0  0  0  0999 V3000
M  V30 BEGIN CTAB
M  V30 COUNTS 71 74 0 0 0
M  V30 BEGIN ATOM
M  V30 1 C 6.585905 -1.446093 3.847466 0
M  V30 2 C 5.909881 -0.931409 2.634077 0
M  V30 3 C 5.084871 -1.700779 1.876446 0
M  V30 4 C 4.442881 -1.241183 0.739512 0
M  V30 5 F 3.610516 -2.004230 -0.031934 0
M  V30 6 C 4.634780 0.081222 0.324309 0
M  V30 7 C 4.015871 0.687424 -0.854778 0
M  V30 8 N 2.833582 1.245143 -0.538155 0
M  V30 9 C 2.051686 1.873482 -1.439706 0
M  V30 10 C 0.754896 2.481987 -1.078117 0
M  V30 11 O 0.027503 3.062955 -1.911457 0
M  V30 12 N 0.363088 2.375471 0.286819 0
M  V30 13 C -0.817950 2.859895 0.916334 0
M  V30 14 C -0.785843 4.140804 1.429878 0
M  V30 15 N -1.860082 4.657630 2.032227 0
M  V30 16 C -2.973124 3.908505 2.129634 0
M  V30 17 C -2.995144 2.631353 1.614065 0
M  V30 18 C -1.910403 2.020091 0.969260 0
M  V30 19 C -2.000002 0.664184 0.451329 0 CFG=1
M  V30 20 C -2.437990 0.554075 -0.992976 0
M  V30 21 C -2.953247 -0.856254 -1.171097 0 CFG=1
M  V30 22 C -2.592920 -1.435992 -2.530901 0
M  V30 23 C -2.678000 -1.772128 -0.031940 0 CFG=1
M  V30 24 O -2.763671 -3.103135 -0.505960 0
M  V30 25 C -3.791391 -3.712773 0.219374 0
M  V30 26 C -3.980578 -5.161243 -0.204960 0
M  V30 27 S -5.317534 -5.802578 0.804377 0
M  V30 28 C -6.816548 -4.884756 0.549885 0
M  V30 29 O -5.602130 -7.232289 0.385286 0
M  V30 30 O -4.972249 -5.716649 2.248944 0
M  V30 31 C -1.315817 -1.659961 0.580203 0 CFG=1
M  V30 32 N -0.404553 -2.506485 -0.133974 0
M  V30 33 C -0.812425 -0.213504 0.635696 0
M  V30 34 C 2.480827 1.945989 -2.731485 0
M  V30 35 C 3.692214 1.385267 -3.101743 0
M  V30 36 C 4.473056 0.747263 -2.156459 0
M  V30 37 F 5.673165 0.145758 -2.328495 0
M  V30 38 C 5.483850 0.876203 1.102322 0
M  V30 39 F 5.710332 2.180775 0.744939 0
M  V30 40 C 6.121741 0.389798 2.247403 0
M  V30 41 H 7.577557 -1.905789 3.632926 0
M  V30 42 H 6.762872 -0.661287 4.611716 0
M  V30 43 H 5.994312 -2.241633 4.373636 0
M  V30 44 H 4.905568 -2.747006 2.166762 0
M  V30 45 H 0.984148 1.887109 0.970030 0
M  V30 46 H 0.087492 4.769536 1.370420 0
M  V30 47 H -3.848006 4.321039 2.616618 0
M  V30 48 H -3.935271 2.074894 1.727689 0
M  V30 49 H -2.835256 0.159119 1.028874 0
M  V30 50 H -3.172326 1.336318 -1.238060 0
M  V30 51 H -1.566788 0.663979 -1.673702 0
M  V30 52 H -4.076057 -0.737661 -1.215956 0
M  V30 53 H -2.884079 -0.673298 -3.283055 0
M  V30 54 H -1.549811 -1.771426 -2.607510 0
M  V30 55 H -3.331709 -2.274523 -2.690432 0
M  V30 56 H -3.492674 -1.751105 0.750427 0
M  V30 57 H -4.778863 -3.216377 0.080918 0
M  V30 58 H -3.602837 -3.715233 1.316806 0
M  V30 59 H -3.104436 -5.786860 0.004186 0
M  V30 60 H -4.288823 -5.179039 -1.262357 0
M  V30 61 H -7.664953 -5.547073 0.860925 0
M  V30 62 H -6.827932 -3.999447 1.198501 0
M  V30 63 H -6.977408 -4.667517 -0.519746 0
M  V30 64 H -1.359945 -2.040021 1.619112 0
M  V30 65 H -0.407853 -3.486731 0.176873 0
M  V30 66 H 0.530638 -2.102573 -0.308780 0
M  V30 67 H -0.262094 -0.072975 1.566984 0
M  V30 68 H -0.177985 -0.133508 -0.292350 0
M  V30 69 H 1.893195 2.437274 -3.490843 0
M  V30 70 H 4.107091 1.392976 -4.083895 0
M  V30 71 H 6.770464 1.005572 2.837235 0
M  V30 END ATOM
M  V30 BEGIN BOND
M  V30 1 1 1 2
M  V30 2 2 2 3
M  V30 3 1 3 4
M  V30 4 1 4 5
M  V30 5 2 4 6
M  V30 6 1 6 7
M  V30 7 2 7 8
M  V30 8 1 8 9
M  V30 9 1 9 10
M  V30 10 2 10 11
M  V30 11 1 10 12
M  V30 12 1 12 13
M  V30 13 2 13 14
M  V30 14 1 14 15
M  V30 15 2 15 16
M  V30 16 1 16 17
M  V30 17 2 17 18
M  V30 18 1 18 19
M  V30 19 1 19 20
M  V30 20 1 20 21
M  V30 21 1 21 22
M  V30 22 1 21 23
M  V30 23 1 23 24
M  V30 24 1 24 25
M  V30 25 1 25 26
M  V30 26 1 26 27
M  V30 27 1 27 28
M  V30 28 2 27 29
M  V30 29 2 27 30
M  V30 30 1 23 31
M  V30 31 1 31 32
M  V30 32 1 31 33
M  V30 33 2 9 34
M  V30 34 1 34 35
M  V30 35 2 35 36
M  V30 36 1 36 37
M  V30 37 1 6 38
M  V30 38 1 38 39
M  V30 39 2 38 40
M  V30 40 1 40 2
M  V30 41 1 36 7
M  V30 42 1 18 13
M  V30 43 1 33 19
M  V30 44 1 1 41
M  V30 45 1 1 42
M  V30 46 1 1 43
M  V30 47 1 3 44
M  V30 48 1 12 45
M  V30 49 1 14 46
M  V30 50 1 16 47
M  V30 51 1 17 48
M  V30 52 1 19 49 CFG=1
M  V30 53 1 20 50
M  V30 54 1 20 51
M  V30 55 1 21 52 CFG=3
M  V30 56 1 22 53
M  V30 57 1 22 54
M  V30 58 1 22 55
M  V30 59 1 23 56 CFG=1
M  V30 60 1 25 57
M  V30 61 1 25 58
M  V30 62 1 26 59
M  V30 63 1 26 60
M  V30 64 1 28 61
M  V30 65 1 28 62
M  V30 66 1 28 63
M  V30 67 1 31 64 CFG=1
M  V30 68 1 32 65
M  V30 69 1 32 66
M  V30 70 1 33 67
M  V30 71 1 33 68
M  V30 72 1 34 69
M  V30 73 1 35 70
M  V30 74 1 40 71
M  V30 END BOND
M  V30 END CTAB
M  END
>  <Dataset>  (293) 
ChEMBL_Kinases

>  <Ligand_Instance>  (293) 
nan

>  <PDB_ID>  (293) 
nan

>  <Standardized_SMILES>  (293) 
Cc1cc(F)c(-c2nc(C(=O)Nc3cnccc3[C@H]3C[C@@H](C)[C@@H](OCCS(C)(=O)=O)[C@@H](N)C3)ccc2F)c(F)c1

>  <Name>  (293) 
nan

>  <Pocket>  (293) 
nan

>  <ATP_Site>  (293) 
nan

>  <Peripheral>  (293) 
nan

>  <Num_H_Atoms_ProtBoundConf>  (293) 
nan

>  <Num_Resolved_Atoms>  (293) 
nan

>  <Num_Not_Resolved_Atoms>  (293) 
nan

$$$$
CHEMBL3687483
     RDKit          3D

  0  0  0  0  0  0  0  0  0  0999 V3000
M  V30 BEGIN CTAB
M  V30 COUNTS 71 74 0 0 0
M  V30 BEGIN ATOM
M  V30 1 C 4.497983 -0.097320 5.810120 0
M  V30 2 C 4.276894 0.292280 4.391956 0
M  V30 3 C 4.488055 1.561166 3.912704 0
M  V30 4 C 4.270578 1.888530 2.580687 0
M  V30 5 F 4.474572 3.136104 2.093105 0
M  V30 6 C 3.823934 0.897329 1.703369 0
M  V30 7 C 3.565383 1.145125 0.278705 0
M  V30 8 N 2.304416 1.521023 0.083098 0
M  V30 9 C 1.785812 1.816518 -1.140497 0
M  V30 10 C 0.381494 2.230989 -1.324693 0
M  V30 11 O -0.065304 2.497695 -2.477957 0
M  V30 12 N -0.418675 2.306313 -0.123941 0
M  V30 13 C -1.756008 2.709992 -0.372070 0
M  V30 14 C -1.939650 4.077530 -0.346904 0
M  V30 15 N -3.186019 4.575682 -0.573506 0
M  V30 16 C -4.185822 3.715129 -0.812318 0
M  V30 17 C -3.964669 2.353036 -0.829636 0
M  V30 18 C -2.707739 1.771263 -0.604550 0
M  V30 19 C -2.529368 0.335154 -0.626789 0 CFG=1
M  V30 20 C -2.142138 -0.234765 -1.994094 0
M  V30 21 C -2.641445 -1.624545 -1.999620 0 CFG=1
M  V30 22 N -2.140293 -2.260177 -3.224885 0
M  V30 23 C -2.251549 -2.485244 -0.797847 0 CFG=1
M  V30 24 O -1.343004 -3.426366 -1.202679 0
M  V30 25 C -1.611769 -4.707184 -1.404044 0
M  V30 26 C -1.990558 -5.754234 -0.473905 0
M  V30 27 S -3.426153 -5.731809 0.499419 0
M  V30 28 C -3.550850 -4.489861 1.737114 0
M  V30 29 O -3.596688 -7.073606 1.241642 0
M  V30 30 O -4.688000 -5.710366 -0.388967 0
M  V30 31 C -1.873883 -1.753117 0.424096 0 CFG=1
M  V30 32 C -0.569356 -2.413443 0.942499 0
M  V30 33 C -1.573574 -0.281748 0.314903 0
M  V30 34 C 2.639631 1.710664 -2.214232 0
M  V30 35 C 3.960331 1.321577 -2.046932 0
M  V30 36 C 4.433078 1.033900 -0.783018 0
M  V30 37 F 5.686176 0.641492 -0.435609 0
M  V30 38 C 3.607536 -0.381766 2.170769 0
M  V30 39 F 3.173763 -1.388367 1.368188 0
M  V30 40 C 3.830262 -0.695552 3.510943 0
M  V30 41 H 4.875590 -1.140624 5.821231 0
M  V30 42 H 3.500190 -0.139187 6.310048 0
M  V30 43 H 5.175128 0.603063 6.339243 0
M  V30 44 H 4.832695 2.333173 4.581641 0
M  V30 45 H 0.000720 2.074551 0.807261 0
M  V30 46 H -1.148802 4.790147 -0.156590 0
M  V30 47 H -5.174817 4.117249 -0.991987 0
M  V30 48 H -4.850774 1.735085 -1.034756 0
M  V30 49 H -3.541506 -0.116714 -0.393644 0
M  V30 50 H -1.017931 -0.198987 -2.043764 0
M  V30 51 H -2.618021 0.314058 -2.809511 0
M  V30 52 H -3.742476 -1.584415 -2.101131 0
M  V30 53 H -1.652605 -1.605190 -3.852934 0
M  V30 54 H -2.909818 -2.699252 -3.772869 0
M  V30 55 H -3.189291 -3.051442 -0.613107 0
M  V30 56 H -2.451335 -4.794393 -2.247434 0
M  V30 57 H -0.749285 -5.130012 -2.104148 0
M  V30 58 H -1.087909 -6.103282 0.161644 0
M  V30 59 H -2.095391 -6.713699 -1.124825 0
M  V30 60 H -4.171553 -3.645625 1.382318 0
M  V30 61 H -2.544492 -4.108553 1.995300 0
M  V30 62 H -4.014748 -4.898235 2.686062 0
M  V30 63 H -2.597254 -1.849626 1.255584 0
M  V30 64 H -0.479791 -2.247143 2.036008 0
M  V30 65 H -0.567848 -3.495014 0.767167 0
M  V30 66 H 0.313328 -1.966251 0.454808 0
M  V30 67 H -1.611545 0.138780 1.340692 0
M  V30 68 H -0.546035 -0.215249 -0.115252 0
M  V30 69 H 2.309292 1.927759 -3.227304 0
M  V30 70 H 4.684281 1.217006 -2.837153 0
M  V30 71 H 3.661893 -1.706426 3.892378 0
M  V30 END ATOM
M  V30 BEGIN BOND
M  V30 1 1 1 2
M  V30 2 2 2 3
M  V30 3 1 3 4
M  V30 4 1 4 5
M  V30 5 2 4 6
M  V30 6 1 6 7
M  V30 7 2 7 8
M  V30 8 1 8 9
M  V30 9 1 9 10
M  V30 10 2 10 11
M  V30 11 1 10 12
M  V30 12 1 12 13
M  V30 13 2 13 14
M  V30 14 1 14 15
M  V30 15 2 15 16
M  V30 16 1 16 17
M  V30 17 2 17 18
M  V30 18 1 18 19
M  V30 19 1 19 20
M  V30 20 1 20 21
M  V30 21 1 21 22
M  V30 22 1 21 23
M  V30 23 1 23 24
M  V30 24 1 24 25
M  V30 25 1 25 26
M  V30 26 1 26 27
M  V30 27 1 27 28
M  V30 28 2 27 29
M  V30 29 2 27 30
M  V30 30 1 23 31
M  V30 31 1 31 32
M  V30 32 1 31 33
M  V30 33 2 9 34
M  V30 34 1 34 35
M  V30 35 2 35 36
M  V30 36 1 36 37
M  V30 37 1 6 38
M  V30 38 1 38 39
M  V30 39 2 38 40
M  V30 40 1 40 2
M  V30 41 1 36 7
M  V30 42 1 18 13
M  V30 43 1 33 19
M  V30 44 1 1 41
M  V30 45 1 1 42
M  V30 46 1 1 43
M  V30 47 1 3 44
M  V30 48 1 12 45
M  V30 49 1 14 46
M  V30 50 1 16 47
M  V30 51 1 17 48
M  V30 52 1 19 49 CFG=1
M  V30 53 1 20 50
M  V30 54 1 20 51
M  V30 55 1 21 52 CFG=3
M  V30 56 1 22 53
M  V30 57 1 22 54
M  V30 58 1 23 55 CFG=1
M  V30 59 1 25 56
M  V30 60 1 25 57
M  V30 61 1 26 58
M  V30 62 1 26 59
M  V30 63 1 28 60
M  V30 64 1 28 61
M  V30 65 1 28 62
M  V30 66 1 31 63 CFG=1
M  V30 67 1 32 64
M  V30 68 1 32 65
M  V30 69 1 32 66
M  V30 70 1 33 67
M  V30 71 1 33 68
M  V30 72 1 34 69
M  V30 73 1 35 70
M  V30 74 1 40 71
M  V30 END BOND
M  V30 END CTAB
M  END
>  <Dataset>  (294) 
ChEMBL_Kinases

>  <Ligand_Instance>  (294) 
nan

>  <PDB_ID>  (294) 
nan

>  <Standardized_SMILES>  (294) 
Cc1cc(F)c(-c2nc(C(=O)Nc3cnccc3[C@H]3C[C@@H](N)[C@@H](OCCS(C)(=O)=O)[C@@H](C)C3)ccc2F)c(F)c1

>  <Name>  (294) 
nan

>  <Pocket>  (294) 
nan

>  <ATP_Site>  (294) 
nan

>  <Peripheral>  (294) 
nan

>  <Num_H_Atoms_ProtBoundConf>  (294) 
nan

>  <Num_Resolved_Atoms>  (294) 
nan

>  <Num_Not_Resolved_Atoms>  (294) 
nan

$$$$
CHEMBL3687482
     RDKit          3D

  0  0  0  0  0  0  0  0  0  0999 V3000
M  V30 BEGIN CTAB
M  V30 COUNTS 61 64 0 0 0
M  V30 BEGIN ATOM
M  V30 1 C 4.710028 -2.855579 2.161231 0
M  V30 2 O 3.825880 -1.846676 1.703856 0
M  V30 3 C 3.754501 -1.473543 0.362862 0
M  V30 4 O 4.377607 -1.888106 -0.640503 0
M  V30 5 N 2.787632 -0.440386 0.177355 0
M  V30 6 C 2.480549 0.160789 -1.102955 0 CFG=2
M  V30 7 C 2.771917 1.622774 -1.163025 0 CFG=2
M  V30 8 N 3.807089 1.964111 -0.173129 0
M  V30 9 C 1.547779 2.510039 -0.911326 0
M  V30 10 N 0.527038 1.820903 -0.140938 0
M  V30 11 C 0.180431 2.185122 1.152225 0
M  V30 12 C 0.774684 3.299892 1.700159 0
M  V30 13 C 0.462348 3.728830 2.972610 0
M  V30 14 N -0.443302 3.096028 3.777303 0
M  V30 15 C -1.046079 1.992094 3.264084 0
M  V30 16 C -0.705460 1.595414 1.986458 0
M  V30 17 N -1.413315 0.428188 1.597174 0
M  V30 18 C -0.794363 -0.824495 1.980283 0
M  V30 19 O 0.293514 -0.812378 2.613793 0
M  V30 20 C -1.409890 -2.126892 1.645351 0
M  V30 21 N -2.559867 -2.261855 0.977220 0
M  V30 22 C -3.069274 -3.286125 0.699068 0
M  V30 23 C -4.346421 -3.663555 -0.038746 0
M  V30 24 C -4.638149 -5.003552 -0.182614 0
M  V30 25 F -3.861414 -5.993734 0.290082 0
M  V30 26 C -5.824484 -5.241227 -0.869941 0
M  V30 27 C -6.643996 -4.229583 -1.367763 0
M  V30 28 C -6.241621 -2.924440 -1.158689 0
M  V30 29 C -5.071431 -2.600388 -0.482568 0
M  V30 30 F -4.682932 -1.317971 -0.281574 0
M  V30 31 S -1.987519 -4.573353 1.353659 0
M  V30 32 C -0.784614 -3.299998 2.031638 0
M  V30 33 N 0.426951 -3.533491 2.742472 0
M  V30 34 C 0.031478 0.779123 -1.014163 0
M  V30 35 C 1.106450 -0.084419 -1.612286 0 CFG=2
M  V30 36 C 0.701053 -1.558354 -1.519792 0
M  V30 37 H 5.268739 -3.349858 1.356819 0
M  V30 38 H 4.104389 -3.651312 2.656294 0
M  V30 39 H 5.403723 -2.472614 2.942172 0
M  V30 40 H 2.139421 0.086132 0.802457 0
M  V30 41 H 3.173229 -0.371433 -1.824530 0
M  V30 42 H 3.245552 1.851896 -2.142208 0
M  V30 43 H 4.647812 1.396002 -0.420953 0
M  V30 44 H 4.071802 2.957964 -0.416847 0
M  V30 45 H 1.183404 2.736475 -1.965810 0
M  V30 46 H 1.831913 3.495736 -0.555802 0
M  V30 47 H 1.495828 3.955267 1.296873 0
M  V30 48 H 0.879544 4.597722 3.488752 0
M  V30 49 H -1.765438 1.487705 3.900018 0
M  V30 50 H -2.336385 0.409469 1.069117 0
M  V30 51 H -6.121007 -6.275924 -1.022565 0
M  V30 52 H -7.556917 -4.456752 -1.895568 0
M  V30 53 H -6.865656 -2.100421 -1.538644 0
M  V30 54 H 0.216809 -3.479301 3.775332 0
M  V30 55 H 1.366277 -3.726522 2.291467 0
M  V30 56 H -0.757749 0.149900 -0.663814 0
M  V30 57 H -0.436962 1.360751 -1.879516 0
M  V30 58 H 1.170250 0.073160 -2.730626 0
M  V30 59 H -0.313201 -1.589354 -1.994201 0
M  V30 60 H 1.334226 -2.197932 -2.141124 0
M  V30 61 H 0.549782 -1.890582 -0.480530 0
M  V30 END ATOM
M  V30 BEGIN BOND
M  V30 1 1 1 2
M  V30 2 1 2 3
M  V30 3 2 3 4
M  V30 4 1 3 5
M  V30 5 1 5 6
M  V30 6 1 6 7
M  V30 7 1 7 8
M  V30 8 1 7 9
M  V30 9 1 9 10
M  V30 10 1 10 11
M  V30 11 2 11 12
M  V30 12 1 12 13
M  V30 13 2 13 14
M  V30 14 1 14 15
M  V30 15 2 15 16
M  V30 16 1 16 17
M  V30 17 1 17 18
M  V30 18 2 18 19
M  V30 19 1 18 20
M  V30 20 1 20 21
M  V30 21 2 21 22
M  V30 22 1 22 23
M  V30 23 2 23 24
M  V30 24 1 24 25
M  V30 25 1 24 26
M  V30 26 2 26 27
M  V30 27 1 27 28
M  V30 28 2 28 29
M  V30 29 1 29 30
M  V30 30 1 22 31
M  V30 31 1 31 32
M  V30 32 1 32 33
M  V30 33 1 10 34
M  V30 34 1 34 35
M  V30 35 1 35 36
M  V30 36 1 35 6
M  V30 37 1 16 11
M  V30 38 2 32 20
M  V30 39 1 29 23
M  V30 40 1 1 37
M  V30 41 1 1 38
M  V30 42 1 1 39
M  V30 43 1 5 40
M  V30 44 1 6 41 CFG=3
M  V30 45 1 7 42 CFG=3
M  V30 46 1 8 43
M  V30 47 1 8 44
M  V30 48 1 9 45
M  V30 49 1 9 46
M  V30 50 1 12 47
M  V30 51 1 13 48
M  V30 52 1 15 49
M  V30 53 1 17 50
M  V30 54 1 26 51
M  V30 55 1 27 52
M  V30 56 1 28 53
M  V30 57 1 33 54
M  V30 58 1 33 55
M  V30 59 1 34 56
M  V30 60 1 34 57
M  V30 61 1 35 58 CFG=3
M  V30 62 1 36 59
M  V30 63 1 36 60
M  V30 64 1 36 61
M  V30 END BOND
M  V30 END CTAB
M  END
>  <Dataset>  (295) 
ChEMBL_Kinases

>  <Ligand_Instance>  (295) 
nan

>  <PDB_ID>  (295) 
nan

>  <Standardized_SMILES>  (295) 
COC(=O)N[C@@H]1[C@H](N)CN(c2ccncc2NC(=O)c2nc(-c3c(F)cccc3F)sc2N)C[C@@H]1C

>  <Name>  (295) 
nan

>  <Pocket>  (295) 
nan

>  <ATP_Site>  (295) 
nan

>  <Peripheral>  (295) 
nan

>  <Num_H_Atoms_ProtBoundConf>  (295) 
nan

>  <Num_Resolved_Atoms>  (295) 
nan

>  <Num_Not_Resolved_Atoms>  (295) 
nan

$$$$
CHEMBL3687477
     RDKit          3D

  0  0  0  0  0  0  0  0  0  0999 V3000
M  V30 BEGIN CTAB
M  V30 COUNTS 56 59 0 0 0
M  V30 BEGIN ATOM
M  V30 1 C 1.745283 1.195856 3.488573 0
M  V30 2 C 1.842977 -0.259465 3.893887 0 CFG=2
M  V30 3 C 2.775183 -1.049644 3.062746 0
M  V30 4 C 2.238323 -1.566118 1.743048 0 CFG=2
M  V30 5 C 2.828297 -0.724224 0.720302 0
M  V30 6 C 4.234737 -0.746774 0.620072 0
M  V30 7 C 4.950106 0.018891 -0.271287 0
M  V30 8 N 4.345971 0.846233 -1.112586 0
M  V30 9 C 2.993321 0.902161 -1.054148 0
M  V30 10 C 2.264782 0.127633 -0.152559 0
M  V30 11 N 0.873445 0.320019 -0.276110 0
M  V30 12 C -0.254864 1.074769 0.158657 0
M  V30 13 O -0.110282 1.993854 1.004899 0
M  V30 14 C -1.547721 0.719750 -0.426273 0
M  V30 15 C -2.616654 1.466208 0.013645 0
M  V30 16 C -3.859627 1.192261 -0.488855 0
M  V30 17 C -4.048833 0.184312 -1.423375 0
M  V30 18 F -5.249808 -0.126701 -1.950031 0
M  V30 19 C -2.940386 -0.553565 -1.847432 0
M  V30 20 C -3.036550 -1.632666 -2.825721 0
M  V30 21 C -3.269446 -2.855276 -2.205225 0
M  V30 22 F -3.396582 -3.050599 -0.850767 0
M  V30 23 C -3.399005 -4.030815 -2.925882 0
M  V30 24 C -3.289232 -3.956350 -4.297899 0
M  V30 25 C -3.057328 -2.744028 -4.926672 0
M  V30 26 C -2.930149 -1.580400 -4.198426 0
M  V30 27 F -2.704284 -0.337107 -4.676316 0
M  V30 28 N -1.734240 -0.252685 -1.328696 0
M  V30 29 C 0.862867 -1.945441 1.797012 0
M  V30 30 C -0.033253 -1.652842 2.940979 0 CFG=2
M  V30 31 N -1.279218 -0.984604 2.507376 0
M  V30 32 C 0.502463 -0.869756 4.084718 0 CFG=2
M  V30 33 C -0.424652 0.178789 4.517751 0
M  V30 34 N -1.185960 1.008998 4.869277 0
M  V30 35 H 2.137019 1.362664 2.460992 0
M  V30 36 H 0.710456 1.603576 3.595958 0
M  V30 37 H 2.359251 1.876884 4.124078 0
M  V30 38 H 2.371133 -0.195148 4.904046 0
M  V30 39 H 3.692565 -0.398881 2.911840 0
M  V30 40 H 3.174793 -1.884286 3.699221 0
M  V30 41 H 2.847538 -2.532099 1.627273 0
M  V30 42 H 4.825810 -1.403834 1.278247 0
M  V30 43 H 6.033403 -0.048875 -0.293852 0
M  V30 44 H 2.542696 1.589358 -1.757485 0
M  V30 45 H 0.690755 -0.429705 -1.020372 0
M  V30 46 H -2.463048 2.264882 0.754923 0
M  V30 47 H -4.707613 1.760061 -0.161508 0
M  V30 48 H -3.579682 -5.000034 -2.489197 0
M  V30 49 H -3.384502 -4.856243 -4.904417 0
M  V30 50 H -2.963759 -2.637038 -6.002677 0
M  V30 51 H 0.780710 -3.083175 1.678150 0
M  V30 52 H 0.260075 -1.686083 0.871532 0
M  V30 53 H -0.496820 -2.573907 3.381778 0
M  V30 54 H -1.603978 -1.347019 1.606819 0
M  V30 55 H -1.277971 0.021405 2.659059 0
M  V30 56 H 0.584991 -1.519042 5.013756 0
M  V30 END ATOM
M  V30 BEGIN BOND
M  V30 1 1 1 2
M  V30 2 1 2 3
M  V30 3 1 3 4
M  V30 4 1 4 5
M  V30 5 2 5 6
M  V30 6 1 6 7
M  V30 7 2 7 8
M  V30 8 1 8 9
M  V30 9 2 9 10
M  V30 10 1 10 11
M  V30 11 1 11 12
M  V30 12 2 12 13
M  V30 13 1 12 14
M  V30 14 2 14 15
M  V30 15 1 15 16
M  V30 16 2 16 17
M  V30 17 1 17 18
M  V30 18 1 17 19
M  V30 19 1 19 20
M  V30 20 2 20 21
M  V30 21 1 21 22
M  V30 22 1 21 23
M  V30 23 2 23 24
M  V30 24 1 24 25
M  V30 25 2 25 26
M  V30 26 1 26 27
M  V30 27 2 19 28
M  V30 28 1 4 29
M  V30 29 1 29 30
M  V30 30 1 30 31
M  V30 31 1 30 32
M  V30 32 1 32 33
M  V30 33 3 33 34
M  V30 34 1 32 2
M  V30 35 1 10 5
M  V30 36 1 28 14
M  V30 37 1 26 20
M  V30 38 1 1 35
M  V30 39 1 1 36
M  V30 40 1 1 37
M  V30 41 1 2 38 CFG=1
M  V30 42 1 3 39
M  V30 43 1 3 40
M  V30 44 1 4 41 CFG=3
M  V30 45 1 6 42
M  V30 46 1 7 43
M  V30 47 1 9 44
M  V30 48 1 11 45
M  V30 49 1 15 46
M  V30 50 1 16 47
M  V30 51 1 23 48
M  V30 52 1 24 49
M  V30 53 1 25 50
M  V30 54 1 29 51
M  V30 55 1 29 52
M  V30 56 1 30 53 CFG=1
M  V30 57 1 31 54
M  V30 58 1 31 55
M  V30 59 1 32 56 CFG=1
M  V30 END BOND
M  V30 END CTAB
M  END
>  <Dataset>  (296) 
ChEMBL_Kinases

>  <Ligand_Instance>  (296) 
nan

>  <PDB_ID>  (296) 
nan

>  <Standardized_SMILES>  (296) 
C[C@@H]1C[C@H](c2ccncc2NC(=O)c2ccc(F)c(-c3c(F)cccc3F)n2)C[C@H](N)[C@@H]1C#N

>  <Name>  (296) 
nan

>  <Pocket>  (296) 
nan

>  <ATP_Site>  (296) 
nan

>  <Peripheral>  (296) 
nan

>  <Num_H_Atoms_ProtBoundConf>  (296) 
nan

>  <Num_Resolved_Atoms>  (296) 
nan

>  <Num_Not_Resolved_Atoms>  (296) 
nan

$$$$
CHEMBL4436040
     RDKit          3D

  0  0  0  0  0  0  0  0  0  0999 V3000
M  V30 BEGIN CTAB
M  V30 COUNTS 56 58 0 0 0
M  V30 BEGIN ATOM
M  V30 1 C 1.914750 -1.427473 5.846292 0
M  V30 2 N 2.904669 -0.342436 5.717662 0
M  V30 3 C 2.268060 0.816492 6.320964 0
M  V30 4 C 3.106156 -0.155111 4.294772 0
M  V30 5 C 4.108254 0.919613 3.962550 0
M  V30 6 C 4.262761 1.057833 2.459701 0
M  V30 7 O 3.070188 1.400485 1.824687 0
M  V30 8 C 2.867114 1.597252 0.482644 0
M  V30 9 C 3.838714 1.483698 -0.490485 0
M  V30 10 C 3.547627 1.701559 -1.841959 0
M  V30 11 C 2.237564 2.032234 -2.116450 0
M  V30 12 C 1.217446 2.162011 -1.188174 0
M  V30 13 C -0.117084 2.528447 -1.696066 0
M  V30 14 N -0.881919 1.356734 -2.034074 0
M  V30 15 C -1.537171 0.468148 -1.140176 0
M  V30 16 O -1.471204 0.686980 0.094905 0
M  V30 17 C -2.296860 -0.703001 -1.553220 0
M  V30 18 C -2.896093 -1.475730 -0.582266 0
M  V30 19 C -3.639719 -2.609188 -0.892381 0
M  V30 20 C -3.810529 -3.011835 -2.199079 0
M  V30 21 C -4.600325 -4.207750 -2.468301 0
M  V30 22 C -4.547356 -5.201902 -1.488378 0
M  V30 23 C -5.251355 -6.382032 -1.626676 0
M  V30 24 N -5.998272 -6.569569 -2.726481 0
M  V30 25 C -6.083573 -5.629264 -3.712982 0
M  V30 26 C -5.371823 -4.447823 -3.562622 0
M  V30 27 C -3.203351 -2.225751 -3.155850 0
M  V30 28 C -2.471791 -1.111504 -2.857528 0
M  V30 29 C 1.581656 1.932014 0.122143 0
M  V30 30 H 1.332213 -1.357170 6.775001 0
M  V30 31 H 1.209360 -1.314334 4.989648 0
M  V30 32 H 2.426637 -2.413491 5.813648 0
M  V30 33 H 2.090461 0.591884 7.392537 0
M  V30 34 H 2.796804 1.757461 6.160402 0
M  V30 35 H 1.229963 0.850679 5.876567 0
M  V30 36 H 2.123841 0.170968 3.867605 0
M  V30 37 H 3.381881 -1.089678 3.783470 0
M  V30 38 H 3.894177 1.875716 4.451222 0
M  V30 39 H 5.103710 0.596954 4.356938 0
M  V30 40 H 5.065062 1.756506 2.187459 0
M  V30 41 H 4.555773 0.043648 2.095443 0
M  V30 42 H 4.838895 1.220520 -0.184529 0
M  V30 43 H 4.297601 1.616438 -2.614624 0
M  V30 44 H 2.042004 2.196414 -3.186832 0
M  V30 45 H -0.667490 3.069806 -0.870779 0
M  V30 46 H -0.052368 3.189142 -2.579402 0
M  V30 47 H -0.983387 1.105185 -3.056167 0
M  V30 48 H -2.820523 -1.240322 0.490192 0
M  V30 49 H -4.095586 -3.189879 -0.089517 0
M  V30 50 H -3.979632 -5.177537 -0.546612 0
M  V30 51 H -5.246767 -7.185857 -0.899217 0
M  V30 52 H -6.693185 -5.810150 -4.585564 0
M  V30 53 H -5.404611 -3.669514 -4.314824 0
M  V30 54 H -3.338450 -2.543843 -4.186522 0
M  V30 55 H -2.017530 -0.532797 -3.648226 0
M  V30 56 H 0.788118 2.034253 0.852357 0
M  V30 END ATOM
M  V30 BEGIN BOND
M  V30 1 1 1 2
M  V30 2 1 2 3
M  V30 3 1 2 4
M  V30 4 1 4 5
M  V30 5 1 5 6
M  V30 6 1 6 7
M  V30 7 1 7 8
M  V30 8 2 8 9
M  V30 9 1 9 10
M  V30 10 2 10 11
M  V30 11 1 11 12
M  V30 12 1 12 13
M  V30 13 1 13 14
M  V30 14 1 14 15
M  V30 15 2 15 16
M  V30 16 1 15 17
M  V30 17 2 17 18
M  V30 18 1 18 19
M  V30 19 2 19 20
M  V30 20 1 20 21
M  V30 21 2 21 22
M  V30 22 1 22 23
M  V30 23 2 23 24
M  V30 24 1 24 25
M  V30 25 2 25 26
M  V30 26 1 20 27
M  V30 27 2 27 28
M  V30 28 2 12 29
M  V30 29 1 29 8
M  V30 30 1 28 17
M  V30 31 1 26 21
M  V30 32 1 1 30
M  V30 33 1 1 31
M  V30 34 1 1 32
M  V30 35 1 3 33
M  V30 36 1 3 34
M  V30 37 1 3 35
M  V30 38 1 4 36
M  V30 39 1 4 37
M  V30 40 1 5 38
M  V30 41 1 5 39
M  V30 42 1 6 40
M  V30 43 1 6 41
M  V30 44 1 9 42
M  V30 45 1 10 43
M  V30 46 1 11 44
M  V30 47 1 13 45
M  V30 48 1 13 46
M  V30 49 1 14 47
M  V30 50 1 18 48
M  V30 51 1 19 49
M  V30 52 1 22 50
M  V30 53 1 23 51
M  V30 54 1 25 52
M  V30 55 1 26 53
M  V30 56 1 27 54
M  V30 57 1 28 55
M  V30 58 1 29 56
M  V30 END BOND
M  V30 END CTAB
M  END
>  <Dataset>  (297) 
ChEMBL_Kinases

>  <Ligand_Instance>  (297) 
nan

>  <PDB_ID>  (297) 
nan

>  <Standardized_SMILES>  (297) 
CN(C)CCCOc1cccc(CNC(=O)c2ccc(-c3ccncc3)cc2)c1

>  <Name>  (297) 
nan

>  <Pocket>  (297) 
nan

>  <ATP_Site>  (297) 
nan

>  <Peripheral>  (297) 
nan

>  <Num_H_Atoms_ProtBoundConf>  (297) 
nan

>  <Num_Resolved_Atoms>  (297) 
nan

>  <Num_Not_Resolved_Atoms>  (297) 
nan

$$$$
CHEMBL4435922
     RDKit          3D

  0  0  0  0  0  0  0  0  0  0999 V3000
M  V30 BEGIN CTAB
M  V30 COUNTS 46 49 0 0 0
M  V30 BEGIN ATOM
M  V30 1 C 3.515582 -5.715828 3.405632 0
M  V30 2 S 4.372199 -4.855364 2.055874 0
M  V30 3 C 3.500005 -3.292632 1.809865 0
M  V30 4 N 3.863331 -2.374211 0.869607 0
M  V30 5 C 2.980187 -1.349270 0.990805 0
M  V30 6 C 2.927451 -0.122552 0.223549 0
M  V30 7 C 2.740222 0.071494 -1.150235 0
M  V30 8 C 2.729546 1.341899 -1.636130 0
M  V30 9 C 2.891963 2.449023 -0.857126 0
M  V30 10 F 2.872953 3.694859 -1.393603 0
M  V30 11 C 3.079002 2.291073 0.503691 0
M  V30 12 C 3.093601 0.996323 1.024920 0
M  V30 13 C 2.082580 -1.667444 2.017546 0
M  V30 14 C 0.968916 -0.842295 2.480853 0
M  V30 15 C 0.961175 -0.401020 3.789561 0
M  V30 16 C -0.131982 0.370233 4.128280 0
M  V30 17 N -1.128455 0.689405 3.286389 0
M  V30 18 C -1.144583 0.278277 2.024969 0
M  V30 19 N -2.228496 0.652686 1.190508 0
M  V30 20 C -2.487220 0.354165 -0.170626 0
M  V30 21 O -1.660639 -0.353125 -0.797572 0
M  V30 22 C -3.651039 0.802611 -0.927560 0 CFG=1
M  V30 23 C -3.594271 0.287789 -2.366395 0
M  V30 24 C -5.105968 0.184684 -2.292698 0 CFG=2
M  V30 25 Cl -5.839173 1.733440 -2.750595 0
M  V30 26 C -4.913967 0.002578 -0.781616 0
M  V30 27 C -0.067633 -0.493993 1.653957 0
M  V30 28 N 2.428212 -2.874486 2.505589 0
M  V30 29 H 3.435659 -4.987525 4.250032 0
M  V30 30 H 2.450622 -5.941426 3.132342 0
M  V30 31 H 4.065947 -6.618988 3.698682 0
M  V30 32 H 2.622380 -0.870268 -1.670716 0
M  V30 33 H 2.579459 1.395103 -2.704477 0
M  V30 34 H 3.204110 3.182201 1.091281 0
M  V30 35 H 3.246829 1.000331 2.096511 0
M  V30 36 H 1.742813 -0.635872 4.496468 0
M  V30 37 H -0.239669 0.770601 5.134043 0
M  V30 38 H -2.990159 1.244601 1.589191 0
M  V30 39 H -3.890302 1.884412 -0.912259 0
M  V30 40 H -3.179519 0.988340 -3.090768 0
M  V30 41 H -3.147236 -0.729917 -2.345464 0
M  V30 42 H -5.531804 -0.697136 -2.812195 0
M  V30 43 H -5.736726 0.457207 -0.229907 0
M  V30 44 H -4.752420 -1.086160 -0.613350 0
M  V30 45 H 0.004881 -0.869861 0.658253 0
M  V30 46 H 1.949933 -3.390433 3.282794 0
M  V30 END ATOM
M  V30 BEGIN BOND
M  V30 1 1 1 2
M  V30 2 1 2 3
M  V30 3 2 3 4
M  V30 4 1 4 5
M  V30 5 1 5 6
M  V30 6 2 6 7
M  V30 7 1 7 8
M  V30 8 2 8 9
M  V30 9 1 9 10
M  V30 10 1 9 11
M  V30 11 2 11 12
M  V30 12 2 5 13
M  V30 13 1 13 14
M  V30 14 2 14 15
M  V30 15 1 15 16
M  V30 16 2 16 17
M  V30 17 1 17 18
M  V30 18 1 18 19
M  V30 19 1 19 20
M  V30 20 2 20 21
M  V30 21 1 20 22
M  V30 22 1 22 23
M  V30 23 1 23 24
M  V30 24 1 24 25
M  V30 25 1 24 26
M  V30 26 2 18 27
M  V30 27 1 13 28
M  V30 28 1 28 3
M  V30 29 1 12 6
M  V30 30 1 27 14
M  V30 31 1 26 22
M  V30 32 1 1 29
M  V30 33 1 1 30
M  V30 34 1 1 31
M  V30 35 1 7 32
M  V30 36 1 8 33
M  V30 37 1 11 34
M  V30 38 1 12 35
M  V30 39 1 15 36
M  V30 40 1 16 37
M  V30 41 1 19 38
M  V30 42 1 22 39 CFG=3
M  V30 43 1 23 40
M  V30 44 1 23 41
M  V30 45 1 24 42 CFG=3
M  V30 46 1 26 43
M  V30 47 1 26 44
M  V30 48 1 27 45
M  V30 49 1 28 46
M  V30 END BOND
M  V30 END CTAB
M  END
>  <Dataset>  (298) 
ChEMBL_Kinases

>  <Ligand_Instance>  (298) 
nan

>  <PDB_ID>  (298) 
nan

>  <Standardized_SMILES>  (298) 
CSc1nc(-c2ccc(F)cc2)c(-c2ccnc(NC(=O)[C@H]3C[C@H](Cl)C3)c2)[nH]1

>  <Name>  (298) 
nan

>  <Pocket>  (298) 
nan

>  <ATP_Site>  (298) 
nan

>  <Peripheral>  (298) 
nan

>  <Num_H_Atoms_ProtBoundConf>  (298) 
nan

>  <Num_Resolved_Atoms>  (298) 
nan

>  <Num_Not_Resolved_Atoms>  (298) 
nan

$$$$
CHEMBL3702051
     RDKit          3D

  0  0  0  0  0  0  0  0  0  0999 V3000
M  V30 BEGIN CTAB
M  V30 COUNTS 66 71 0 0 0
M  V30 BEGIN ATOM
M  V30 1 C 1.824894 -2.614065 4.225520 0
M  V30 2 O 2.343304 -1.579242 3.459017 0
M  V30 3 C 2.233213 -0.333977 4.098990 0
M  V30 4 C 2.803448 0.717191 3.200404 0
M  V30 5 N 2.726552 2.015154 3.778375 0
M  V30 6 C 1.403204 2.531705 3.909534 0
M  V30 7 C 1.001448 3.400185 2.737818 0
M  V30 8 N 1.753770 3.108093 1.562919 0
M  V30 9 C 1.314402 2.551570 0.335377 0
M  V30 10 C 0.059478 1.942723 0.349102 0
M  V30 11 C -0.318485 1.395308 -0.885896 0
M  V30 12 C 0.449597 1.434088 -2.029881 0
M  V30 13 N -0.009435 0.820926 -3.249368 0
M  V30 14 C -1.298441 0.189642 -3.097659 0
M  V30 15 N -2.534500 0.599631 -3.473673 0
M  V30 16 C -3.625746 -0.133802 -3.213455 0
M  V30 17 C -3.451032 -1.333201 -2.542723 0
M  V30 18 C -4.384208 -2.278023 -2.144403 0
M  V30 19 C -5.754471 -2.348492 -2.276503 0
M  V30 20 C -6.317992 -3.483934 -1.728747 0
M  V30 21 N -5.611227 -4.459254 -1.110427 0
M  V30 22 C -4.276704 -4.380339 -0.987293 0
M  V30 23 C -3.637757 -3.267223 -1.513199 0
M  V30 24 N -2.321134 -2.932180 -1.532515 0
M  V30 25 C -1.235771 -3.664655 -0.989579 0
M  V30 26 C -0.025127 -3.828258 -1.850086 0
M  V30 27 C 1.178465 -3.773900 -0.932258 0
M  V30 28 C 0.577065 -3.931824 0.438925 0
M  V30 29 C -0.691392 -3.087841 0.318689 0
M  V30 30 C -2.184341 -1.742108 -2.163660 0
M  V30 31 N -1.114610 -0.986946 -2.439075 0
M  V30 32 N 1.657671 2.057519 -1.920138 0
M  V30 33 N 2.061036 2.590156 -0.777560 0
M  V30 34 C 3.122114 3.465810 1.870863 0
M  V30 35 C 3.623688 2.961441 3.175704 0
M  V30 36 H 2.379070 -2.659569 5.182443 0
M  V30 37 H 0.729096 -2.531580 4.386821 0
M  V30 38 H 1.987291 -3.590633 3.708289 0
M  V30 39 H 2.813386 -0.422243 5.065298 0
M  V30 40 H 1.185604 -0.186244 4.391937 0
M  V30 41 H 3.894897 0.482769 3.076097 0
M  V30 42 H 2.288730 0.617731 2.215722 0
M  V30 43 H 1.256697 3.144767 4.817432 0
M  V30 44 H 0.679958 1.699205 3.948831 0
M  V30 45 H -0.076447 3.277596 2.514045 0
M  V30 46 H 1.110874 4.491957 2.972401 0
M  V30 47 H -0.611073 1.860181 1.193661 0
M  V30 48 H -1.301466 0.919733 -0.869351 0
M  V30 49 H 0.598286 0.887549 -4.080508 0
M  V30 50 H -4.557094 0.265754 -3.545591 0
M  V30 51 H -6.343592 -1.586017 -2.764764 0
M  V30 52 H -7.392416 -3.653022 -1.768279 0
M  V30 53 H -3.638204 -5.119128 -0.504872 0
M  V30 54 H -1.585835 -4.692531 -0.731206 0
M  V30 55 H 0.083240 -3.077134 -2.640877 0
M  V30 56 H 0.014848 -4.812453 -2.361811 0
M  V30 57 H 1.858312 -4.637420 -1.073526 0
M  V30 58 H 1.704104 -2.798808 -0.954190 0
M  V30 59 H 1.233979 -3.546506 1.242751 0
M  V30 60 H 0.271726 -4.967441 0.679641 0
M  V30 61 H -0.466878 -2.018745 0.249436 0
M  V30 62 H -1.318203 -3.351384 1.193053 0
M  V30 63 H 3.324672 4.554435 1.800624 0
M  V30 64 H 3.744191 3.014203 1.050456 0
M  V30 65 H 3.741120 3.809922 3.884731 0
M  V30 66 H 4.606935 2.428878 3.035405 0
M  V30 END ATOM
M  V30 BEGIN BOND
M  V30 1 1 1 2
M  V30 2 1 2 3
M  V30 3 1 3 4
M  V30 4 1 4 5
M  V30 5 1 5 6
M  V30 6 1 6 7
M  V30 7 1 7 8
M  V30 8 1 8 9
M  V30 9 2 9 10
M  V30 10 1 10 11
M  V30 11 2 11 12
M  V30 12 1 12 13
M  V30 13 1 13 14
M  V30 14 2 14 15
M  V30 15 1 15 16
M  V30 16 2 16 17
M  V30 17 1 17 18
M  V30 18 2 18 19
M  V30 19 1 19 20
M  V30 20 2 20 21
M  V30 21 1 21 22
M  V30 22 2 22 23
M  V30 23 1 23 24
M  V30 24 1 24 25
M  V30 25 1 25 26
M  V30 26 1 26 27
M  V30 27 1 27 28
M  V30 28 1 28 29
M  V30 29 1 24 30
M  V30 30 2 30 31
M  V30 31 1 12 32
M  V30 32 2 32 33
M  V30 33 1 8 34
M  V30 34 1 34 35
M  V30 35 1 35 5
M  V30 36 1 33 9
M  V30 37 1 31 14
M  V30 38 1 30 17
M  V30 39 1 23 18
M  V30 40 1 29 25
M  V30 41 1 1 36
M  V30 42 1 1 37
M  V30 43 1 1 38
M  V30 44 1 3 39
M  V30 45 1 3 40
M  V30 46 1 4 41
M  V30 47 1 4 42
M  V30 48 1 6 43
M  V30 49 1 6 44
M  V30 50 1 7 45
M  V30 51 1 7 46
M  V30 52 1 10 47
M  V30 53 1 11 48
M  V30 54 1 13 49
M  V30 55 1 16 50
M  V30 56 1 19 51
M  V30 57 1 20 52
M  V30 58 1 22 53
M  V30 59 1 25 54
M  V30 60 1 26 55
M  V30 61 1 26 56
M  V30 62 1 27 57
M  V30 63 1 27 58
M  V30 64 1 28 59
M  V30 65 1 28 60
M  V30 66 1 29 61
M  V30 67 1 29 62
M  V30 68 1 34 63
M  V30 69 1 34 64
M  V30 70 1 35 65
M  V30 71 1 35 66
M  V30 END BOND
M  V30 END CTAB
M  END
>  <Dataset>  (299) 
ChEMBL_Kinases

>  <Ligand_Instance>  (299) 
nan

>  <PDB_ID>  (299) 
nan

>  <Standardized_SMILES>  (299) 
COCCN1CCN(c2ccc(Nc3ncc4c5ccncc5n(C5CCCC5)c4n3)nn2)CC1

>  <Name>  (299) 
nan

>  <Pocket>  (299) 
nan

>  <ATP_Site>  (299) 
nan

>  <Peripheral>  (299) 
nan

>  <Num_H_Atoms_ProtBoundConf>  (299) 
nan

>  <Num_Resolved_Atoms>  (299) 
nan

>  <Num_Not_Resolved_Atoms>  (299) 
nan

$$$$
CHEMBL4435650
     RDKit          3D

  0  0  0  0  0  0  0  0  0  0999 V3000
M  V30 BEGIN CTAB
M  V30 COUNTS 49 52 0 0 0
M  V30 BEGIN ATOM
M  V30 1 C 1.728450 -5.267473 -2.276672 0
M  V30 2 N 2.973548 -4.511943 -2.209498 0
M  V30 3 C 3.137283 -3.274406 -1.707443 0
M  V30 4 C 4.447655 -2.854748 -1.799462 0
M  V30 5 N 5.049516 -1.631511 -1.395160 0
M  V30 6 C 4.372484 -0.544933 -0.782622 0
M  V30 7 N 5.088587 0.569570 -0.449396 0
M  V30 8 C 4.513605 1.631020 0.130917 0
M  V30 9 C 3.167954 1.598598 0.398360 0
M  V30 10 C 2.419609 0.488550 0.073808 0
M  V30 11 C 0.996744 0.490600 0.372353 0
M  V30 12 C 0.338664 1.541899 0.965645 0
M  V30 13 C -1.006991 1.540276 1.246447 0
M  V30 14 N -1.761457 0.473653 0.942013 0
M  V30 15 C -3.176942 0.460255 1.232335 0 CFG=2
M  V30 16 C -3.899073 1.703120 0.765716 0
M  V30 17 O -5.251083 1.519296 1.127153 0
M  V30 18 C -3.463247 0.202068 2.671171 0
M  V30 19 C -3.630030 -1.104564 3.121662 0
M  V30 20 C -3.897535 -1.484292 4.419549 0
M  V30 21 C -4.010797 -0.479328 5.359929 0
M  V30 22 Cl -4.350514 -0.943631 7.014197 0
M  V30 23 C -3.850964 0.843134 4.951773 0
M  V30 24 F -3.967254 1.810591 5.895700 0
M  V30 25 C -3.584658 1.173781 3.643816 0
M  V30 26 C -1.195994 -0.598827 0.358917 0
M  V30 27 O -1.932095 -1.573864 0.090336 0
M  V30 28 C 0.156820 -0.563372 0.091278 0
M  V30 29 N 3.068228 -0.536300 -0.506049 0
M  V30 30 C 5.076848 -3.927364 -2.395777 0
M  V30 31 N 4.167912 -4.883527 -2.620152 0
M  V30 32 H 1.290274 -5.158445 -3.310285 0
M  V30 33 H 1.863251 -6.311231 -1.993762 0
M  V30 34 H 0.982046 -4.767998 -1.604500 0
M  V30 35 H 2.330780 -2.711035 -1.294750 0
M  V30 36 H 6.085937 -1.535269 -1.570204 0
M  V30 37 H 5.169851 2.470748 0.357580 0
M  V30 38 H 2.818206 2.496432 0.860643 0
M  V30 39 H 0.859730 2.440963 1.246282 0
M  V30 40 H -1.494687 2.380829 1.712760 0
M  V30 41 H -3.665458 -0.384392 0.675088 0
M  V30 42 H -3.468765 2.587986 1.238448 0
M  V30 43 H -3.896141 1.741781 -0.344220 0
M  V30 44 H -5.665531 2.432090 1.166443 0
M  V30 45 H -3.543374 -1.906317 2.391183 0
M  V30 46 H -4.010124 -2.529228 4.669054 0
M  V30 47 H -3.460070 2.209834 3.327417 0
M  V30 48 H 0.533923 -1.458947 -0.375744 0
M  V30 49 H 6.137779 -3.971579 -2.636678 0
M  V30 END ATOM
M  V30 BEGIN BOND
M  V30 1 1 1 2
M  V30 2 1 2 3
M  V30 3 2 3 4
M  V30 4 1 4 5
M  V30 5 1 5 6
M  V30 6 2 6 7
M  V30 7 1 7 8
M  V30 8 2 8 9
M  V30 9 1 9 10
M  V30 10 1 10 11
M  V30 11 1 11 12
M  V30 12 2 12 13
M  V30 13 1 13 14
M  V30 14 1 14 15
M  V30 15 1 15 16
M  V30 16 1 16 17
M  V30 17 1 15 18
M  V30 18 2 18 19
M  V30 19 1 19 20
M  V30 20 2 20 21
M  V30 21 1 21 22
M  V30 22 1 21 23
M  V30 23 1 23 24
M  V30 24 2 23 25
M  V30 25 1 14 26
M  V30 26 2 26 27
M  V30 27 1 26 28
M  V30 28 2 10 29
M  V30 29 1 4 30
M  V30 30 2 30 31
M  V30 31 1 31 2
M  V30 32 1 29 6
M  V30 33 2 28 11
M  V30 34 1 25 18
M  V30 35 1 1 32
M  V30 36 1 1 33
M  V30 37 1 1 34
M  V30 38 1 3 35
M  V30 39 1 5 36
M  V30 40 1 8 37
M  V30 41 1 9 38
M  V30 42 1 12 39
M  V30 43 1 13 40
M  V30 44 1 15 41 CFG=3
M  V30 45 1 16 42
M  V30 46 1 16 43
M  V30 47 1 17 44
M  V30 48 1 19 45
M  V30 49 1 20 46
M  V30 50 1 25 47
M  V30 51 1 28 48
M  V30 52 1 30 49
M  V30 END BOND
M  V30 END CTAB
M  END
>  <Dataset>  (300) 
ChEMBL_Kinases

>  <Ligand_Instance>  (300) 
nan

>  <PDB_ID>  (300) 
nan

>  <Standardized_SMILES>  (300) 
Cn1cc(Nc2nccc(-c3ccn([C@H](CO)c4ccc(Cl)c(F)c4)c(=O)c3)n2)cn1

>  <Name>  (300) 
nan

>  <Pocket>  (300) 
nan

>  <ATP_Site>  (300) 
nan

>  <Peripheral>  (300) 
nan

>  <Num_H_Atoms_ProtBoundConf>  (300) 
nan

>  <Num_Resolved_Atoms>  (300) 
nan

>  <Num_Not_Resolved_Atoms>  (300) 
nan

$$$$
CHEMBL3687480
     RDKit          3D

  0  0  0  0  0  0  0  0  0  0999 V3000
M  V30 BEGIN CTAB
M  V30 COUNTS 60 63 0 0 0
M  V30 BEGIN ATOM
M  V30 1 C 0.223342 -1.273521 4.588028 0
M  V30 2 O 0.607740 -0.664874 3.402183 0
M  V30 3 C 1.948066 -0.927535 3.072774 0 CFG=1
M  V30 4 C 1.961866 -1.587036 1.710691 0 CFG=2
M  V30 5 N 2.974671 -2.652196 1.665815 0
M  V30 6 C 2.153876 -0.617084 0.582217 0
M  V30 7 C 1.352766 0.630421 0.887716 0 CFG=2
M  V30 8 C 1.434218 1.619113 -0.216211 0
M  V30 9 C 2.407272 2.576728 -0.413545 0
M  V30 10 C 2.376473 3.436729 -1.482802 0
M  V30 11 N 1.396117 3.397617 -2.402514 0
M  V30 12 C 0.404478 2.496647 -2.292250 0
M  V30 13 C 0.447792 1.639343 -1.213775 0
M  V30 14 N -0.606257 0.678030 -1.092257 0
M  V30 15 C -1.821392 0.858706 -0.410026 0
M  V30 16 O -2.159638 1.895011 0.194602 0
M  V30 17 C -2.776068 -0.251226 -0.400556 0
M  V30 18 N -2.536354 -1.423976 -1.013558 0
M  V30 19 C -3.387717 -2.448936 -1.019921 0
M  V30 20 C -2.894947 -3.611507 -1.754927 0
M  V30 21 C -3.124853 -3.807425 -3.114604 0
M  V30 22 F -3.834989 -2.875336 -3.769158 0
M  V30 23 C -2.614160 -4.940783 -3.711812 0
M  V30 24 C -1.885061 -5.881889 -3.003187 0
M  V30 25 C -1.654566 -5.689288 -1.648800 0
M  V30 26 C -2.175506 -4.537847 -1.050354 0
M  V30 27 F -1.915871 -4.416229 0.255531 0
M  V30 28 N -4.569361 -2.338799 -0.383929 0
M  V30 29 C -4.875616 -1.183608 0.254885 0
M  V30 30 C -3.983338 -0.108829 0.261789 0
M  V30 31 N -4.332955 1.094781 0.942622 0
M  V30 32 C 1.735340 1.303781 2.162827 0
M  V30 33 C 2.607427 0.433955 3.040604 0 CFG=2
M  V30 34 C 4.046702 0.428624 2.678576 0
M  V30 35 H 0.790482 -0.973139 5.472451 0
M  V30 36 H -0.824755 -0.944429 4.760210 0
M  V30 37 H 0.182321 -2.375899 4.495229 0
M  V30 38 H 2.461868 -1.562632 3.799370 0
M  V30 39 H 0.990088 -2.103366 1.566233 0
M  V30 40 H 3.547704 -2.591616 0.789835 0
M  V30 41 H 2.552237 -3.605787 1.673172 0
M  V30 42 H 1.662597 -1.050277 -0.334881 0
M  V30 43 H 3.187615 -0.428749 0.290118 0
M  V30 44 H 0.292087 0.291720 0.929789 0
M  V30 45 H 3.199776 2.621934 0.306971 0
M  V30 46 H 3.151917 4.166459 -1.599484 0
M  V30 47 H -0.410133 2.415673 -2.998052 0
M  V30 48 H -0.400026 -0.227968 -1.576189 0
M  V30 49 H -2.791104 -5.093300 -4.762383 0
M  V30 50 H -1.516803 -6.744825 -3.539304 0
M  V30 51 H -1.086480 -6.418780 -1.087903 0
M  V30 52 H -5.838939 -1.138750 0.754489 0
M  V30 53 H -4.368184 1.233680 1.966094 0
M  V30 54 H -4.576617 1.914021 0.361277 0
M  V30 55 H 2.163579 2.305782 2.001533 0
M  V30 56 H 0.780338 1.498450 2.738976 0
M  V30 57 H 2.497096 0.831797 4.074362 0
M  V30 58 H 4.689629 0.679561 3.572792 0
M  V30 59 H 4.254244 1.254527 1.967969 0
M  V30 60 H 4.436638 -0.550615 2.335523 0
M  V30 END ATOM
M  V30 BEGIN BOND
M  V30 1 1 1 2
M  V30 2 1 2 3
M  V30 3 1 3 4
M  V30 4 1 4 5
M  V30 5 1 4 6
M  V30 6 1 6 7
M  V30 7 1 7 8
M  V30 8 2 8 9
M  V30 9 1 9 10
M  V30 10 2 10 11
M  V30 11 1 11 12
M  V30 12 2 12 13
M  V30 13 1 13 14
M  V30 14 1 14 15
M  V30 15 2 15 16
M  V30 16 1 15 17
M  V30 17 2 17 18
M  V30 18 1 18 19
M  V30 19 1 19 20
M  V30 20 2 20 21
M  V30 21 1 21 22
M  V30 22 1 21 23
M  V30 23 2 23 24
M  V30 24 1 24 25
M  V30 25 2 25 26
M  V30 26 1 26 27
M  V30 27 2 19 28
M  V30 28 1 28 29
M  V30 29 2 29 30
M  V30 30 1 30 31
M  V30 31 1 7 32
M  V30 32 1 32 33
M  V30 33 1 33 34
M  V30 34 1 33 3
M  V30 35 1 13 8
M  V30 36 1 30 17
M  V30 37 1 26 20
M  V30 38 1 1 35
M  V30 39 1 1 36
M  V30 40 1 1 37
M  V30 41 1 3 38 CFG=1
M  V30 42 1 4 39 CFG=3
M  V30 43 1 5 40
M  V30 44 1 5 41
M  V30 45 1 6 42
M  V30 46 1 6 43
M  V30 47 1 7 44 CFG=1
M  V30 48 1 9 45
M  V30 49 1 10 46
M  V30 50 1 12 47
M  V30 51 1 14 48
M  V30 52 1 23 49
M  V30 53 1 24 50
M  V30 54 1 25 51
M  V30 55 1 29 52
M  V30 56 1 31 53
M  V30 57 1 31 54
M  V30 58 1 32 55
M  V30 59 1 32 56
M  V30 60 1 33 57 CFG=1
M  V30 61 1 34 58
M  V30 62 1 34 59
M  V30 63 1 34 60
M  V30 END BOND
M  V30 END CTAB
M  END
>  <Dataset>  (301) 
ChEMBL_Kinases

>  <Ligand_Instance>  (301) 
nan

>  <PDB_ID>  (301) 
nan

>  <Standardized_SMILES>  (301) 
CO[C@H]1[C@H](N)C[C@H](c2ccncc2NC(=O)c2nc(-c3c(F)cccc3F)ncc2N)C[C@@H]1C

>  <Name>  (301) 
nan

>  <Pocket>  (301) 
nan

>  <ATP_Site>  (301) 
nan

>  <Peripheral>  (301) 
nan

>  <Num_H_Atoms_ProtBoundConf>  (301) 
nan

>  <Num_Resolved_Atoms>  (301) 
nan

>  <Num_Not_Resolved_Atoms>  (301) 
nan

$$$$
CHEMBL3687479
     RDKit          3D

  0  0  0  0  0  0  0  0  0  0999 V3000
M  V30 BEGIN CTAB
M  V30 COUNTS 58 61 0 0 0
M  V30 BEGIN ATOM
M  V30 1 C 4.265356 -2.149169 1.266954 0
M  V30 2 O 4.126165 -0.915403 0.704758 0
M  V30 3 C 2.829849 -0.406008 0.682574 0 CFG=1
M  V30 4 C 2.775181 0.870135 1.474106 0 CFG=2
M  V30 5 N 2.547781 0.519029 2.883046 0
M  V30 6 C 1.720533 1.842285 1.091000 0
M  V30 7 C 1.181510 1.720463 -0.277801 0 CFG=2
M  V30 8 C -0.008327 2.574638 -0.474492 0
M  V30 9 C 0.114409 3.905073 -0.901378 0
M  V30 10 C -0.905492 4.792557 -1.122677 0
M  V30 11 N -2.156462 4.350708 -0.911177 0
M  V30 12 C -2.367689 3.088735 -0.500697 0
M  V30 13 C -1.324180 2.211538 -0.283928 0
M  V30 14 N -1.640910 0.919423 0.135524 0
M  V30 15 C -1.836599 0.356800 1.429860 0
M  V30 16 O -1.693925 1.199009 2.344860 0
M  V30 17 C -2.167194 -1.035907 1.713210 0
M  V30 18 N -2.302879 -1.866567 0.689688 0
M  V30 19 C -2.614347 -3.144351 1.096081 0
M  V30 20 C -2.816200 -4.248494 0.142906 0
M  V30 21 C -2.702219 -4.060462 -1.225267 0
M  V30 22 F -2.395932 -2.820198 -1.677465 0
M  V30 23 C -2.914274 -5.170872 -2.014304 0
M  V30 24 C -3.223500 -6.405018 -1.476729 0
M  V30 25 C -3.334504 -6.584379 -0.127891 0
M  V30 26 C -3.126624 -5.488060 0.679787 0
M  V30 27 F -3.236192 -5.662289 2.024079 0
M  V30 28 S -2.706806 -3.147796 2.864440 0
M  V30 29 C -2.319189 -1.394737 3.072105 0
M  V30 30 N -2.218120 -0.687277 4.224088 0
M  V30 31 C 1.033933 0.310515 -0.771346 0
M  V30 32 C 2.472439 -0.236055 -0.776774 0 CFG=2
M  V30 33 C 2.506039 -1.604187 -1.421308 0
M  V30 34 H 3.950501 -2.211130 2.326183 0
M  V30 35 H 3.660654 -2.914612 0.740442 0
M  V30 36 H 5.321470 -2.462082 1.122069 0
M  V30 37 H 2.103643 -1.130347 1.137794 0
M  V30 38 H 3.797098 1.307107 1.436975 0
M  V30 39 H 1.842077 1.156478 3.335417 0
M  V30 40 H 3.409174 0.646479 3.467469 0
M  V30 41 H 2.196735 2.866133 1.165237 0
M  V30 42 H 0.897416 1.886831 1.826942 0
M  V30 43 H 1.970221 2.168217 -0.961471 0
M  V30 44 H 1.132222 4.281095 -1.078604 0
M  V30 45 H -0.700797 5.788627 -1.448836 0
M  V30 46 H -3.392113 2.773933 -0.342306 0
M  V30 47 H -1.750683 0.258769 -0.692879 0
M  V30 48 H -2.831005 -5.048328 -3.078436 0
M  V30 49 H -3.374235 -7.224399 -2.169460 0
M  V30 50 H -3.579328 -7.576253 0.232483 0
M  V30 51 H -1.251171 -0.340576 4.409858 0
M  V30 52 H -3.105419 -0.573732 4.782028 0
M  V30 53 H 0.647106 0.370979 -1.805459 0
M  V30 54 H 0.484597 -0.370094 -0.119905 0
M  V30 55 H 3.165430 0.468283 -1.266075 0
M  V30 56 H 3.555836 -1.944804 -1.445472 0
M  V30 57 H 2.106273 -1.563516 -2.457734 0
M  V30 58 H 1.927277 -2.284587 -0.784830 0
M  V30 END ATOM
M  V30 BEGIN BOND
M  V30 1 1 1 2
M  V30 2 1 2 3
M  V30 3 1 3 4
M  V30 4 1 4 5
M  V30 5 1 4 6
M  V30 6 1 6 7
M  V30 7 1 7 8
M  V30 8 2 8 9
M  V30 9 1 9 10
M  V30 10 2 10 11
M  V30 11 1 11 12
M  V30 12 2 12 13
M  V30 13 1 13 14
M  V30 14 1 14 15
M  V30 15 2 15 16
M  V30 16 1 15 17
M  V30 17 1 17 18
M  V30 18 2 18 19
M  V30 19 1 19 20
M  V30 20 2 20 21
M  V30 21 1 21 22
M  V30 22 1 21 23
M  V30 23 2 23 24
M  V30 24 1 24 25
M  V30 25 2 25 26
M  V30 26 1 26 27
M  V30 27 1 19 28
M  V30 28 1 28 29
M  V30 29 1 29 30
M  V30 30 1 7 31
M  V30 31 1 31 32
M  V30 32 1 32 33
M  V30 33 1 32 3
M  V30 34 1 13 8
M  V30 35 2 29 17
M  V30 36 1 26 20
M  V30 37 1 1 34
M  V30 38 1 1 35
M  V30 39 1 1 36
M  V30 40 1 3 37 CFG=1
M  V30 41 1 4 38 CFG=1
M  V30 42 1 5 39
M  V30 43 1 5 40
M  V30 44 1 6 41
M  V30 45 1 6 42
M  V30 46 1 7 43 CFG=3
M  V30 47 1 9 44
M  V30 48 1 10 45
M  V30 49 1 12 46
M  V30 50 1 14 47
M  V30 51 1 23 48
M  V30 52 1 24 49
M  V30 53 1 25 50
M  V30 54 1 30 51
M  V30 55 1 30 52
M  V30 56 1 31 53
M  V30 57 1 31 54
M  V30 58 1 32 55 CFG=3
M  V30 59 1 33 56
M  V30 60 1 33 57
M  V30 61 1 33 58
M  V30 END BOND
M  V30 END CTAB
M  END
>  <Dataset>  (302) 
ChEMBL_Kinases

>  <Ligand_Instance>  (302) 
nan

>  <PDB_ID>  (302) 
nan

>  <Standardized_SMILES>  (302) 
CO[C@H]1[C@H](N)C[C@H](c2ccncc2NC(=O)c2nc(-c3c(F)cccc3F)sc2N)C[C@@H]1C

>  <Name>  (302) 
nan

>  <Pocket>  (302) 
nan

>  <ATP_Site>  (302) 
nan

>  <Peripheral>  (302) 
nan

>  <Num_H_Atoms_ProtBoundConf>  (302) 
nan

>  <Num_Resolved_Atoms>  (302) 
nan

>  <Num_Not_Resolved_Atoms>  (302) 
nan

$$$$
CHEMBL258081
     RDKit          3D

  0  0  0  0  0  0  0  0  0  0999 V3000
M  V30 BEGIN CTAB
M  V30 COUNTS 49 53 0 0 0
M  V30 BEGIN ATOM
M  V30 1 N 1.154274 -2.469655 2.363397 0
M  V30 2 C 2.422304 -1.940842 2.754120 0
M  V30 3 N 3.204745 -2.526918 3.687557 0
M  V30 4 C 4.397821 -1.943964 3.990337 0
M  V30 5 N 4.875369 -0.799499 3.420097 0
M  V30 6 C 4.049221 -0.246310 2.484303 0
M  V30 7 O 4.232865 0.837682 1.776384 0
M  V30 8 C 3.236519 1.085196 0.966272 0
M  V30 9 C 3.081128 2.194630 0.027329 0
M  V30 10 C 2.996971 1.902112 -1.322603 0
M  V30 11 C 2.847792 2.881438 -2.306608 0
M  V30 12 C 2.786390 4.192726 -1.857745 0
M  V30 13 N 2.866369 4.495384 -0.551582 0
M  V30 14 C 3.008367 3.533454 0.357379 0
M  V30 15 C 2.303497 0.082667 1.144358 0
M  V30 16 C 1.011964 -0.138621 0.506076 0
M  V30 17 C -0.109038 0.672806 0.554430 0
M  V30 18 C -1.256438 0.301430 -0.117336 0
M  V30 19 C -1.341897 -0.868671 -0.852902 0
M  V30 20 N -2.559339 -1.153709 -1.500256 0
M  V30 21 S -4.113577 -0.983043 -0.751289 0
M  V30 22 O -4.277517 0.432332 -0.315436 0
M  V30 23 O -5.167873 -1.359397 -1.728956 0
M  V30 24 C -4.185601 -2.067794 0.626574 0
M  V30 25 C -4.666882 -3.356474 0.382472 0
M  V30 26 C -4.781881 -4.322720 1.367028 0
M  V30 27 C -4.406443 -4.013507 2.660203 0
M  V30 28 C -3.931552 -2.737122 2.893324 0
M  V30 29 C -3.810495 -1.762774 1.924646 0
M  V30 30 C -0.208844 -1.674383 -0.893141 0
M  V30 31 C 0.942980 -1.311012 -0.224494 0
M  V30 32 C 2.809386 -0.779803 2.114813 0
M  V30 33 H 1.185158 -3.372949 1.801559 0
M  V30 34 H 0.189525 -2.083505 2.557810 0
M  V30 35 H 5.022059 -2.422186 4.743207 0
M  V30 36 H 3.048905 0.867378 -1.632661 0
M  V30 37 H 2.792289 2.547767 -3.329681 0
M  V30 38 H 2.670668 4.915866 -2.655466 0
M  V30 39 H 3.075915 3.760046 1.432886 0
M  V30 40 H 0.011304 1.564146 1.136299 0
M  V30 41 H -2.043349 1.032092 0.013287 0
M  V30 42 H -2.450290 -1.484860 -2.493500 0
M  V30 43 H -4.971300 -3.638139 -0.616932 0
M  V30 44 H -5.160724 -5.305143 1.124361 0
M  V30 45 H -4.489230 -4.756772 3.444790 0
M  V30 46 H -3.632715 -2.484859 3.913020 0
M  V30 47 H -3.448764 -0.774593 2.077096 0
M  V30 48 H -0.347746 -2.574734 -1.487735 0
M  V30 49 H 1.730609 -2.052643 -0.361494 0
M  V30 END ATOM
M  V30 BEGIN BOND
M  V30 1 1 1 2
M  V30 2 2 2 3
M  V30 3 1 3 4
M  V30 4 2 4 5
M  V30 5 1 5 6
M  V30 6 1 6 7
M  V30 7 1 7 8
M  V30 8 1 8 9
M  V30 9 2 9 10
M  V30 10 1 10 11
M  V30 11 2 11 12
M  V30 12 1 12 13
M  V30 13 2 13 14
M  V30 14 2 8 15
M  V30 15 1 15 16
M  V30 16 2 16 17
M  V30 17 1 17 18
M  V30 18 2 18 19
M  V30 19 1 19 20
M  V30 20 1 20 21
M  V30 21 2 21 22
M  V30 22 2 21 23
M  V30 23 1 21 24
M  V30 24 2 24 25
M  V30 25 1 25 26
M  V30 26 2 26 27
M  V30 27 1 27 28
M  V30 28 2 28 29
M  V30 29 1 19 30
M  V30 30 2 30 31
M  V30 31 1 15 32
M  V30 32 1 32 2
M  V30 33 2 32 6
M  V30 34 1 14 9
M  V30 35 1 31 16
M  V30 36 1 29 24
M  V30 37 1 1 33
M  V30 38 1 1 34
M  V30 39 1 4 35
M  V30 40 1 10 36
M  V30 41 1 11 37
M  V30 42 1 12 38
M  V30 43 1 14 39
M  V30 44 1 17 40
M  V30 45 1 18 41
M  V30 46 1 20 42
M  V30 47 1 25 43
M  V30 48 1 26 44
M  V30 49 1 27 45
M  V30 50 1 28 46
M  V30 51 1 29 47
M  V30 52 1 30 48
M  V30 53 1 31 49
M  V30 END BOND
M  V30 END CTAB
M  END
>  <Dataset>  (303) 
ChEMBL_Kinases

>  <Ligand_Instance>  (303) 
nan

>  <PDB_ID>  (303) 
nan

>  <Standardized_SMILES>  (303) 
Nc1ncnc2oc(-c3cccnc3)c(-c3ccc(NS(=O)(=O)c4ccccc4)cc3)c12

>  <Name>  (303) 
nan

>  <Pocket>  (303) 
nan

>  <ATP_Site>  (303) 
nan

>  <Peripheral>  (303) 
nan

>  <Num_H_Atoms_ProtBoundConf>  (303) 
nan

>  <Num_Resolved_Atoms>  (303) 
nan

>  <Num_Not_Resolved_Atoms>  (303) 
nan

$$$$
CHEMBL3687478
     RDKit          3D

  0  0  0  0  0  0  0  0  0  0999 V3000
M  V30 BEGIN CTAB
M  V30 COUNTS 56 59 0 0 0
M  V30 BEGIN ATOM
M  V30 1 C 2.900457 -2.974782 2.887493 0
M  V30 2 C 2.552208 -2.721127 1.459130 0 CFG=1
M  V30 3 C 2.465479 -1.225243 1.146216 0
M  V30 4 C 1.743564 -1.019393 -0.150106 0 CFG=1
M  V30 5 C 1.914476 0.360272 -0.673410 0
M  V30 6 C 2.934975 0.812488 -1.480385 0
M  V30 7 C 3.039499 2.106683 -1.930203 0
M  V30 8 N 2.126079 3.030574 -1.598773 0
M  V30 9 C 1.097651 2.684040 -0.817464 0
M  V30 10 C 1.002043 1.383311 -0.371776 0
M  V30 11 N -0.117603 1.097962 0.450251 0
M  V30 12 C -0.401686 1.123641 1.832555 0
M  V30 13 O 0.445993 1.462040 2.695146 0
M  V30 14 C -1.764530 0.722808 2.159145 0
M  V30 15 C -2.114848 0.729010 3.491509 0
M  V30 16 C -3.388906 0.364582 3.867308 0
M  V30 17 C -4.354981 -0.015377 2.956858 0
M  V30 18 F -5.622591 -0.386231 3.236040 0
M  V30 19 C -3.952345 -0.004804 1.630346 0
M  V30 20 C -4.807254 -0.368243 0.510871 0
M  V30 21 C -4.988434 -1.622363 -0.059312 0
M  V30 22 F -4.262727 -2.612571 0.523696 0
M  V30 23 C -5.851589 -1.775401 -1.129784 0
M  V30 24 C -6.538084 -0.685347 -1.638538 0
M  V30 25 C -6.369047 0.561140 -1.084857 0
M  V30 26 C -5.499111 0.709500 -0.007698 0
M  V30 27 F -5.406875 1.982024 0.460833 0
M  V30 28 N -2.718558 0.351407 1.304460 0
M  V30 29 C 1.980014 -2.116123 -1.107233 0
M  V30 30 C 3.122780 -3.032849 -0.889346 0 CFG=1
M  V30 31 N 4.216080 -2.613301 -1.789469 0
M  V30 32 C 3.610793 -3.219584 0.501604 0 CFG=1
M  V30 33 C 4.806394 -2.356375 0.649513 0
M  V30 34 N 5.761841 -1.678322 0.756616 0
M  V30 35 H 2.015078 -3.215868 3.539635 0
M  V30 36 H 3.489486 -3.940813 2.905272 0
M  V30 37 H 3.511795 -2.209034 3.375836 0
M  V30 38 H 1.572534 -3.193078 1.262433 0
M  V30 39 H 1.954282 -0.734763 2.010343 0
M  V30 40 H 3.512986 -0.868757 1.154407 0
M  V30 41 H 0.644068 -1.047535 0.146604 0
M  V30 42 H 3.693727 0.101417 -1.770355 0
M  V30 43 H 3.865681 2.391476 -2.559828 0
M  V30 44 H 0.367592 3.426384 -0.554333 0
M  V30 45 H -0.821870 0.813410 -0.296256 0
M  V30 46 H -1.392190 1.020920 4.263612 0
M  V30 47 H -3.696108 0.360192 4.917892 0
M  V30 48 H -5.951333 -2.784993 -1.533001 0
M  V30 49 H -7.206348 -0.871461 -2.486692 0
M  V30 50 H -6.940554 1.368390 -1.536013 0
M  V30 51 H 1.025139 -2.734849 -1.188437 0
M  V30 52 H 2.072216 -1.744975 -2.179381 0
M  V30 53 H 2.788955 -4.070312 -1.225562 0
M  V30 54 H 3.723286 -2.294757 -2.668927 0
M  V30 55 H 4.884008 -3.386171 -1.981956 0
M  V30 56 H 3.949919 -4.244734 0.736315 0
M  V30 END ATOM
M  V30 BEGIN BOND
M  V30 1 1 1 2
M  V30 2 1 2 3
M  V30 3 1 3 4
M  V30 4 1 4 5
M  V30 5 2 5 6
M  V30 6 1 6 7
M  V30 7 2 7 8
M  V30 8 1 8 9
M  V30 9 2 9 10
M  V30 10 1 10 11
M  V30 11 1 11 12
M  V30 12 2 12 13
M  V30 13 1 12 14
M  V30 14 2 14 15
M  V30 15 1 15 16
M  V30 16 2 16 17
M  V30 17 1 17 18
M  V30 18 1 17 19
M  V30 19 1 19 20
M  V30 20 2 20 21
M  V30 21 1 21 22
M  V30 22 1 21 23
M  V30 23 2 23 24
M  V30 24 1 24 25
M  V30 25 2 25 26
M  V30 26 1 26 27
M  V30 27 2 19 28
M  V30 28 1 4 29
M  V30 29 1 29 30
M  V30 30 1 30 31
M  V30 31 1 30 32
M  V30 32 1 32 33
M  V30 33 3 33 34
M  V30 34 1 32 2
M  V30 35 1 10 5
M  V30 36 1 28 14
M  V30 37 1 26 20
M  V30 38 1 1 35
M  V30 39 1 1 36
M  V30 40 1 1 37
M  V30 41 1 2 38 CFG=3
M  V30 42 1 3 39
M  V30 43 1 3 40
M  V30 44 1 4 41 CFG=1
M  V30 45 1 6 42
M  V30 46 1 7 43
M  V30 47 1 9 44
M  V30 48 1 11 45
M  V30 49 1 15 46
M  V30 50 1 16 47
M  V30 51 1 23 48
M  V30 52 1 24 49
M  V30 53 1 25 50
M  V30 54 1 29 51
M  V30 55 1 29 52
M  V30 56 1 30 53 CFG=3
M  V30 57 1 31 54
M  V30 58 1 31 55
M  V30 59 1 32 56 CFG=1
M  V30 END BOND
M  V30 END CTAB
M  END
>  <Dataset>  (304) 
ChEMBL_Kinases

>  <Ligand_Instance>  (304) 
nan

>  <PDB_ID>  (304) 
nan

>  <Standardized_SMILES>  (304) 
C[C@H]1C[C@@H](c2ccncc2NC(=O)c2ccc(F)c(-c3c(F)cccc3F)n2)C[C@@H](N)[C@H]1C#N

>  <Name>  (304) 
nan

>  <Pocket>  (304) 
nan

>  <ATP_Site>  (304) 
nan

>  <Peripheral>  (304) 
nan

>  <Num_H_Atoms_ProtBoundConf>  (304) 
nan

>  <Num_Resolved_Atoms>  (304) 
nan

>  <Num_Not_Resolved_Atoms>  (304) 
nan

$$$$
CHEMBL3687481
     RDKit          3D

  0  0  0  0  0  0  0  0  0  0999 V3000
M  V30 BEGIN CTAB
M  V30 COUNTS 61 64 0 0 0
M  V30 BEGIN ATOM
M  V30 1 C 4.874445 0.036309 3.781523 0
M  V30 2 C 3.806663 1.082399 3.813072 0
M  V30 3 O 2.686444 0.840060 3.113259 0
M  V30 4 C 1.898873 -0.213175 3.353472 0 CFG=2
M  V30 5 C 1.861402 -1.075031 2.103649 0 CFG=2
M  V30 6 N 3.192132 -1.534167 1.752999 0
M  V30 7 C 1.323934 -0.326246 0.941273 0
M  V30 8 C 0.021683 0.399682 1.156046 0 CFG=2
M  V30 9 C -0.088323 1.559914 0.232576 0
M  V30 10 C 0.462094 2.736186 0.748195 0
M  V30 11 C 0.474989 3.959344 0.066141 0
M  V30 12 N -0.092279 3.971754 -1.177131 0
M  V30 13 C -0.619110 2.837115 -1.666939 0
M  V30 14 C -0.645411 1.629783 -1.023502 0
M  V30 15 N -1.191067 0.428967 -1.528991 0
M  V30 16 C -1.843548 0.211970 -2.770281 0
M  V30 17 O -1.997312 1.160778 -3.584113 0
M  V30 18 C -2.399502 -1.063439 -3.259558 0
M  V30 19 N -2.358709 -2.193375 -2.589301 0
M  V30 20 C -2.721563 -3.231990 -2.802712 0
M  V30 21 C -2.727676 -4.533731 -2.141774 0
M  V30 22 C -2.132953 -4.583991 -0.881586 0
M  V30 23 F -1.602734 -3.467950 -0.357981 0
M  V30 24 C -2.156279 -5.826389 -0.287681 0
M  V30 25 C -2.709737 -6.948379 -0.856060 0
M  V30 26 C -3.276356 -6.804971 -2.106095 0
M  V30 27 C -3.307252 -5.607501 -2.789397 0
M  V30 28 F -3.861167 -5.459231 -4.015890 0
M  V30 29 S -3.474994 -2.933752 -4.518158 0
M  V30 30 C -3.003848 -1.168926 -4.456892 0
M  V30 31 N -3.287189 -0.262816 -5.513313 0
M  V30 32 C -0.349572 0.676992 2.572107 0
M  V30 33 C 0.455775 0.058056 3.641816 0 CFG=2
M  V30 34 C 0.227702 0.741789 4.967285 0
M  V30 35 H 4.566176 -0.967465 4.121656 0
M  V30 36 H 5.354664 -0.101197 2.789571 0
M  V30 37 H 5.723020 0.316536 4.454441 0
M  V30 38 H 3.662351 1.377664 4.878237 0
M  V30 39 H 4.278294 1.994382 3.346438 0
M  V30 40 H 2.242880 -0.891612 4.181994 0
M  V30 41 H 1.247758 -1.977451 2.319431 0
M  V30 42 H 3.479323 -2.333669 2.370116 0
M  V30 43 H 3.124790 -1.959297 0.791194 0
M  V30 44 H 1.283853 -1.043678 0.083868 0
M  V30 45 H 2.065102 0.455321 0.625283 0
M  V30 46 H -0.744511 -0.329222 0.803299 0
M  V30 47 H 0.940452 2.860663 1.701226 0
M  V30 48 H 0.892886 4.878130 0.443670 0
M  V30 49 H -1.031442 2.955876 -2.635882 0
M  V30 50 H -1.184835 -0.479079 -1.055069 0
M  V30 51 H -1.704147 -5.899707 0.688321 0
M  V30 52 H -2.675515 -7.873389 -0.307269 0
M  V30 53 H -3.721767 -7.668072 -2.584405 0
M  V30 54 H -2.577278 -0.114622 -6.270750 0
M  V30 55 H -4.200658 0.227007 -5.497072 0
M  V30 56 H -0.361703 1.773788 2.744513 0
M  V30 57 H -1.443530 0.420469 2.760043 0
M  V30 58 H 0.020840 -0.974302 3.819938 0
M  V30 59 H 0.800083 0.216296 5.757343 0
M  V30 60 H -0.854022 0.550389 5.229642 0
M  V30 61 H 0.349565 1.829586 4.959593 0
M  V30 END ATOM
M  V30 BEGIN BOND
M  V30 1 1 1 2
M  V30 2 1 2 3
M  V30 3 1 3 4
M  V30 4 1 4 5
M  V30 5 1 5 6
M  V30 6 1 5 7
M  V30 7 1 7 8
M  V30 8 1 8 9
M  V30 9 2 9 10
M  V30 10 1 10 11
M  V30 11 2 11 12
M  V30 12 1 12 13
M  V30 13 2 13 14
M  V30 14 1 14 15
M  V30 15 1 15 16
M  V30 16 2 16 17
M  V30 17 1 16 18
M  V30 18 1 18 19
M  V30 19 2 19 20
M  V30 20 1 20 21
M  V30 21 2 21 22
M  V30 22 1 22 23
M  V30 23 1 22 24
M  V30 24 2 24 25
M  V30 25 1 25 26
M  V30 26 2 26 27
M  V30 27 1 27 28
M  V30 28 1 20 29
M  V30 29 1 29 30
M  V30 30 1 30 31
M  V30 31 1 8 32
M  V30 32 1 32 33
M  V30 33 1 33 34
M  V30 34 1 33 4
M  V30 35 1 14 9
M  V30 36 2 30 18
M  V30 37 1 27 21
M  V30 38 1 1 35
M  V30 39 1 1 36
M  V30 40 1 1 37
M  V30 41 1 2 38
M  V30 42 1 2 39
M  V30 43 1 4 40 CFG=1
M  V30 44 1 5 41 CFG=1
M  V30 45 1 6 42
M  V30 46 1 6 43
M  V30 47 1 7 44
M  V30 48 1 7 45
M  V30 49 1 8 46 CFG=3
M  V30 50 1 10 47
M  V30 51 1 11 48
M  V30 52 1 13 49
M  V30 53 1 15 50
M  V30 54 1 24 51
M  V30 55 1 25 52
M  V30 56 1 26 53
M  V30 57 1 31 54
M  V30 58 1 31 55
M  V30 59 1 32 56
M  V30 60 1 32 57
M  V30 61 1 33 58 CFG=1
M  V30 62 1 34 59
M  V30 63 1 34 60
M  V30 64 1 34 61
M  V30 END BOND
M  V30 END CTAB
M  END
>  <Dataset>  (305) 
ChEMBL_Kinases

>  <Ligand_Instance>  (305) 
nan

>  <PDB_ID>  (305) 
nan

>  <Standardized_SMILES>  (305) 
CCO[C@@H]1[C@H](N)C[C@H](c2ccncc2NC(=O)c2nc(-c3c(F)cccc3F)sc2N)C[C@@H]1C

>  <Name>  (305) 
nan

>  <Pocket>  (305) 
nan

>  <ATP_Site>  (305) 
nan

>  <Peripheral>  (305) 
nan

>  <Num_H_Atoms_ProtBoundConf>  (305) 
nan

>  <Num_Resolved_Atoms>  (305) 
nan

>  <Num_Not_Resolved_Atoms>  (305) 
nan

$$$$
CHEMBL3702047
     RDKit          3D

  0  0  0  0  0  0  0  0  0  0999 V3000
M  V30 BEGIN CTAB
M  V30 COUNTS 63 68 0 0 0
M  V30 BEGIN ATOM
M  V30 1 C 3.747124 1.535962 5.210853 0
M  V30 2 C 3.780998 0.042731 5.457161 0
M  V30 3 N 3.997569 -0.723995 4.294335 0
M  V30 4 C 5.263276 -0.654769 3.660589 0
M  V30 5 C 5.065302 -0.843933 2.163924 0
M  V30 6 N 3.651283 -1.131322 1.885401 0
M  V30 7 C 2.770819 -0.435074 1.017411 0
M  V30 8 C 1.405678 -0.597565 0.956377 0
M  V30 9 C 0.656749 0.130632 0.061726 0
M  V30 10 C 1.185954 1.049779 -0.816402 0
M  V30 11 N 0.364385 1.773494 -1.722934 0
M  V30 12 C -1.026192 1.498541 -1.633122 0
M  V30 13 N -1.731816 2.575323 -1.232479 0
M  V30 14 C -3.077609 2.473228 -1.088130 0
M  V30 15 C -3.755589 1.297749 -1.338100 0
M  V30 16 C -5.041798 0.799768 -1.311336 0
M  V30 17 C -6.191193 1.516874 -0.956916 0
M  V30 18 C -7.397250 0.812561 -0.999744 0
M  V30 19 N -7.412359 -0.490914 -1.368705 0
M  V30 20 C -6.295466 -1.165782 -1.706989 0
M  V30 21 C -5.061958 -0.532254 -1.688127 0
M  V30 22 N -3.766876 -0.871549 -1.954635 0
M  V30 23 C -3.431323 -2.213420 -2.373551 0
M  V30 24 C -2.961763 -3.056135 -1.184329 0
M  V30 25 C -2.493262 -4.299940 -1.908983 0
M  V30 26 C -1.794346 -3.757584 -3.129540 0
M  V30 27 C -2.241457 -2.304448 -3.280866 0
M  V30 28 C -3.005008 0.215196 -1.745926 0
M  V30 29 N -1.686734 0.379157 -1.869560 0
M  V30 30 N 2.520754 1.175902 -0.721435 0
M  V30 31 C 3.292866 0.487801 0.135416 0
M  V30 32 C 3.252574 -2.293916 2.655636 0
M  V30 33 C 3.242639 -1.909258 4.112017 0
M  V30 34 H 2.955587 1.798459 4.460630 0
M  V30 35 H 3.410125 1.986547 6.172568 0
M  V30 36 H 4.730253 1.950072 4.975448 0
M  V30 37 H 2.801767 -0.227375 5.910146 0
M  V30 38 H 4.541905 -0.145167 6.261458 0
M  V30 39 H 5.875293 -1.502585 4.022279 0
M  V30 40 H 5.808207 0.290008 3.839178 0
M  V30 41 H 5.348139 0.049293 1.600809 0
M  V30 42 H 5.639075 -1.732305 1.845762 0
M  V30 43 H 0.953045 -1.297665 1.614795 0
M  V30 44 H -0.412376 -0.061968 0.084740 0
M  V30 45 H 0.863900 2.423883 -2.348821 0
M  V30 46 H -3.743321 3.287695 -0.769392 0
M  V30 47 H -6.143796 2.556590 -0.666664 0
M  V30 48 H -8.319743 1.328000 -0.735007 0
M  V30 49 H -6.328823 -2.212251 -2.000616 0
M  V30 50 H -4.282224 -2.747548 -2.816737 0
M  V30 51 H -3.779535 -3.251173 -0.480823 0
M  V30 52 H -2.064293 -2.615385 -0.691664 0
M  V30 53 H -3.394915 -4.868043 -2.281134 0
M  V30 54 H -1.832031 -4.926591 -1.284924 0
M  V30 55 H -2.100700 -4.271639 -4.071242 0
M  V30 56 H -0.699954 -3.839449 -2.944762 0
M  V30 57 H -2.475227 -2.070787 -4.338200 0
M  V30 58 H -1.384520 -1.706617 -2.915777 0
M  V30 59 H 4.329512 0.760435 0.023242 0
M  V30 60 H 2.237373 -2.663469 2.378622 0
M  V30 61 H 3.975735 -3.113322 2.457330 0
M  V30 62 H 2.216242 -1.867505 4.477517 0
M  V30 63 H 3.793863 -2.725545 4.662495 0
M  V30 END ATOM
M  V30 BEGIN BOND
M  V30 1 1 1 2
M  V30 2 1 2 3
M  V30 3 1 3 4
M  V30 4 1 4 5
M  V30 5 1 5 6
M  V30 6 1 6 7
M  V30 7 2 7 8
M  V30 8 1 8 9
M  V30 9 2 9 10
M  V30 10 1 10 11
M  V30 11 1 11 12
M  V30 12 2 12 13
M  V30 13 1 13 14
M  V30 14 2 14 15
M  V30 15 1 15 16
M  V30 16 2 16 17
M  V30 17 1 17 18
M  V30 18 2 18 19
M  V30 19 1 19 20
M  V30 20 2 20 21
M  V30 21 1 21 22
M  V30 22 1 22 23
M  V30 23 1 23 24
M  V30 24 1 24 25
M  V30 25 1 25 26
M  V30 26 1 26 27
M  V30 27 1 22 28
M  V30 28 2 28 29
M  V30 29 1 10 30
M  V30 30 2 30 31
M  V30 31 1 6 32
M  V30 32 1 32 33
M  V30 33 1 33 3
M  V30 34 1 31 7
M  V30 35 1 29 12
M  V30 36 1 28 15
M  V30 37 1 21 16
M  V30 38 1 27 23
M  V30 39 1 1 34
M  V30 40 1 1 35
M  V30 41 1 1 36
M  V30 42 1 2 37
M  V30 43 1 2 38
M  V30 44 1 4 39
M  V30 45 1 4 40
M  V30 46 1 5 41
M  V30 47 1 5 42
M  V30 48 1 8 43
M  V30 49 1 9 44
M  V30 50 1 11 45
M  V30 51 1 14 46
M  V30 52 1 17 47
M  V30 53 1 18 48
M  V30 54 1 20 49
M  V30 55 1 23 50
M  V30 56 1 24 51
M  V30 57 1 24 52
M  V30 58 1 25 53
M  V30 59 1 25 54
M  V30 60 1 26 55
M  V30 61 1 26 56
M  V30 62 1 27 57
M  V30 63 1 27 58
M  V30 64 1 31 59
M  V30 65 1 32 60
M  V30 66 1 32 61
M  V30 67 1 33 62
M  V30 68 1 33 63
M  V30 END BOND
M  V30 END CTAB
M  END
>  <Dataset>  (306) 
ChEMBL_Kinases

>  <Ligand_Instance>  (306) 
nan

>  <PDB_ID>  (306) 
nan

>  <Standardized_SMILES>  (306) 
CCN1CCN(c2ccc(Nc3ncc4c5ccncc5n(C5CCCC5)c4n3)nc2)CC1

>  <Name>  (306) 
nan

>  <Pocket>  (306) 
nan

>  <ATP_Site>  (306) 
nan

>  <Peripheral>  (306) 
nan

>  <Num_H_Atoms_ProtBoundConf>  (306) 
nan

>  <Num_Resolved_Atoms>  (306) 
nan

>  <Num_Not_Resolved_Atoms>  (306) 
nan

$$$$
CHEMBL3702045
     RDKit          3D

  0  0  0  0  0  0  0  0  0  0999 V3000
M  V30 BEGIN CTAB
M  V30 COUNTS 62 67 0 0 0
M  V30 BEGIN ATOM
M  V30 1 C 3.112750 0.811304 4.873343 0
M  V30 2 C 3.706060 -0.388701 5.555579 0
M  V30 3 N 4.155385 -1.426941 4.684424 0
M  V30 4 C 5.274408 -1.157830 3.867518 0
M  V30 5 C 5.030714 -1.151789 2.379495 0
M  V30 6 N 3.627662 -1.188758 2.052838 0
M  V30 7 C 2.846021 -0.298888 1.268904 0
M  V30 8 C 3.358461 0.739731 0.528473 0
M  V30 9 C 2.444621 1.499741 -0.170769 0
M  V30 10 C 1.082670 1.293590 -0.177238 0
M  V30 11 N 0.156103 2.074302 -0.917140 0
M  V30 12 C -1.235505 1.736560 -0.784658 0
M  V30 13 N -2.062980 2.452092 0.000029 0
M  V30 14 C -3.369638 2.099461 0.113640 0
M  V30 15 C -3.888686 1.003174 -0.566624 0
M  V30 16 C -5.093683 0.355471 -0.703153 0
M  V30 17 C -6.311043 0.681369 -0.101750 0
M  V30 18 C -7.414138 -0.124841 -0.389755 0
M  V30 19 N -7.251253 -1.180377 -1.235448 0
M  V30 20 C -6.071346 -1.443083 -1.778324 0
M  V30 21 C -4.917150 -0.715871 -1.564781 0
M  V30 22 N -3.625099 -0.756107 -1.973744 0
M  V30 23 C -3.164432 -1.768614 -2.863173 0
M  V30 24 C -3.185072 -3.155552 -2.322145 0
M  V30 25 C -2.174411 -3.863542 -3.205419 0
M  V30 26 C -1.141745 -2.872271 -3.606994 0
M  V30 27 C -1.657396 -1.563995 -3.054024 0
M  V30 28 C -3.037504 0.287860 -1.357661 0
M  V30 29 N -1.755672 0.697800 -1.421125 0
M  V30 30 N 0.686287 0.239161 0.590774 0
M  V30 31 N 1.520185 -0.517608 1.277354 0
M  V30 32 C 3.078736 -2.361340 2.676410 0
M  V30 33 C 3.126896 -2.265637 4.162814 0
M  V30 34 H 2.485667 1.345903 5.642370 0
M  V30 35 H 3.905299 1.567690 4.604599 0
M  V30 36 H 2.430003 0.577887 4.050955 0
M  V30 37 H 4.547945 -0.063089 6.194078 0
M  V30 38 H 2.908434 -0.811539 6.206000 0
M  V30 39 H 6.070463 -1.904784 4.078431 0
M  V30 40 H 5.697649 -0.179733 4.151946 0
M  V30 41 H 5.501052 -2.043351 1.890709 0
M  V30 42 H 5.568968 -0.285201 1.914763 0
M  V30 43 H 4.408527 0.904678 0.529587 0
M  V30 44 H 2.847957 2.320635 -0.756935 0
M  V30 45 H 0.579446 2.832072 -1.496194 0
M  V30 46 H -4.082308 2.635015 0.726718 0
M  V30 47 H -6.384490 1.529375 0.560987 0
M  V30 48 H -8.349081 0.166306 0.102830 0
M  V30 49 H -6.031340 -2.299837 -2.439368 0
M  V30 50 H -3.615873 -1.785523 -3.860096 0
M  V30 51 H -4.122661 -3.724626 -2.490957 0
M  V30 52 H -2.821691 -3.226287 -1.276567 0
M  V30 53 H -2.683818 -4.175934 -4.156201 0
M  V30 54 H -1.761815 -4.764634 -2.707346 0
M  V30 55 H -0.985593 -2.779115 -4.700263 0
M  V30 56 H -0.162818 -3.168655 -3.131713 0
M  V30 57 H -1.431952 -0.695055 -3.672974 0
M  V30 58 H -1.220618 -1.521992 -2.015897 0
M  V30 59 H 2.002485 -2.518598 2.399343 0
M  V30 60 H 3.634205 -3.274848 2.350766 0
M  V30 61 H 2.121153 -1.955400 4.575434 0
M  V30 62 H 3.293414 -3.293471 4.571034 0
M  V30 END ATOM
M  V30 BEGIN BOND
M  V30 1 1 1 2
M  V30 2 1 2 3
M  V30 3 1 3 4
M  V30 4 1 4 5
M  V30 5 1 5 6
M  V30 6 1 6 7
M  V30 7 2 7 8
M  V30 8 1 8 9
M  V30 9 2 9 10
M  V30 10 1 10 11
M  V30 11 1 11 12
M  V30 12 2 12 13
M  V30 13 1 13 14
M  V30 14 2 14 15
M  V30 15 1 15 16
M  V30 16 2 16 17
M  V30 17 1 17 18
M  V30 18 2 18 19
M  V30 19 1 19 20
M  V30 20 2 20 21
M  V30 21 1 21 22
M  V30 22 1 22 23
M  V30 23 1 23 24
M  V30 24 1 24 25
M  V30 25 1 25 26
M  V30 26 1 26 27
M  V30 27 1 22 28
M  V30 28 2 28 29
M  V30 29 1 10 30
M  V30 30 2 30 31
M  V30 31 1 6 32
M  V30 32 1 32 33
M  V30 33 1 33 3
M  V30 34 1 31 7
M  V30 35 1 29 12
M  V30 36 1 28 15
M  V30 37 1 21 16
M  V30 38 1 27 23
M  V30 39 1 1 34
M  V30 40 1 1 35
M  V30 41 1 1 36
M  V30 42 1 2 37
M  V30 43 1 2 38
M  V30 44 1 4 39
M  V30 45 1 4 40
M  V30 46 1 5 41
M  V30 47 1 5 42
M  V30 48 1 8 43
M  V30 49 1 9 44
M  V30 50 1 11 45
M  V30 51 1 14 46
M  V30 52 1 17 47
M  V30 53 1 18 48
M  V30 54 1 20 49
M  V30 55 1 23 50
M  V30 56 1 24 51
M  V30 57 1 24 52
M  V30 58 1 25 53
M  V30 59 1 25 54
M  V30 60 1 26 55
M  V30 61 1 26 56
M  V30 62 1 27 57
M  V30 63 1 27 58
M  V30 64 1 32 59
M  V30 65 1 32 60
M  V30 66 1 33 61
M  V30 67 1 33 62
M  V30 END BOND
M  V30 END CTAB
M  END
>  <Dataset>  (307) 
ChEMBL_Kinases

>  <Ligand_Instance>  (307) 
nan

>  <PDB_ID>  (307) 
nan

>  <Standardized_SMILES>  (307) 
CCN1CCN(c2ccc(Nc3ncc4c5ccncc5n(C5CCCC5)c4n3)nn2)CC1

>  <Name>  (307) 
nan

>  <Pocket>  (307) 
nan

>  <ATP_Site>  (307) 
nan

>  <Peripheral>  (307) 
nan

>  <Num_H_Atoms_ProtBoundConf>  (307) 
nan

>  <Num_Resolved_Atoms>  (307) 
nan

>  <Num_Not_Resolved_Atoms>  (307) 
nan

$$$$
CHEMBL3687454
     RDKit          3D

  0  0  0  0  0  0  0  0  0  0999 V3000
M  V30 BEGIN CTAB
M  V30 COUNTS 65 68 0 0 0
M  V30 BEGIN ATOM
M  V30 1 C 4.145065 -1.988357 2.234581 0
M  V30 2 C 2.843249 -1.261426 2.181332 0 CFG=1
M  V30 3 C 2.646920 -0.438593 0.939081 0
M  V30 4 C 1.945513 -1.263743 -0.100113 0 CFG=1
M  V30 5 C 2.292861 -0.846153 -1.480696 0
M  V30 6 C 3.353892 -1.362323 -2.194235 0
M  V30 7 C 3.689890 -0.984476 -3.477085 0
M  V30 8 N 2.923437 -0.043148 -4.071501 0
M  V30 9 C 1.875610 0.517277 -3.465747 0
M  V30 10 C 1.568187 0.116121 -2.183876 0
M  V30 11 N 0.445303 0.732115 -1.567268 0
M  V30 12 C 0.219860 1.880735 -0.762486 0
M  V30 13 O 1.166794 2.639851 -0.432873 0
M  V30 14 C -1.170772 2.075432 -0.376472 0
M  V30 15 C -1.423302 3.182424 0.405607 0
M  V30 16 C -2.710701 3.449967 0.820972 0
M  V30 17 C -3.732687 2.620950 0.458769 0
M  V30 18 F -5.051133 2.739505 0.780934 0
M  V30 19 C -3.466513 1.531268 -0.314272 0
M  V30 20 C -4.378768 0.496213 -0.833346 0
M  V30 21 C -4.984898 0.681447 -2.073727 0
M  V30 22 F -4.752436 1.795245 -2.812701 0
M  V30 23 C -5.840397 -0.280395 -2.569914 0
M  V30 24 C -6.122181 -1.447670 -1.861092 0
M  V30 25 C -5.496396 -1.575711 -0.645256 0
M  V30 26 C -4.625521 -0.643625 -0.091994 0
M  V30 27 F -4.053175 -0.855015 1.116582 0
M  V30 28 N -2.212671 1.265754 -0.722089 0
M  V30 29 C 2.226326 -2.753953 0.040690 0
M  V30 30 C 1.627269 -3.293207 1.327232 0 CFG=1
M  V30 31 N 2.223116 -4.550847 1.709913 0
M  V30 32 C 1.719747 -2.249928 2.394356 0 CFG=2
M  V30 33 O 0.507251 -1.584431 2.498353 0
M  V30 34 C -0.110268 -1.771222 3.710256 0
M  V30 35 C -1.433542 -1.035551 3.804254 0
M  V30 36 C -1.248397 0.424727 3.631344 0
M  V30 37 O -0.019499 0.687046 3.446082 0
M  V30 38 O -1.127801 1.797949 3.475654 0
M  V30 39 H 4.825684 -1.738031 1.388672 0
M  V30 40 H 3.994668 -3.084251 2.316374 0
M  V30 41 H 4.728847 -1.723634 3.163946 0
M  V30 42 H 2.794510 -0.565646 3.047583 0
M  V30 43 H 3.598293 -0.004862 0.564107 0
M  V30 44 H 2.004613 0.438920 1.163655 0
M  V30 45 H 0.836447 -1.145298 0.072966 0
M  V30 46 H 3.977679 -2.106327 -1.752660 0
M  V30 47 H 4.544602 -1.427575 -3.998818 0
M  V30 48 H 1.277028 1.272168 -3.968448 0
M  V30 49 H -0.324786 0.069487 -1.865246 0
M  V30 50 H -0.627796 3.861375 0.709782 0
M  V30 51 H -2.994195 4.301319 1.439020 0
M  V30 52 H -6.324696 -0.158744 -3.534178 0
M  V30 53 H -6.790249 -2.196024 -2.251673 0
M  V30 54 H -5.736538 -2.497883 -0.115466 0
M  V30 55 H 1.730713 -3.244117 -0.824028 0
M  V30 56 H 3.302849 -2.964222 -0.034370 0
M  V30 57 H 0.554851 -3.514154 1.151868 0
M  V30 58 H 2.858268 -4.962935 0.993586 0
M  V30 59 H 1.514433 -5.236118 2.073453 0
M  V30 60 H 1.883701 -2.782217 3.353229 0
M  V30 61 H 0.564408 -1.487233 4.553648 0
M  V30 62 H -0.334524 -2.846195 3.828686 0
M  V30 63 H -1.938781 -1.237834 4.767133 0
M  V30 64 H -2.079552 -1.409679 2.985925 0
M  V30 65 H -1.980771 2.377653 3.436794 0
M  V30 END ATOM
M  V30 BEGIN BOND
M  V30 1 1 1 2
M  V30 2 1 2 3
M  V30 3 1 3 4
M  V30 4 1 4 5
M  V30 5 2 5 6
M  V30 6 1 6 7
M  V30 7 2 7 8
M  V30 8 1 8 9
M  V30 9 2 9 10
M  V30 10 1 10 11
M  V30 11 1 11 12
M  V30 12 2 12 13
M  V30 13 1 12 14
M  V30 14 2 14 15
M  V30 15 1 15 16
M  V30 16 2 16 17
M  V30 17 1 17 18
M  V30 18 1 17 19
M  V30 19 1 19 20
M  V30 20 2 20 21
M  V30 21 1 21 22
M  V30 22 1 21 23
M  V30 23 2 23 24
M  V30 24 1 24 25
M  V30 25 2 25 26
M  V30 26 1 26 27
M  V30 27 2 19 28
M  V30 28 1 4 29
M  V30 29 1 29 30
M  V30 30 1 30 31
M  V30 31 1 30 32
M  V30 32 1 32 33
M  V30 33 1 33 34
M  V30 34 1 34 35
M  V30 35 1 35 36
M  V30 36 2 36 37
M  V30 37 1 36 38
M  V30 38 1 32 2
M  V30 39 1 10 5
M  V30 40 1 28 14
M  V30 41 1 26 20
M  V30 42 1 1 39
M  V30 43 1 1 40
M  V30 44 1 1 41
M  V30 45 1 2 42 CFG=1
M  V30 46 1 3 43
M  V30 47 1 3 44
M  V30 48 1 4 45 CFG=1
M  V30 49 1 6 46
M  V30 50 1 7 47
M  V30 51 1 9 48
M  V30 52 1 11 49
M  V30 53 1 15 50
M  V30 54 1 16 51
M  V30 55 1 23 52
M  V30 56 1 24 53
M  V30 57 1 25 54
M  V30 58 1 29 55
M  V30 59 1 29 56
M  V30 60 1 30 57 CFG=3
M  V30 61 1 31 58
M  V30 62 1 31 59
M  V30 63 1 32 60 CFG=1
M  V30 64 1 34 61
M  V30 65 1 34 62
M  V30 66 1 35 63
M  V30 67 1 35 64
M  V30 68 1 38 65
M  V30 END BOND
M  V30 END CTAB
M  END
>  <Dataset>  (308) 
ChEMBL_Kinases

>  <Ligand_Instance>  (308) 
nan

>  <PDB_ID>  (308) 
nan

>  <Standardized_SMILES>  (308) 
C[C@H]1C[C@@H](c2ccncc2NC(=O)c2ccc(F)c(-c3c(F)cccc3F)n2)C[C@@H](N)[C@@H]1OCCC(=O)O

>  <Name>  (308) 
nan

>  <Pocket>  (308) 
nan

>  <ATP_Site>  (308) 
nan

>  <Peripheral>  (308) 
nan

>  <Num_H_Atoms_ProtBoundConf>  (308) 
nan

>  <Num_Resolved_Atoms>  (308) 
nan

>  <Num_Not_Resolved_Atoms>  (308) 
nan

$$$$
CHEMBL259850
     RDKit          3D

  0  0  0  0  0  0  0  0  0  0999 V3000
M  V30 BEGIN CTAB
M  V30 COUNTS 33 34 0 0 0
M  V30 BEGIN ATOM
M  V30 1 C -1.241207 -3.500233 4.122113 0
M  V30 2 O -1.547850 -3.473281 2.749130 0
M  V30 3 C -0.594401 -3.161793 1.778738 0
M  V30 4 C -1.174090 -3.211121 0.512208 0
M  V30 5 C -0.421515 -2.937170 -0.626054 0
M  V30 6 C 0.914160 -2.614408 -0.479603 0
M  V30 7 C 1.858205 -2.297378 -1.554899 0
M  V30 8 N 1.915099 -0.897684 -1.886167 0
M  V30 9 C 1.088689 0.033272 -1.178027 0
M  V30 10 O 0.307220 -0.291179 -0.275857 0
M  V30 11 N 1.170054 1.389846 -1.527285 0
M  V30 12 C 0.372545 2.397812 -0.865096 0
M  V30 13 N 0.234680 3.609209 -0.950881 0
M  V30 14 C -0.592358 4.300385 -0.195797 0
M  V30 15 C -1.335675 3.621232 0.733917 0
M  V30 16 N -2.306909 4.057451 1.693115 0 CHG=1 VAL=4
M  V30 17 O -2.508692 5.266370 1.676462 0
M  V30 18 O -2.878922 3.089836 2.494494 0 CHG=-1 VAL=1
M  V30 19 S -0.784609 1.948493 0.464854 0
M  V30 20 C 1.471888 -2.570246 0.782681 0
M  V30 21 C 0.739693 -2.839093 1.920772 0
M  V30 22 H -0.802059 -4.461342 4.462378 0
M  V30 23 H -0.474188 -2.697186 4.281524 0
M  V30 24 H -2.096600 -3.201389 4.765763 0
M  V30 25 H -2.201258 -3.449289 0.266364 0
M  V30 26 H -0.804993 -2.956680 -1.637777 0
M  V30 27 H 1.532663 -2.823222 -2.489573 0
M  V30 28 H 2.879209 -2.678347 -1.344292 0
M  V30 29 H 2.560945 -0.610730 -2.635381 0
M  V30 30 H 1.777414 1.765657 -2.252322 0
M  V30 31 H -0.683904 5.373388 -0.304626 0
M  V30 32 H 2.511559 -2.326412 0.994826 0
M  V30 33 H 1.056188 -2.836840 2.939405 0
M  V30 END ATOM
M  V30 BEGIN BOND
M  V30 1 1 1 2
M  V30 2 1 2 3
M  V30 3 2 3 4
M  V30 4 1 4 5
M  V30 5 2 5 6
M  V30 6 1 6 7
M  V30 7 1 7 8
M  V30 8 1 8 9
M  V30 9 2 9 10
M  V30 10 1 9 11
M  V30 11 1 11 12
M  V30 12 2 12 13
M  V30 13 1 13 14
M  V30 14 2 14 15
M  V30 15 1 15 16
M  V30 16 2 16 17
M  V30 17 1 16 18
M  V30 18 1 15 19
M  V30 19 1 6 20
M  V30 20 2 20 21
M  V30 21 1 21 3
M  V30 22 1 19 12
M  V30 23 1 1 22
M  V30 24 1 1 23
M  V30 25 1 1 24
M  V30 26 1 4 25
M  V30 27 1 5 26
M  V30 28 1 7 27
M  V30 29 1 7 28
M  V30 30 1 8 29
M  V30 31 1 11 30
M  V30 32 1 14 31
M  V30 33 1 20 32
M  V30 34 1 21 33
M  V30 END BOND
M  V30 END CTAB
M  END
>  <Dataset>  (309) 
ChEMBL_Kinases

>  <Ligand_Instance>  (309) 
nan

>  <PDB_ID>  (309) 
nan

>  <Standardized_SMILES>  (309) 
COc1ccc(CNC(=O)Nc2ncc([N+](=O)[O-])s2)cc1

>  <Name>  (309) 
nan

>  <Pocket>  (309) 
nan

>  <ATP_Site>  (309) 
nan

>  <Peripheral>  (309) 
nan

>  <Num_H_Atoms_ProtBoundConf>  (309) 
nan

>  <Num_Resolved_Atoms>  (309) 
nan

>  <Num_Not_Resolved_Atoms>  (309) 
nan

$$$$
CHEMBL3687453
     RDKit          3D

  0  0  0  0  0  0  0  0  0  0999 V3000
M  V30 BEGIN CTAB
M  V30 COUNTS 61 65 0 0 0
M  V30 BEGIN ATOM
M  V30 1 C 3.879990 -1.397441 1.441256 0
M  V30 2 C 3.117425 -0.073530 1.283259 0 CFG=2
M  V30 3 C 1.870288 -0.251828 2.108664 0
M  V30 4 C 0.971313 0.909261 1.741376 0 CFG=2
M  V30 5 C 0.033106 1.168418 2.796081 0
M  V30 6 C 0.324230 2.096485 3.806829 0
M  V30 7 C -0.537638 2.396799 4.844595 0
M  V30 8 N -1.752329 1.784723 4.938153 0
M  V30 9 C -2.093763 0.870296 3.983191 0
M  V30 10 C -1.191031 0.614768 2.974516 0
M  V30 11 N -1.669220 -0.355437 2.050155 0
M  V30 12 C -1.387426 -1.739356 2.360098 0
M  V30 13 O -0.755101 -2.073269 3.388523 0
M  V30 14 C -1.896108 -2.722900 1.382136 0
M  V30 15 C -1.666100 -4.077101 1.606057 0
M  V30 16 C -2.123793 -5.018910 0.718265 0
M  V30 17 C -2.818473 -4.639293 -0.409282 0
M  V30 18 F -3.345330 -5.407779 -1.392882 0
M  V30 19 C -3.031319 -3.287421 -0.604527 0
M  V30 20 C -3.735454 -2.605797 -1.711046 0
M  V30 21 C -3.150535 -2.171560 -2.866602 0
M  V30 22 F -1.827570 -2.378798 -3.014306 0
M  V30 23 C -3.934853 -1.553491 -3.805263 0
M  V30 24 C -5.285580 -1.364532 -3.607141 0
M  V30 25 C -5.861860 -1.812193 -2.427580 0
M  V30 26 C -5.088246 -2.436693 -1.470936 0
M  V30 27 F -5.736639 -2.841068 -0.350001 0
M  V30 28 N -2.580975 -2.368208 0.268160 0
M  V30 29 C 0.475658 0.645991 0.369023 0
M  V30 30 C 1.616633 0.772613 -0.605420 0 CFG=2
M  V30 31 N 1.194913 0.035827 -1.793637 0
M  V30 32 C 2.932935 0.302534 -0.127450 0
M  V30 33 O 3.874721 1.320475 -0.411334 0
M  V30 34 C 5.074342 0.706013 -0.661885 0
M  V30 35 C 4.666834 -0.598375 -1.252040 0
M  V30 36 O 3.340712 -0.788190 -0.908002 0
M  V30 37 H 3.641243 -2.109001 0.615810 0
M  V30 38 H 3.627224 -1.886266 2.420939 0
M  V30 39 H 4.970184 -1.257337 1.460156 0
M  V30 40 H 3.761347 0.657525 1.855473 0
M  V30 41 H 2.170262 -0.229206 3.180483 0
M  V30 42 H 1.412594 -1.226640 1.840478 0
M  V30 43 H 1.658570 1.809317 1.667623 0
M  V30 44 H 1.276754 2.647840 3.827694 0
M  V30 45 H -0.269091 3.120593 5.601888 0
M  V30 46 H -3.055517 0.412411 4.092764 0
M  V30 47 H -2.205545 -0.088134 1.176323 0
M  V30 48 H -1.122212 -4.429399 2.482373 0
M  V30 49 H -1.995978 -6.096484 0.803576 0
M  V30 50 H -3.490852 -1.198496 -4.734725 0
M  V30 51 H -5.845408 -0.867722 -4.392065 0
M  V30 52 H -6.933653 -1.647193 -2.301651 0
M  V30 53 H 0.112734 -0.399041 0.307562 0
M  V30 54 H -0.354768 1.305004 0.040417 0
M  V30 55 H 1.627321 1.838726 -0.919492 0
M  V30 56 H 0.606090 0.607644 -2.422994 0
M  V30 57 H 1.977977 -0.353027 -2.337801 0
M  V30 58 H 5.633384 1.335800 -1.414283 0
M  V30 59 H 5.741543 0.644999 0.220027 0
M  V30 60 H 4.771230 -0.523702 -2.371621 0
M  V30 61 H 5.352995 -1.389860 -0.904529 0
M  V30 END ATOM
M  V30 BEGIN BOND
M  V30 1 1 1 2
M  V30 2 1 2 3
M  V30 3 1 3 4
M  V30 4 1 4 5
M  V30 5 2 5 6
M  V30 6 1 6 7
M  V30 7 2 7 8
M  V30 8 1 8 9
M  V30 9 2 9 10
M  V30 10 1 10 11
M  V30 11 1 11 12
M  V30 12 2 12 13
M  V30 13 1 12 14
M  V30 14 2 14 15
M  V30 15 1 15 16
M  V30 16 2 16 17
M  V30 17 1 17 18
M  V30 18 1 17 19
M  V30 19 1 19 20
M  V30 20 2 20 21
M  V30 21 1 21 22
M  V30 22 1 21 23
M  V30 23 2 23 24
M  V30 24 1 24 25
M  V30 25 2 25 26
M  V30 26 1 26 27
M  V30 27 2 19 28
M  V30 28 1 4 29
M  V30 29 1 29 30
M  V30 30 1 30 31
M  V30 31 1 30 32
M  V30 32 1 32 33
M  V30 33 1 33 34
M  V30 34 1 34 35
M  V30 35 1 35 36
M  V30 36 1 32 2
M  V30 37 1 10 5
M  V30 38 1 28 14
M  V30 39 1 36 32
M  V30 40 1 26 20
M  V30 41 1 1 37
M  V30 42 1 1 38
M  V30 43 1 1 39
M  V30 44 1 2 40 CFG=1
M  V30 45 1 3 41
M  V30 46 1 3 42
M  V30 47 1 4 43 CFG=3
M  V30 48 1 6 44
M  V30 49 1 7 45
M  V30 50 1 9 46
M  V30 51 1 11 47
M  V30 52 1 15 48
M  V30 53 1 16 49
M  V30 54 1 23 50
M  V30 55 1 24 51
M  V30 56 1 25 52
M  V30 57 1 29 53
M  V30 58 1 29 54
M  V30 59 1 30 55 CFG=3
M  V30 60 1 31 56
M  V30 61 1 31 57
M  V30 62 1 34 58
M  V30 63 1 34 59
M  V30 64 1 35 60
M  V30 65 1 35 61
M  V30 END BOND
M  V30 END CTAB
M  END
>  <Dataset>  (310) 
ChEMBL_Kinases

>  <Ligand_Instance>  (310) 
nan

>  <PDB_ID>  (310) 
nan

>  <Standardized_SMILES>  (310) 
C[C@@H]1C[C@H](c2ccncc2NC(=O)c2ccc(F)c(-c3c(F)cccc3F)n2)C[C@H](N)C12OCCO2

>  <Name>  (310) 
nan

>  <Pocket>  (310) 
nan

>  <ATP_Site>  (310) 
nan

>  <Peripheral>  (310) 
nan

>  <Num_H_Atoms_ProtBoundConf>  (310) 
nan

>  <Num_Resolved_Atoms>  (310) 
nan

>  <Num_Not_Resolved_Atoms>  (310) 
nan

$$$$
CHEMBL3687452
     RDKit          3D

  0  0  0  0  0  0  0  0  0  0999 V3000
M  V30 BEGIN CTAB
M  V30 COUNTS 61 65 0 0 0
M  V30 BEGIN ATOM
M  V30 1 C 4.335476 -1.423223 1.709380 0
M  V30 2 C 2.855170 -1.199870 1.486450 0 CFG=1
M  V30 3 C 2.564192 -0.082652 0.557711 0
M  V30 4 C 2.019565 -0.586745 -0.762552 0 CFG=1
M  V30 5 C 1.969938 0.498713 -1.779170 0
M  V30 6 C 3.001945 0.801391 -2.648317 0
M  V30 7 C 2.884400 1.823085 -3.565561 0
M  V30 8 N 1.778055 2.564558 -3.659458 0
M  V30 9 C 0.757964 2.286089 -2.820274 0
M  V30 10 C 0.808970 1.263610 -1.865008 0
M  V30 11 N -0.343285 1.059133 -1.022933 0
M  V30 12 C -1.226237 0.136772 -1.628906 0
M  V30 13 O -0.830375 -0.300473 -2.747601 0
M  V30 14 C -2.487829 -0.284005 -1.028594 0
M  V30 15 C -3.257974 -1.192387 -1.727183 0
M  V30 16 C -4.477213 -1.670075 -1.263225 0
M  V30 17 C -4.968190 -1.236304 -0.052878 0
M  V30 18 F -6.137114 -1.646324 0.470345 0
M  V30 19 C -4.162333 -0.322658 0.617859 0
M  V30 20 C -4.616005 0.184407 1.910054 0
M  V30 21 C -5.389329 1.327076 1.914765 0
M  V30 22 F -5.701426 1.936003 0.749552 0
M  V30 23 C -5.852821 1.862509 3.097464 0
M  V30 24 C -5.573269 1.293739 4.325258 0
M  V30 25 C -4.799752 0.152683 4.305588 0
M  V30 26 C -4.325711 -0.398289 3.122427 0
M  V30 27 F -3.573659 -1.506832 3.096531 0
M  V30 28 N -2.968823 0.138301 0.152816 0
M  V30 29 C 2.932714 -1.717472 -1.173427 0
M  V30 30 C 2.508581 -2.903085 -0.322576 0 CFG=1
M  V30 31 N 3.568047 -3.883637 -0.410251 0
M  V30 32 C 2.248288 -2.524929 1.095877 0
M  V30 33 O 2.837680 -3.484747 1.916925 0
M  V30 34 C 1.880055 -4.031771 2.726209 0
M  V30 35 C 0.759894 -3.040066 2.678177 0
M  V30 36 O 0.900245 -2.478558 1.418093 0
M  V30 37 H 4.955588 -0.594451 1.296511 0
M  V30 38 H 4.712890 -2.356787 1.232888 0
M  V30 39 H 4.514626 -1.529453 2.809562 0
M  V30 40 H 2.365409 -0.939204 2.470485 0
M  V30 41 H 3.536900 0.415684 0.317096 0
M  V30 42 H 1.932130 0.718409 0.988994 0
M  V30 43 H 1.003582 -0.953702 -0.620832 0
M  V30 44 H 3.901969 0.207145 -2.580537 0
M  V30 45 H 3.715996 2.035635 -4.235767 0
M  V30 46 H -0.154712 2.897793 -2.897744 0
M  V30 47 H -0.598854 1.471124 -0.088728 0
M  V30 48 H -2.946412 -1.586440 -2.689414 0
M  V30 49 H -5.071613 -2.388797 -1.831201 0
M  V30 50 H -6.456191 2.754296 3.099661 0
M  V30 51 H -5.920335 1.687072 5.271182 0
M  V30 52 H -4.554580 -0.328006 5.239325 0
M  V30 53 H 2.938339 -1.952650 -2.230437 0
M  V30 54 H 3.965171 -1.456343 -0.865322 0
M  V30 55 H 1.565753 -3.293348 -0.759211 0
M  V30 56 H 3.584647 -4.389659 -1.321505 0
M  V30 57 H 3.595524 -4.527279 0.409241 0
M  V30 58 H 1.565818 -5.061564 2.471489 0
M  V30 59 H 2.277375 -4.045515 3.775180 0
M  V30 60 H 0.819697 -2.275168 3.484237 0
M  V30 61 H -0.196367 -3.583374 2.816707 0
M  V30 END ATOM
M  V30 BEGIN BOND
M  V30 1 1 1 2
M  V30 2 1 2 3
M  V30 3 1 3 4
M  V30 4 1 4 5
M  V30 5 2 5 6
M  V30 6 1 6 7
M  V30 7 2 7 8
M  V30 8 1 8 9
M  V30 9 2 9 10
M  V30 10 1 10 11
M  V30 11 1 11 12
M  V30 12 2 12 13
M  V30 13 1 12 14
M  V30 14 2 14 15
M  V30 15 1 15 16
M  V30 16 2 16 17
M  V30 17 1 17 18
M  V30 18 1 17 19
M  V30 19 1 19 20
M  V30 20 2 20 21
M  V30 21 1 21 22
M  V30 22 1 21 23
M  V30 23 2 23 24
M  V30 24 1 24 25
M  V30 25 2 25 26
M  V30 26 1 26 27
M  V30 27 2 19 28
M  V30 28 1 4 29
M  V30 29 1 29 30
M  V30 30 1 30 31
M  V30 31 1 30 32
M  V30 32 1 32 33
M  V30 33 1 33 34
M  V30 34 1 34 35
M  V30 35 1 35 36
M  V30 36 1 32 2
M  V30 37 1 10 5
M  V30 38 1 28 14
M  V30 39 1 36 32
M  V30 40 1 26 20
M  V30 41 1 1 37
M  V30 42 1 1 38
M  V30 43 1 1 39
M  V30 44 1 2 40 CFG=1
M  V30 45 1 3 41
M  V30 46 1 3 42
M  V30 47 1 4 43 CFG=1
M  V30 48 1 6 44
M  V30 49 1 7 45
M  V30 50 1 9 46
M  V30 51 1 11 47
M  V30 52 1 15 48
M  V30 53 1 16 49
M  V30 54 1 23 50
M  V30 55 1 24 51
M  V30 56 1 25 52
M  V30 57 1 29 53
M  V30 58 1 29 54
M  V30 59 1 30 55 CFG=3
M  V30 60 1 31 56
M  V30 61 1 31 57
M  V30 62 1 34 58
M  V30 63 1 34 59
M  V30 64 1 35 60
M  V30 65 1 35 61
M  V30 END BOND
M  V30 END CTAB
M  END
>  <Dataset>  (311) 
ChEMBL_Kinases

>  <Ligand_Instance>  (311) 
nan

>  <PDB_ID>  (311) 
nan

>  <Standardized_SMILES>  (311) 
C[C@H]1C[C@@H](c2ccncc2NC(=O)c2ccc(F)c(-c3c(F)cccc3F)n2)C[C@@H](N)C12OCCO2

>  <Name>  (311) 
nan

>  <Pocket>  (311) 
nan

>  <ATP_Site>  (311) 
nan

>  <Peripheral>  (311) 
nan

>  <Num_H_Atoms_ProtBoundConf>  (311) 
nan

>  <Num_Resolved_Atoms>  (311) 
nan

>  <Num_Not_Resolved_Atoms>  (311) 
nan

$$$$
CHEMBL44
     RDKit          3D

  0  0  0  0  0  0  0  0  0  0999 V3000
M  V30 BEGIN CTAB
M  V30 COUNTS 30 32 0 0 0
M  V30 BEGIN ATOM
M  V30 1 O -0.541991 -2.072071 1.312993 0
M  V30 2 C -0.285952 -0.841251 1.145295 0
M  V30 3 C 0.694192 -0.489508 0.238534 0
M  V30 4 C 1.461954 -1.476108 -0.548417 0
M  V30 5 C 1.912877 -2.557681 0.201949 0
M  V30 6 C 2.648977 -3.537885 -0.469979 0
M  V30 7 C 2.887856 -3.394776 -1.801936 0
M  V30 8 O 3.621654 -4.382921 -2.445178 0
M  V30 9 C 2.443731 -2.323038 -2.556624 0
M  V30 10 C 1.705497 -1.333386 -1.898693 0
M  V30 11 C 0.941736 0.879027 0.087241 0
M  V30 12 O 0.281457 1.782635 0.767351 0
M  V30 13 C -0.653556 1.444232 1.632186 0
M  V30 14 C -1.352900 2.399024 2.352396 0
M  V30 15 C -2.325160 2.004441 3.249085 0
M  V30 16 O -3.073587 2.890229 4.011582 0
M  V30 17 C -2.648093 0.672647 3.473998 0
M  V30 18 C -1.952699 -0.301032 2.756385 0
M  V30 19 O -2.184797 -1.679430 2.892456 0
M  V30 20 C -0.983478 0.110360 1.863591 0
M  V30 21 H 1.718654 -2.663961 1.260625 0
M  V30 22 H 2.993509 -4.375257 0.129884 0
M  V30 23 H 4.607829 -4.494053 -2.298657 0
M  V30 24 H 2.640734 -2.228134 -3.599221 0
M  V30 25 H 1.316877 -0.454208 -2.417455 0
M  V30 26 H 1.727187 1.117953 -0.642006 0
M  V30 27 H -1.148746 3.453562 2.223129 0
M  V30 28 H -2.691983 3.466725 4.761866 0
M  V30 29 H -3.397261 0.325771 4.162335 0
M  V30 30 H -3.161646 -1.959048 2.738190 0
M  V30 END ATOM
M  V30 BEGIN BOND
M  V30 1 2 1 2
M  V30 2 1 2 3
M  V30 3 1 3 4
M  V30 4 2 4 5
M  V30 5 1 5 6
M  V30 6 2 6 7
M  V30 7 1 7 8
M  V30 8 1 7 9
M  V30 9 2 9 10
M  V30 10 2 3 11
M  V30 11 1 11 12
M  V30 12 1 12 13
M  V30 13 2 13 14
M  V30 14 1 14 15
M  V30 15 1 15 16
M  V30 16 2 15 17
M  V30 17 1 17 18
M  V30 18 1 18 19
M  V30 19 2 18 20
M  V30 20 1 20 2
M  V30 21 1 10 4
M  V30 22 1 20 13
M  V30 23 1 5 21
M  V30 24 1 6 22
M  V30 25 1 8 23
M  V30 26 1 9 24
M  V30 27 1 10 25
M  V30 28 1 11 26
M  V30 29 1 14 27
M  V30 30 1 16 28
M  V30 31 1 17 29
M  V30 32 1 19 30
M  V30 END BOND
M  V30 END CTAB
M  END
>  <Dataset>  (312) 
ChEMBL_Kinases

>  <Ligand_Instance>  (312) 
nan

>  <PDB_ID>  (312) 
nan

>  <Standardized_SMILES>  (312) 
O=c1c(-c2ccc(O)cc2)coc2cc(O)cc(O)c12

>  <Name>  (312) 
GENISTEIN

>  <Pocket>  (312) 
nan

>  <ATP_Site>  (312) 
nan

>  <Peripheral>  (312) 
nan

>  <Num_H_Atoms_ProtBoundConf>  (312) 
nan

>  <Num_Resolved_Atoms>  (312) 
nan

>  <Num_Not_Resolved_Atoms>  (312) 
nan

$$$$
CHEMBL3687450
     RDKit          3D

  0  0  0  0  0  0  0  0  0  0999 V3000
M  V30 BEGIN CTAB
M  V30 COUNTS 62 65 0 0 0
M  V30 BEGIN ATOM
M  V30 1 C 0.982541 -2.756253 2.911794 0
M  V30 2 C 1.396822 -2.245741 1.574750 0 CFG=1
M  V30 3 C 1.003931 -0.812063 1.299689 0
M  V30 4 C 1.230323 -0.516304 -0.127539 0 CFG=1
M  V30 5 C 1.396011 0.935540 -0.425436 0
M  V30 6 C 2.716892 1.400712 -0.377773 0
M  V30 7 C 3.086978 2.711775 -0.629188 0
M  V30 8 N 2.094643 3.596443 -0.941471 0
M  V30 9 C 0.833670 3.134777 -0.982432 0
M  V30 10 C 0.417647 1.852294 -0.742501 0
M  V30 11 N -0.910026 1.378897 -0.783019 0
M  V30 12 C -2.077440 2.114103 -1.116038 0
M  V30 13 O -2.024451 3.320348 -1.421556 0
M  V30 14 C -3.422402 1.547552 -1.134081 0
M  V30 15 C -4.549634 2.264485 -1.457426 0
M  V30 16 C -5.813983 1.690652 -1.463675 0
M  V30 17 C -5.954418 0.353589 -1.135014 0
M  V30 18 F -7.186810 -0.240732 -1.132053 0
M  V30 19 C -4.813035 -0.358189 -0.811272 0
M  V30 20 C -4.954549 -1.768319 -0.463838 0
M  V30 21 C -5.156792 -1.933197 0.909425 0
M  V30 22 F -5.218263 -0.928417 1.826682 0
M  V30 23 C -5.315408 -3.210263 1.442597 0
M  V30 24 C -5.272934 -4.323308 0.610375 0
M  V30 25 C -5.071914 -4.131906 -0.741537 0
M  V30 26 C -4.912767 -2.874529 -1.287852 0
M  V30 27 F -4.712201 -2.579489 -2.587433 0
M  V30 28 N -3.604200 0.243464 -0.819010 0
M  V30 29 C 2.281741 -1.323281 -0.828907 0
M  V30 30 C 3.218233 -2.110775 -0.007254 0 CFG=1
M  V30 31 N 4.617518 -1.753994 -0.258686 0
M  V30 32 C 2.928346 -2.246688 1.446923 0 CFG=1
M  V30 33 O 3.399209 -1.172608 2.158693 0
M  V30 34 S 4.404151 -1.573125 3.417141 0
M  V30 35 C 4.887030 -0.084892 4.261290 0
M  V30 36 O 5.616137 -2.263796 2.855154 0
M  V30 37 O 3.715720 -2.430691 4.441224 0
M  V30 38 H 1.637825 -3.652926 3.117971 0
M  V30 39 H 1.091061 -2.008768 3.701054 0
M  V30 40 H -0.047856 -3.196813 2.884731 0
M  V30 41 H 0.952580 -2.922549 0.800768 0
M  V30 42 H -0.081226 -0.743643 1.594055 0
M  V30 43 H 1.532667 -0.161228 2.014119 0
M  V30 44 H 0.261945 -0.819988 -0.643391 0
M  V30 45 H 3.579862 0.810970 -0.140276 0
M  V30 46 H 4.100102 3.086227 -0.596802 0
M  V30 47 H 0.128448 3.906418 -1.235512 0
M  V30 48 H -1.189078 0.423875 -0.562627 0
M  V30 49 H -4.454368 3.303817 -1.714611 0
M  V30 50 H -6.673248 2.308235 -1.728533 0
M  V30 51 H -5.475301 -3.413218 2.493869 0
M  V30 52 H -5.393718 -5.335780 0.997441 0
M  V30 53 H -5.029456 -4.965168 -1.441059 0
M  V30 54 H 2.906935 -0.585253 -1.424728 0
M  V30 55 H 1.816553 -1.942182 -1.661458 0
M  V30 56 H 3.167409 -3.178502 -0.410892 0
M  V30 57 H 4.699374 -1.636523 -1.294187 0
M  V30 58 H 5.255312 -2.498831 0.074752 0
M  V30 59 H 3.337100 -3.196743 1.882432 0
M  V30 60 H 5.625853 -0.312200 5.074671 0
M  V30 61 H 3.982170 0.283178 4.820657 0
M  V30 62 H 5.211557 0.719283 3.600518 0
M  V30 END ATOM
M  V30 BEGIN BOND
M  V30 1 1 1 2
M  V30 2 1 2 3
M  V30 3 1 3 4
M  V30 4 1 4 5
M  V30 5 2 5 6
M  V30 6 1 6 7
M  V30 7 2 7 8
M  V30 8 1 8 9
M  V30 9 2 9 10
M  V30 10 1 10 11
M  V30 11 1 11 12
M  V30 12 2 12 13
M  V30 13 1 12 14
M  V30 14 2 14 15
M  V30 15 1 15 16
M  V30 16 2 16 17
M  V30 17 1 17 18
M  V30 18 1 17 19
M  V30 19 1 19 20
M  V30 20 2 20 21
M  V30 21 1 21 22
M  V30 22 1 21 23
M  V30 23 2 23 24
M  V30 24 1 24 25
M  V30 25 2 25 26
M  V30 26 1 26 27
M  V30 27 2 19 28
M  V30 28 1 4 29
M  V30 29 1 29 30
M  V30 30 1 30 31
M  V30 31 1 30 32
M  V30 32 1 32 33
M  V30 33 1 33 34
M  V30 34 1 34 35
M  V30 35 2 34 36
M  V30 36 2 34 37
M  V30 37 1 32 2
M  V30 38 1 10 5
M  V30 39 1 28 14
M  V30 40 1 26 20
M  V30 41 1 1 38
M  V30 42 1 1 39
M  V30 43 1 1 40
M  V30 44 1 2 41 CFG=3
M  V30 45 1 3 42
M  V30 46 1 3 43
M  V30 47 1 4 44 CFG=3
M  V30 48 1 6 45
M  V30 49 1 7 46
M  V30 50 1 9 47
M  V30 51 1 11 48
M  V30 52 1 15 49
M  V30 53 1 16 50
M  V30 54 1 23 51
M  V30 55 1 24 52
M  V30 56 1 25 53
M  V30 57 1 29 54
M  V30 58 1 29 55
M  V30 59 1 30 56 CFG=3
M  V30 60 1 31 57
M  V30 61 1 31 58
M  V30 62 1 32 59 CFG=1
M  V30 63 1 35 60
M  V30 64 1 35 61
M  V30 65 1 35 62
M  V30 END BOND
M  V30 END CTAB
M  END
>  <Dataset>  (313) 
ChEMBL_Kinases

>  <Ligand_Instance>  (313) 
nan

>  <PDB_ID>  (313) 
nan

>  <Standardized_SMILES>  (313) 
C[C@H]1C[C@@H](c2ccncc2NC(=O)c2ccc(F)c(-c3c(F)cccc3F)n2)C[C@@H](N)[C@H]1OS(C)(=O)=O

>  <Name>  (313) 
nan

>  <Pocket>  (313) 
nan

>  <ATP_Site>  (313) 
nan

>  <Peripheral>  (313) 
nan

>  <Num_H_Atoms_ProtBoundConf>  (313) 
nan

>  <Num_Resolved_Atoms>  (313) 
nan

>  <Num_Not_Resolved_Atoms>  (313) 
nan

$$$$
CHEMBL3687469
     RDKit          3D

  0  0  0  0  0  0  0  0  0  0999 V3000
M  V30 BEGIN CTAB
M  V30 COUNTS 66 69 0 0 0
M  V30 BEGIN ATOM
M  V30 1 C 3.423829 -3.661616 3.032854 0
M  V30 2 O 3.115195 -2.682848 2.082046 0
M  V30 3 C 3.879604 -2.357814 0.969072 0
M  V30 4 O 4.935804 -2.982318 0.785485 0
M  V30 5 N 3.465970 -1.330079 0.053090 0
M  V30 6 C 4.338110 -1.066469 -1.081482 0
M  V30 7 C 2.198329 -0.633619 0.340323 0 CFG=2
M  V30 8 C 1.154415 -0.849053 -0.661662 0 CFG=2
M  V30 9 C 1.479803 -1.922938 -1.689563 0
M  V30 10 C 0.739696 0.366537 -1.468224 0
M  V30 11 C 0.605266 1.489229 -0.471912 0 CFG=2
M  V30 12 C -0.236184 2.603771 -0.882638 0
M  V30 13 C 0.265317 3.694071 -1.559034 0
M  V30 14 C -0.650641 4.671872 -1.882533 0
M  V30 15 N -1.965871 4.650569 -1.598705 0
M  V30 16 C -2.462181 3.601294 -0.944921 0
M  V30 17 C -1.604881 2.580771 -0.586834 0
M  V30 18 N -2.103358 1.426527 0.122584 0
M  V30 19 C -2.142461 1.383295 1.547272 0
M  V30 20 O -1.728381 2.385174 2.204076 0
M  V30 21 C -2.652162 0.201572 2.229653 0
M  V30 22 C -2.686872 0.167262 3.605409 0
M  V30 23 C -3.174692 -0.964367 4.239101 0
M  V30 24 C -3.623779 -2.051368 3.519974 0
M  V30 25 F -4.115003 -3.195647 4.020225 0
M  V30 26 C -3.573138 -1.979541 2.139746 0
M  V30 27 C -3.998743 -3.018733 1.201343 0
M  V30 28 C -2.948244 -3.870352 0.905196 0
M  V30 29 F -1.682096 -3.797307 1.388960 0
M  V30 30 C -3.110871 -4.940269 0.032156 0
M  V30 31 C -4.366925 -5.133838 -0.540346 0
M  V30 32 C -5.404397 -4.282180 -0.239779 0
M  V30 33 C -5.214193 -3.237855 0.623025 0
M  V30 34 F -6.156726 -2.315416 1.009805 0
M  V30 35 N -3.094616 -0.868311 1.551858 0
M  V30 36 C 2.043326 1.846423 -0.182405 0
M  V30 37 C 2.557251 0.756098 0.729529 0 CFG=2
M  V30 38 N 4.007212 0.973410 0.801507 0
M  V30 39 H 2.644615 -3.547800 3.843127 0
M  V30 40 H 4.380151 -3.529871 3.550219 0
M  V30 41 H 3.245098 -4.698638 2.653373 0
M  V30 42 H 5.347355 -0.718279 -0.725788 0
M  V30 43 H 3.895747 -0.386366 -1.807444 0
M  V30 44 H 4.577571 -2.076956 -1.523290 0
M  V30 45 H 1.862284 -1.145459 1.294918 0
M  V30 46 H 0.192017 -1.186070 -0.215419 0
M  V30 47 H 0.571837 -2.463351 -2.046494 0
M  V30 48 H 1.915399 -1.478669 -2.616213 0
M  V30 49 H 2.175120 -2.671235 -1.317841 0
M  V30 50 H 1.488498 0.639327 -2.233665 0
M  V30 51 H -0.205339 0.145318 -1.990314 0
M  V30 52 H 0.150962 1.050382 0.451657 0
M  V30 53 H 1.298496 3.777767 -1.817134 0
M  V30 54 H -0.334814 5.568496 -2.418769 0
M  V30 55 H -3.498761 3.461786 -0.656810 0
M  V30 56 H -2.442543 0.605440 -0.427391 0
M  V30 57 H -2.338687 1.010750 4.182816 0
M  V30 58 H -3.227057 -1.050850 5.318155 0
M  V30 59 H -2.335160 -5.645580 -0.244979 0
M  V30 60 H -4.553876 -5.950854 -1.228236 0
M  V30 61 H -6.407880 -4.376477 -0.651020 0
M  V30 62 H 2.615796 1.874391 -1.139707 0
M  V30 63 H 2.164814 2.802214 0.321516 0
M  V30 64 H 2.182331 1.041593 1.736055 0
M  V30 65 H 4.410276 0.766447 1.724782 0
M  V30 66 H 4.269823 1.952304 0.556884 0
M  V30 END ATOM
M  V30 BEGIN BOND
M  V30 1 1 1 2
M  V30 2 1 2 3
M  V30 3 2 3 4
M  V30 4 1 3 5
M  V30 5 1 5 6
M  V30 6 1 5 7
M  V30 7 1 7 8
M  V30 8 1 8 9
M  V30 9 1 8 10
M  V30 10 1 10 11
M  V30 11 1 11 12
M  V30 12 2 12 13
M  V30 13 1 13 14
M  V30 14 2 14 15
M  V30 15 1 15 16
M  V30 16 2 16 17
M  V30 17 1 17 18
M  V30 18 1 18 19
M  V30 19 2 19 20
M  V30 20 1 19 21
M  V30 21 2 21 22
M  V30 22 1 22 23
M  V30 23 2 23 24
M  V30 24 1 24 25
M  V30 25 1 24 26
M  V30 26 1 26 27
M  V30 27 2 27 28
M  V30 28 1 28 29
M  V30 29 1 28 30
M  V30 30 2 30 31
M  V30 31 1 31 32
M  V30 32 2 32 33
M  V30 33 1 33 34
M  V30 34 2 26 35
M  V30 35 1 11 36
M  V30 36 1 36 37
M  V30 37 1 37 38
M  V30 38 1 37 7
M  V30 39 1 17 12
M  V30 40 1 35 21
M  V30 41 1 33 27
M  V30 42 1 1 39
M  V30 43 1 1 40
M  V30 44 1 1 41
M  V30 45 1 6 42
M  V30 46 1 6 43
M  V30 47 1 6 44
M  V30 48 1 7 45 CFG=1
M  V30 49 1 8 46 CFG=1
M  V30 50 1 9 47
M  V30 51 1 9 48
M  V30 52 1 9 49
M  V30 53 1 10 50
M  V30 54 1 10 51
M  V30 55 1 11 52 CFG=1
M  V30 56 1 13 53
M  V30 57 1 14 54
M  V30 58 1 16 55
M  V30 59 1 18 56
M  V30 60 1 22 57
M  V30 61 1 23 58
M  V30 62 1 30 59
M  V30 63 1 31 60
M  V30 64 1 32 61
M  V30 65 1 36 62
M  V30 66 1 36 63
M  V30 67 1 37 64 CFG=1
M  V30 68 1 38 65
M  V30 69 1 38 66
M  V30 END BOND
M  V30 END CTAB
M  END
>  <Dataset>  (314) 
ChEMBL_Kinases

>  <Ligand_Instance>  (314) 
nan

>  <PDB_ID>  (314) 
nan

>  <Standardized_SMILES>  (314) 
COC(=O)N(C)[C@@H]1[C@H](C)C[C@H](c2ccncc2NC(=O)c2ccc(F)c(-c3c(F)cccc3F)n2)C[C@@H]1N

>  <Name>  (314) 
nan

>  <Pocket>  (314) 
nan

>  <ATP_Site>  (314) 
nan

>  <Peripheral>  (314) 
nan

>  <Num_H_Atoms_ProtBoundConf>  (314) 
nan

>  <Num_Resolved_Atoms>  (314) 
nan

>  <Num_Not_Resolved_Atoms>  (314) 
nan

$$$$
CHEMBL3687448
     RDKit          3D

  0  0  0  0  0  0  0  0  0  0999 V3000
M  V30 BEGIN CTAB
M  V30 COUNTS 65 68 0 0 0
M  V30 BEGIN ATOM
M  V30 1 C 4.434659 -0.962415 1.533894 0
M  V30 2 C 3.029555 -0.441904 1.326671 0 CFG=1
M  V30 3 C 2.649611 -0.565206 -0.113956 0
M  V30 4 C 1.717481 -1.717857 -0.350791 0 CFG=1
M  V30 5 C 1.658573 -2.125937 -1.758910 0
M  V30 6 C 2.469366 -3.062763 -2.361031 0
M  V30 7 C 2.354968 -3.396972 -3.698901 0
M  V30 8 N 1.412419 -2.790332 -4.470746 0
M  V30 9 C 0.609150 -1.880299 -3.929378 0
M  V30 10 C 0.704020 -1.526572 -2.586209 0
M  V30 11 N -0.221809 -0.539783 -2.149727 0
M  V30 12 C -0.227923 0.880450 -2.073854 0
M  V30 13 O 0.751337 1.577290 -2.445602 0
M  V30 14 C -1.465615 1.431324 -1.530143 0
M  V30 15 C -1.525402 2.805720 -1.434304 0
M  V30 16 C -2.648827 3.432873 -0.934263 0
M  V30 17 C -3.738888 2.698841 -0.518380 0
M  V30 18 F -4.907427 3.156840 -0.008098 0
M  V30 19 C -3.646489 1.318687 -0.628100 0
M  V30 20 C -4.655798 0.330987 -0.258893 0
M  V30 21 C -4.791230 -0.266757 0.955207 0
M  V30 22 F -3.902196 0.090122 1.914835 0
M  V30 23 C -5.772140 -1.195614 1.236060 0
M  V30 24 C -6.655186 -1.520463 0.208838 0
M  V30 25 C -6.526286 -0.914689 -1.038978 0
M  V30 26 C -5.526954 0.021072 -1.298732 0
M  V30 27 F -5.519693 0.527323 -2.550851 0
M  V30 28 N -2.544291 0.725979 -1.117548 0
M  V30 29 C 2.113276 -2.910288 0.507471 0
M  V30 30 C 1.946258 -2.605683 1.978984 0 CFG=1
M  V30 31 N 2.895344 -3.349158 2.764293 0
M  V30 32 C 2.086037 -1.142616 2.279192 0 CFG=2
M  V30 33 O 0.859551 -0.487570 2.364895 0
M  V30 34 P 0.614506 0.144047 3.915970 0
M  V30 35 C -1.113726 0.571847 4.186978 0
M  V30 36 C 1.619692 1.627208 4.184629 0
M  V30 37 O 1.011908 -0.887025 4.965261 0
M  V30 38 H 4.510044 -1.642462 2.388849 0
M  V30 39 H 4.810733 -1.502739 0.634302 0
M  V30 40 H 5.165386 -0.144325 1.721689 0
M  V30 41 H 3.038686 0.639042 1.650044 0
M  V30 42 H 3.534400 -0.565855 -0.785528 0
M  V30 43 H 2.083996 0.355136 -0.374179 0
M  V30 44 H 0.723851 -1.404325 0.029431 0
M  V30 45 H 3.220218 -3.541588 -1.732819 0
M  V30 46 H 3.014117 -4.147702 -4.155229 0
M  V30 47 H -0.122519 -1.425872 -4.579113 0
M  V30 48 H -1.019491 -1.149968 -1.849057 0
M  V30 49 H -0.687763 3.444379 -1.749977 0
M  V30 50 H -2.759748 4.507925 -0.832520 0
M  V30 51 H -5.824615 -1.635003 2.226226 0
M  V30 52 H -7.443933 -2.255182 0.404052 0
M  V30 53 H -7.243051 -1.205064 -1.805727 0
M  V30 54 H 3.160483 -3.208791 0.279663 0
M  V30 55 H 1.485340 -3.773546 0.220217 0
M  V30 56 H 0.922851 -2.912680 2.270134 0
M  V30 57 H 2.398921 -3.825990 3.574005 0
M  V30 58 H 3.296814 -4.144519 2.196288 0
M  V30 59 H 2.542406 -1.045159 3.290042 0
M  V30 60 H -1.736137 -0.244812 4.569686 0
M  V30 61 H -1.136865 1.388374 4.960986 0
M  V30 62 H -1.512978 1.040372 3.262495 0
M  V30 63 H 1.420054 1.966868 5.225743 0
M  V30 64 H 2.683187 1.380347 4.014184 0
M  V30 65 H 1.246720 2.394626 3.485119 0
M  V30 END ATOM
M  V30 BEGIN BOND
M  V30 1 1 1 2
M  V30 2 1 2 3
M  V30 3 1 3 4
M  V30 4 1 4 5
M  V30 5 2 5 6
M  V30 6 1 6 7
M  V30 7 2 7 8
M  V30 8 1 8 9
M  V30 9 2 9 10
M  V30 10 1 10 11
M  V30 11 1 11 12
M  V30 12 2 12 13
M  V30 13 1 12 14
M  V30 14 2 14 15
M  V30 15 1 15 16
M  V30 16 2 16 17
M  V30 17 1 17 18
M  V30 18 1 17 19
M  V30 19 1 19 20
M  V30 20 2 20 21
M  V30 21 1 21 22
M  V30 22 1 21 23
M  V30 23 2 23 24
M  V30 24 1 24 25
M  V30 25 2 25 26
M  V30 26 1 26 27
M  V30 27 2 19 28
M  V30 28 1 4 29
M  V30 29 1 29 30
M  V30 30 1 30 31
M  V30 31 1 30 32
M  V30 32 1 32 33
M  V30 33 1 33 34
M  V30 34 1 34 35
M  V30 35 1 34 36
M  V30 36 2 34 37
M  V30 37 1 32 2
M  V30 38 1 10 5
M  V30 39 1 28 14
M  V30 40 1 26 20
M  V30 41 1 1 38
M  V30 42 1 1 39
M  V30 43 1 1 40
M  V30 44 1 2 41 CFG=1
M  V30 45 1 3 42
M  V30 46 1 3 43
M  V30 47 1 4 44 CFG=1
M  V30 48 1 6 45
M  V30 49 1 7 46
M  V30 50 1 9 47
M  V30 51 1 11 48
M  V30 52 1 15 49
M  V30 53 1 16 50
M  V30 54 1 23 51
M  V30 55 1 24 52
M  V30 56 1 25 53
M  V30 57 1 29 54
M  V30 58 1 29 55
M  V30 59 1 30 56 CFG=1
M  V30 60 1 31 57
M  V30 61 1 31 58
M  V30 62 1 32 59 CFG=1
M  V30 63 1 35 60
M  V30 64 1 35 61
M  V30 65 1 35 62
M  V30 66 1 36 63
M  V30 67 1 36 64
M  V30 68 1 36 65
M  V30 END BOND
M  V30 END CTAB
M  END
>  <Dataset>  (315) 
ChEMBL_Kinases

>  <Ligand_Instance>  (315) 
nan

>  <PDB_ID>  (315) 
nan

>  <Standardized_SMILES>  (315) 
C[C@H]1C[C@@H](c2ccncc2NC(=O)c2ccc(F)c(-c3c(F)cccc3F)n2)C[C@@H](N)[C@@H]1OP(C)(C)=O

>  <Name>  (315) 
nan

>  <Pocket>  (315) 
nan

>  <ATP_Site>  (315) 
nan

>  <Peripheral>  (315) 
nan

>  <Num_H_Atoms_ProtBoundConf>  (315) 
nan

>  <Num_Resolved_Atoms>  (315) 
nan

>  <Num_Not_Resolved_Atoms>  (315) 
nan

$$$$
CHEMBL439850
     RDKit          3D

  0  0  0  0  0  0  0  0  0  0999 V3000
M  V30 BEGIN CTAB
M  V30 COUNTS 44 48 0 0 0
M  V30 BEGIN ATOM
M  V30 1 F 1.565498 -6.893862 2.115476 0
M  V30 2 C 1.853177 -5.781954 1.424242 0
M  V30 3 C 2.958197 -5.694429 0.617327 0
M  V30 4 C 3.256036 -4.557798 -0.092290 0
M  V30 5 C 2.455662 -3.425336 -0.036756 0
M  V30 6 N 2.786844 -2.265443 -0.780870 0
M  V30 7 C 2.102664 -1.024479 -0.842391 0
M  V30 8 N 2.581726 -0.037658 -1.613386 0
M  V30 9 C 2.023634 1.160666 -1.742713 0
M  V30 10 C 0.873350 1.428250 -1.045841 0
M  V30 11 C 0.337904 0.462496 -0.244211 0
M  V30 12 C -0.885316 0.719947 0.511260 0
M  V30 13 C -1.212271 1.598479 1.524512 0
M  V30 14 C -0.221031 2.531887 2.056980 0
M  V30 15 C 0.906203 1.965103 2.660557 0
M  V30 16 C 1.921577 2.752173 3.206334 0
M  V30 17 C 1.794112 4.142918 3.140236 0
M  V30 18 C 0.661952 4.648654 2.533848 0
M  V30 19 C -0.358485 3.900979 1.985464 0
M  V30 20 N -2.505545 1.419483 1.869122 0
M  V30 21 N -3.023782 0.445655 1.102399 0
M  V30 22 N -4.267092 -0.004543 1.153860 0
M  V30 23 C -4.684613 -0.996632 0.327495 0
M  V30 24 C -3.743056 -1.491874 -0.550590 0
M  V30 25 C -2.438994 -1.008263 -0.593108 0
M  V30 26 C -2.045879 0.003281 0.262681 0
M  V30 27 N 0.984311 -0.709254 -0.188899 0
M  V30 28 C 1.358829 -3.553972 0.782644 0
M  V30 29 C 1.035371 -4.678488 1.504913 0
M  V30 30 F -0.075582 -4.731314 2.299416 0
M  V30 31 H 3.626841 -6.539487 0.525990 0
M  V30 32 H 4.149046 -4.545413 -0.718849 0
M  V30 33 H 3.668146 -2.347843 -1.369103 0
M  V30 34 H 2.520292 1.847567 -2.394249 0
M  V30 35 H 0.412549 2.394641 -1.142353 0
M  V30 36 H 1.066489 0.901132 2.744224 0
M  V30 37 H 2.781103 2.302784 3.665874 0
M  V30 38 H 2.556196 4.792546 3.549690 0
M  V30 39 H 0.555929 5.731646 2.478890 0
M  V30 40 H -1.229396 4.317799 1.519536 0
M  V30 41 H -5.685550 -1.419576 0.307582 0
M  V30 42 H -4.000881 -2.294078 -1.250992 0
M  V30 43 H -1.692834 -1.396802 -1.285282 0
M  V30 44 H 0.674557 -2.740405 0.898917 0
M  V30 END ATOM
M  V30 BEGIN BOND
M  V30 1 1 1 2
M  V30 2 2 2 3
M  V30 3 1 3 4
M  V30 4 2 4 5
M  V30 5 1 5 6
M  V30 6 1 6 7
M  V30 7 2 7 8
M  V30 8 1 8 9
M  V30 9 2 9 10
M  V30 10 1 10 11
M  V30 11 1 11 12
M  V30 12 1 12 13
M  V30 13 1 13 14
M  V30 14 2 14 15
M  V30 15 1 15 16
M  V30 16 2 16 17
M  V30 17 1 17 18
M  V30 18 2 18 19
M  V30 19 2 13 20
M  V30 20 1 20 21
M  V30 21 1 21 22
M  V30 22 2 22 23
M  V30 23 1 23 24
M  V30 24 2 24 25
M  V30 25 1 25 26
M  V30 26 2 11 27
M  V30 27 1 5 28
M  V30 28 2 28 29
M  V30 29 1 29 30
M  V30 30 1 29 2
M  V30 31 1 27 7
M  V30 32 2 26 12
M  V30 33 1 19 14
M  V30 34 1 26 21
M  V30 35 1 3 31
M  V30 36 1 4 32
M  V30 37 1 6 33
M  V30 38 1 9 34
M  V30 39 1 10 35
M  V30 40 1 15 36
M  V30 41 1 16 37
M  V30 42 1 17 38
M  V30 43 1 18 39
M  V30 44 1 19 40
M  V30 45 1 23 41
M  V30 46 1 24 42
M  V30 47 1 25 43
M  V30 48 1 28 44
M  V30 END BOND
M  V30 END CTAB
M  END
>  <Dataset>  (316) 
ChEMBL_Kinases

>  <Ligand_Instance>  (316) 
nan

>  <PDB_ID>  (316) 
nan

>  <Standardized_SMILES>  (316) 
Fc1ccc(Nc2nccc(-c3c(-c4ccccc4)nn4ncccc34)n2)cc1F

>  <Name>  (316) 
nan

>  <Pocket>  (316) 
nan

>  <ATP_Site>  (316) 
nan

>  <Peripheral>  (316) 
nan

>  <Num_H_Atoms_ProtBoundConf>  (316) 
nan

>  <Num_Resolved_Atoms>  (316) 
nan

>  <Num_Not_Resolved_Atoms>  (316) 
nan

$$$$
CHEMBL260064
     RDKit          3D

  0  0  0  0  0  0  0  0  0  0999 V3000
M  V30 BEGIN CTAB
M  V30 COUNTS 60 63 0 0 0
M  V30 BEGIN ATOM
M  V30 1 C 3.972942 -1.476893 2.653219 0
M  V30 2 C 2.866098 -1.746645 1.625125 0
M  V30 3 C 1.794321 -0.750240 1.756053 0
M  V30 4 O 2.663539 0.158548 1.699214 0
M  V30 5 C 0.413901 -0.341439 1.898069 0
M  V30 6 C 0.271269 1.034499 1.850086 0
M  V30 7 C 1.301318 2.071253 1.660897 0
M  V30 8 C 2.015074 2.696647 2.653917 0
M  V30 9 C 2.952574 3.657779 2.326414 0
M  V30 10 C 3.185718 4.004230 0.986763 0
M  V30 11 C 2.468412 3.376151 -0.025338 0
M  V30 12 C 1.524776 2.405980 0.343301 0
M  V30 13 C -1.008919 1.578940 1.994665 0
M  V30 14 C -1.267944 2.915302 1.964419 0
M  V30 15 C -2.549361 3.382618 2.112231 0
M  V30 16 Cl -2.805138 5.134119 2.056786 0
M  V30 17 C -3.601015 2.511288 2.294890 0
M  V30 18 C -3.303000 1.168539 2.321042 0
M  V30 19 C -2.027145 0.678597 2.174518 0
M  V30 20 C -1.901206 -0.688055 2.224776 0
M  V30 21 O -2.886917 -1.432772 2.391244 0
M  V30 22 N -0.644011 -1.140654 2.079789 0
M  V30 23 C -0.473408 -2.574765 2.170469 0
M  V30 24 C -0.582620 -3.159542 0.814899 0
M  V30 25 C -1.766675 -3.637809 0.265665 0
M  V30 26 C -1.601312 -4.136833 -1.016299 0
M  V30 27 S -2.832945 -4.791116 -1.998866 0
M  V30 28 C -3.167453 -3.977877 -3.511870 0
M  V30 29 O -4.118177 -4.883954 -1.212668 0
M  V30 30 O -2.457994 -6.222545 -2.336168 0
M  V30 31 N -0.294357 -3.944885 -1.213667 0
M  V30 32 C 0.315260 -4.361656 -2.482897 0
M  V30 33 C 0.296716 -3.324945 -3.513051 0
M  V30 34 C -0.319105 -2.038901 -3.150578 0
M  V30 35 O 0.702475 -3.279584 -4.684720 0
M  V30 36 N 0.339789 -3.377879 -0.172268 0
M  V30 37 H 4.465296 -2.460283 2.896820 0
M  V30 38 H 3.524148 -1.115909 3.608619 0
M  V30 39 H 4.716976 -0.792217 2.260862 0
M  V30 40 H 3.383956 -1.741062 0.621049 0
M  V30 41 H 2.495379 -2.761635 1.814160 0
M  V30 42 H 1.796812 2.387041 3.667088 0
M  V30 43 H 3.493552 4.129026 3.125271 0
M  V30 44 H 3.905369 4.752065 0.697743 0
M  V30 45 H 2.646278 3.638113 -1.081517 0
M  V30 46 H 1.002618 1.962299 -0.488308 0
M  V30 47 H -0.455829 3.616070 1.822222 0
M  V30 48 H -4.635238 2.878210 2.415378 0
M  V30 49 H -4.170373 0.521494 2.470608 0
M  V30 50 H 0.451783 -2.806242 2.705549 0
M  V30 51 H -1.335644 -3.018792 2.762637 0
M  V30 52 H -2.737228 -3.628434 0.786682 0
M  V30 53 H -4.119037 -4.429561 -3.910099 0
M  V30 54 H -2.398460 -4.193379 -4.282216 0
M  V30 55 H -3.417683 -2.901617 -3.427832 0
M  V30 56 H -0.062898 -5.355036 -2.792367 0
M  V30 57 H 1.391786 -4.567013 -2.217053 0
M  V30 58 H 0.410816 -1.206311 -3.266842 0
M  V30 59 H -0.692440 -1.966391 -2.118679 0
M  V30 60 H -1.178745 -1.770904 -3.804966 0
M  V30 END ATOM
M  V30 BEGIN BOND
M  V30 1 1 1 2
M  V30 2 1 2 3
M  V30 3 2 3 4
M  V30 4 1 3 5
M  V30 5 2 5 6
M  V30 6 1 6 7
M  V30 7 2 7 8
M  V30 8 1 8 9
M  V30 9 2 9 10
M  V30 10 1 10 11
M  V30 11 2 11 12
M  V30 12 1 6 13
M  V30 13 2 13 14
M  V30 14 1 14 15
M  V30 15 1 15 16
M  V30 16 2 15 17
M  V30 17 1 17 18
M  V30 18 2 18 19
M  V30 19 1 19 20
M  V30 20 2 20 21
M  V30 21 1 20 22
M  V30 22 1 22 23
M  V30 23 1 23 24
M  V30 24 1 24 25
M  V30 25 2 25 26
M  V30 26 1 26 27
M  V30 27 1 27 28
M  V30 28 2 27 29
M  V30 29 2 27 30
M  V30 30 1 26 31
M  V30 31 1 31 32
M  V30 32 1 32 33
M  V30 33 1 33 34
M  V30 34 2 33 35
M  V30 35 1 31 36
M  V30 36 1 22 5
M  V30 37 2 36 24
M  V30 38 1 12 7
M  V30 39 1 19 13
M  V30 40 1 1 37
M  V30 41 1 1 38
M  V30 42 1 1 39
M  V30 43 1 2 40
M  V30 44 1 2 41
M  V30 45 1 8 42
M  V30 46 1 9 43
M  V30 47 1 10 44
M  V30 48 1 11 45
M  V30 49 1 12 46
M  V30 50 1 14 47
M  V30 51 1 17 48
M  V30 52 1 18 49
M  V30 53 1 23 50
M  V30 54 1 23 51
M  V30 55 1 25 52
M  V30 56 1 28 53
M  V30 57 1 28 54
M  V30 58 1 28 55
M  V30 59 1 32 56
M  V30 60 1 32 57
M  V30 61 1 34 58
M  V30 62 1 34 59
M  V30 63 1 34 60
M  V30 END BOND
M  V30 END CTAB
M  END
>  <Dataset>  (317) 
ChEMBL_Kinases

>  <Ligand_Instance>  (317) 
nan

>  <PDB_ID>  (317) 
nan

>  <Standardized_SMILES>  (317) 
CCC(=O)c1c(-c2ccccc2)c2cc(Cl)ccc2c(=O)n1Cc1cc(S(C)(=O)=O)n(CC(C)=O)n1

>  <Name>  (317) 
nan

>  <Pocket>  (317) 
nan

>  <ATP_Site>  (317) 
nan

>  <Peripheral>  (317) 
nan

>  <Num_H_Atoms_ProtBoundConf>  (317) 
nan

>  <Num_Resolved_Atoms>  (317) 
nan

>  <Num_Not_Resolved_Atoms>  (317) 
nan

$$$$
CHEMBL260065
     RDKit          3D

  0  0  0  0  0  0  0  0  0  0999 V3000
M  V30 BEGIN CTAB
M  V30 COUNTS 59 62 0 0 0
M  V30 BEGIN ATOM
M  V30 1 C 3.459265 -0.821781 3.173739 0
M  V30 2 C 2.590215 -1.122755 1.967417 0
M  V30 3 C 1.327376 -0.384101 1.983964 0
M  V30 4 O 2.009390 0.668249 2.192806 0
M  V30 5 C -0.107869 -0.261272 1.893505 0
M  V30 6 C -0.509471 1.076086 1.943906 0
M  V30 7 C 0.316618 2.294115 2.060011 0
M  V30 8 C 0.698730 2.872731 3.249956 0
M  V30 9 C 1.481629 4.032551 3.208290 0
M  V30 10 C 1.853893 4.571351 1.975058 0
M  V30 11 C 1.466448 3.985693 0.785865 0
M  V30 12 C 0.690152 2.835691 0.835621 0
M  V30 13 C -1.875197 1.378677 1.874321 0
M  V30 14 C -2.381669 2.653777 1.914512 0
M  V30 15 C -3.739951 2.825924 1.838477 0
M  V30 16 Cl -4.399340 4.432756 1.887589 0
M  V30 17 C -4.642943 1.777154 1.722128 0
M  V30 18 C -4.068476 0.503780 1.685981 0
M  V30 19 C -2.702762 0.287843 1.760019 0
M  V30 20 C -2.327516 -1.032016 1.710438 0
M  V30 21 O -3.161033 -1.954761 1.605467 0
M  V30 22 N -0.985760 -1.234332 1.785146 0
M  V30 23 C -0.549823 -2.614960 1.781629 0
M  V30 24 C -0.280436 -3.004988 0.380238 0
M  V30 25 C -1.220643 -3.578968 -0.473276 0
M  V30 26 C -0.719667 -3.860572 -1.725585 0
M  V30 27 S -1.609327 -4.591416 -3.034983 0
M  V30 28 C -1.564658 -3.507580 -4.451218 0
M  V30 29 O -3.056321 -4.768926 -2.587044 0
M  V30 30 O -1.041525 -5.917904 -3.444866 0
M  V30 31 N 0.556679 -3.443275 -1.620855 0
M  V30 32 C 1.518978 -3.530407 -2.707907 0
M  V30 33 C 2.296490 -4.776158 -2.725674 0
M  V30 34 N 3.537301 -4.800706 -2.082847 0
M  V30 35 O 2.029270 -5.888236 -3.246665 0
M  V30 36 N 0.821172 -2.951075 -0.419559 0
M  V30 37 H 4.028223 -1.726956 3.507168 0
M  V30 38 H 4.194083 -0.059579 2.887572 0
M  V30 39 H 2.899560 -0.455063 4.048456 0
M  V30 40 H 3.219554 -0.936568 1.048091 0
M  V30 41 H 2.414971 -2.210233 1.985640 0
M  V30 42 H 0.368077 2.393703 4.155941 0
M  V30 43 H 1.772658 4.474554 4.171436 0
M  V30 44 H 2.457260 5.465468 2.042257 0
M  V30 45 H 1.802363 4.476437 -0.113566 0
M  V30 46 H 0.415130 2.414377 -0.130721 0
M  V30 47 H -1.689932 3.491579 2.007086 0
M  V30 48 H -5.715775 1.912959 1.661942 0
M  V30 49 H -4.785813 -0.313052 1.596642 0
M  V30 50 H 0.298324 -2.737628 2.450531 0
M  V30 51 H -1.416975 -3.260256 2.125160 0
M  V30 52 H -2.242781 -3.786857 -0.178985 0
M  V30 53 H -2.540828 -3.476441 -4.958552 0
M  V30 54 H -0.834231 -3.911029 -5.203815 0
M  V30 55 H -1.216219 -2.486303 -4.213509 0
M  V30 56 H 0.961883 -3.484945 -3.683391 0
M  V30 57 H 2.227997 -2.665556 -2.692912 0
M  V30 58 H 4.333228 -4.329153 -1.555623 0
M  V30 59 H 4.008893 -3.954587 -1.642902 0
M  V30 END ATOM
M  V30 BEGIN BOND
M  V30 1 1 1 2
M  V30 2 1 2 3
M  V30 3 2 3 4
M  V30 4 1 3 5
M  V30 5 2 5 6
M  V30 6 1 6 7
M  V30 7 2 7 8
M  V30 8 1 8 9
M  V30 9 2 9 10
M  V30 10 1 10 11
M  V30 11 2 11 12
M  V30 12 1 6 13
M  V30 13 2 13 14
M  V30 14 1 14 15
M  V30 15 1 15 16
M  V30 16 2 15 17
M  V30 17 1 17 18
M  V30 18 2 18 19
M  V30 19 1 19 20
M  V30 20 2 20 21
M  V30 21 1 20 22
M  V30 22 1 22 23
M  V30 23 1 23 24
M  V30 24 1 24 25
M  V30 25 2 25 26
M  V30 26 1 26 27
M  V30 27 1 27 28
M  V30 28 2 27 29
M  V30 29 2 27 30
M  V30 30 1 26 31
M  V30 31 1 31 32
M  V30 32 1 32 33
M  V30 33 1 33 34
M  V30 34 2 33 35
M  V30 35 1 31 36
M  V30 36 1 22 5
M  V30 37 2 36 24
M  V30 38 1 12 7
M  V30 39 1 19 13
M  V30 40 1 1 37
M  V30 41 1 1 38
M  V30 42 1 1 39
M  V30 43 1 2 40
M  V30 44 1 2 41
M  V30 45 1 8 42
M  V30 46 1 9 43
M  V30 47 1 10 44
M  V30 48 1 11 45
M  V30 49 1 12 46
M  V30 50 1 14 47
M  V30 51 1 17 48
M  V30 52 1 18 49
M  V30 53 1 23 50
M  V30 54 1 23 51
M  V30 55 1 25 52
M  V30 56 1 28 53
M  V30 57 1 28 54
M  V30 58 1 28 55
M  V30 59 1 32 56
M  V30 60 1 32 57
M  V30 61 1 34 58
M  V30 62 1 34 59
M  V30 END BOND
M  V30 END CTAB
M  END
>  <Dataset>  (318) 
ChEMBL_Kinases

>  <Ligand_Instance>  (318) 
nan

>  <PDB_ID>  (318) 
nan

>  <Standardized_SMILES>  (318) 
CCC(=O)c1c(-c2ccccc2)c2cc(Cl)ccc2c(=O)n1Cc1cc(S(C)(=O)=O)n(CC(N)=O)n1

>  <Name>  (318) 
nan

>  <Pocket>  (318) 
nan

>  <ATP_Site>  (318) 
nan

>  <Peripheral>  (318) 
nan

>  <Num_H_Atoms_ProtBoundConf>  (318) 
nan

>  <Num_Resolved_Atoms>  (318) 
nan

>  <Num_Not_Resolved_Atoms>  (318) 
nan

$$$$
CHEMBL3687447
     RDKit          3D

  0  0  0  0  0  0  0  0  0  0999 V3000
M  V30 BEGIN CTAB
M  V30 COUNTS 61 64 0 0 0
M  V30 BEGIN ATOM
M  V30 1 C 0.486723 -2.619958 2.723046 0
M  V30 2 C 1.156151 -1.970138 1.576844 0 CFG=1
M  V30 3 C 1.630895 -0.590572 1.994197 0
M  V30 4 C 1.969082 0.104497 0.679062 0 CFG=1
M  V30 5 C 2.046839 1.565421 0.817955 0
M  V30 6 C 3.155927 2.300888 1.133584 0
M  V30 7 C 3.099444 3.689855 1.236074 0
M  V30 8 N 1.922147 4.345204 1.020430 0
M  V30 9 C 0.797460 3.667238 0.706001 0
M  V30 10 C 0.869693 2.290715 0.608146 0
M  V30 11 N -0.341753 1.583390 0.271138 0
M  V30 12 C -0.488104 1.432081 -1.123407 0
M  V30 13 O 0.411108 1.908237 -1.878518 0
M  V30 14 C -1.653719 0.740439 -1.676835 0
M  V30 15 C -1.756671 0.615293 -3.047609 0
M  V30 16 C -2.863194 -0.041793 -3.582975 0
M  V30 17 C -3.840908 -0.558743 -2.742626 0
M  V30 18 F -4.938373 -1.208711 -3.236271 0
M  V30 19 C -3.687884 -0.405471 -1.380827 0
M  V30 20 C -4.718920 -0.951152 -0.505111 0
M  V30 21 C -5.803263 -0.168489 -0.138948 0
M  V30 22 F -5.935566 1.107603 -0.577483 0
M  V30 23 C -6.767137 -0.723471 0.698356 0
M  V30 24 C -6.623083 -2.040983 1.146328 0
M  V30 25 C -5.530956 -2.790315 0.761577 0
M  V30 26 C -4.583221 -2.253174 -0.058195 0
M  V30 27 F -3.496857 -2.988664 -0.444985 0
M  V30 28 N -2.604796 0.235971 -0.892297 0
M  V30 29 C 3.195878 -0.562319 0.161946 0
M  V30 30 C 2.843828 -1.965214 -0.259327 0 CFG=1
M  V30 31 N 4.056722 -2.603878 -0.709224 0
M  V30 32 C 2.179750 -2.755197 0.852306 0 CFG=1
M  V30 33 S 3.422925 -3.503413 1.873481 0
M  V30 34 C 2.727974 -4.670053 2.990906 0
M  V30 35 O 4.270958 -2.477517 2.561625 0
M  V30 36 O 4.383391 -4.262214 0.967829 0
M  V30 37 H 1.080146 -2.837842 3.605453 0
M  V30 38 H -0.135408 -3.502999 2.389854 0
M  V30 39 H -0.314149 -1.902792 3.090211 0
M  V30 40 H 0.333811 -1.748315 0.827269 0
M  V30 41 H 0.752279 -0.093894 2.461533 0
M  V30 42 H 2.491901 -0.615389 2.680236 0
M  V30 43 H 1.137977 -0.164305 -0.030166 0
M  V30 44 H 4.064373 1.764795 1.297550 0
M  V30 45 H 3.990750 4.256911 1.487749 0
M  V30 46 H -0.105517 4.213986 0.544240 0
M  V30 47 H -1.076969 1.196224 0.933395 0
M  V30 48 H -0.974411 1.030519 -3.686951 0
M  V30 49 H -2.973598 -0.156690 -4.652664 0
M  V30 50 H -7.627900 -0.113115 0.993420 0
M  V30 51 H -7.404873 -2.444016 1.806131 0
M  V30 52 H -5.416693 -3.811078 1.107009 0
M  V30 53 H 3.939077 -0.632864 0.988929 0
M  V30 54 H 3.663619 -0.075423 -0.693605 0
M  V30 55 H 2.153516 -1.892966 -1.122640 0
M  V30 56 H 3.964144 -2.948055 -1.688390 0
M  V30 57 H 4.924202 -2.062329 -0.544572 0
M  V30 58 H 1.682029 -3.596173 0.322260 0
M  V30 59 H 2.840735 -4.363619 4.073675 0
M  V30 60 H 1.692059 -4.983467 2.748523 0
M  V30 61 H 3.298596 -5.653108 2.970787 0
M  V30 END ATOM
M  V30 BEGIN BOND
M  V30 1 1 1 2
M  V30 2 1 2 3
M  V30 3 1 3 4
M  V30 4 1 4 5
M  V30 5 2 5 6
M  V30 6 1 6 7
M  V30 7 2 7 8
M  V30 8 1 8 9
M  V30 9 2 9 10
M  V30 10 1 10 11
M  V30 11 1 11 12
M  V30 12 2 12 13
M  V30 13 1 12 14
M  V30 14 2 14 15
M  V30 15 1 15 16
M  V30 16 2 16 17
M  V30 17 1 17 18
M  V30 18 1 17 19
M  V30 19 1 19 20
M  V30 20 2 20 21
M  V30 21 1 21 22
M  V30 22 1 21 23
M  V30 23 2 23 24
M  V30 24 1 24 25
M  V30 25 2 25 26
M  V30 26 1 26 27
M  V30 27 2 19 28
M  V30 28 1 4 29
M  V30 29 1 29 30
M  V30 30 1 30 31
M  V30 31 1 30 32
M  V30 32 1 32 33
M  V30 33 1 33 34
M  V30 34 2 33 35
M  V30 35 2 33 36
M  V30 36 1 32 2
M  V30 37 1 10 5
M  V30 38 1 28 14
M  V30 39 1 26 20
M  V30 40 1 1 37
M  V30 41 1 1 38
M  V30 42 1 1 39
M  V30 43 1 2 40 CFG=3
M  V30 44 1 3 41
M  V30 45 1 3 42
M  V30 46 1 4 43 CFG=3
M  V30 47 1 6 44
M  V30 48 1 7 45
M  V30 49 1 9 46
M  V30 50 1 11 47
M  V30 51 1 15 48
M  V30 52 1 16 49
M  V30 53 1 23 50
M  V30 54 1 24 51
M  V30 55 1 25 52
M  V30 56 1 29 53
M  V30 57 1 29 54
M  V30 58 1 30 55 CFG=3
M  V30 59 1 31 56
M  V30 60 1 31 57
M  V30 61 1 32 58 CFG=3
M  V30 62 1 34 59
M  V30 63 1 34 60
M  V30 64 1 34 61
M  V30 END BOND
M  V30 END CTAB
M  END
>  <Dataset>  (319) 
ChEMBL_Kinases

>  <Ligand_Instance>  (319) 
nan

>  <PDB_ID>  (319) 
nan

>  <Standardized_SMILES>  (319) 
C[C@H]1C[C@@H](c2ccncc2NC(=O)c2ccc(F)c(-c3c(F)cccc3F)n2)C[C@@H](N)[C@H]1S(C)(=O)=O

>  <Name>  (319) 
nan

>  <Pocket>  (319) 
nan

>  <ATP_Site>  (319) 
nan

>  <Peripheral>  (319) 
nan

>  <Num_H_Atoms_ProtBoundConf>  (319) 
nan

>  <Num_Resolved_Atoms>  (319) 
nan

>  <Num_Not_Resolved_Atoms>  (319) 
nan

$$$$
CHEMBL3687446
     RDKit          3D

  0  0  0  0  0  0  0  0  0  0999 V3000
M  V30 BEGIN CTAB
M  V30 COUNTS 60 63 0 0 0
M  V30 BEGIN ATOM
M  V30 1 C 3.150862 -1.884032 2.937713 0
M  V30 2 C 1.873560 -1.574423 2.208368 0 CFG=1
M  V30 3 C 2.054268 -0.408101 1.259172 0
M  V30 4 C 2.035593 -0.928213 -0.167487 0 CFG=1
M  V30 5 C 2.553244 0.030351 -1.136352 0
M  V30 6 C 3.881992 -0.054752 -1.514918 0
M  V30 7 C 4.507072 0.789036 -2.436687 0
M  V30 8 N 3.744939 1.768022 -3.002096 0
M  V30 9 C 2.459339 1.850668 -2.635805 0
M  V30 10 C 1.802383 1.043360 -1.733727 0
M  V30 11 N 0.438148 1.188024 -1.386038 0
M  V30 12 C -0.503474 2.106163 -1.847279 0
M  V30 13 O -0.195968 2.959933 -2.685428 0
M  V30 14 C -1.893121 2.142837 -1.397890 0
M  V30 15 C -2.812303 3.054937 -1.859369 0
M  V30 16 C -4.127086 3.116050 -1.455972 0
M  V30 17 C -4.558425 2.185939 -0.511166 0
M  V30 18 F -5.843288 2.241765 -0.113454 0
M  V30 19 C -3.619404 1.268155 -0.051646 0
M  V30 20 C -4.173137 0.340347 0.933348 0
M  V30 21 C -4.192545 0.534766 2.310724 0
M  V30 22 F -3.633488 1.703413 2.691249 0
M  V30 23 C -4.749696 -0.427936 3.126049 0
M  V30 24 C -5.283805 -1.569770 2.612336 0
M  V30 25 C -5.281964 -1.798567 1.237064 0
M  V30 26 C -4.722880 -0.830491 0.430556 0
M  V30 27 F -4.734499 -1.080526 -0.911468 0
M  V30 28 N -2.351904 1.253263 -0.478102 0
M  V30 29 C 2.849720 -2.211457 -0.256139 0
M  V30 30 C 2.172580 -3.332878 0.509427 0 CFG=1
M  V30 31 N 3.197783 -4.173451 1.060817 0
M  V30 32 C 1.256773 -2.750995 1.522445 0 CFG=1
M  V30 33 S 0.727686 -3.956796 2.723179 0 CHG=1 VAL=3
M  V30 34 C 0.001029 -5.332394 1.861865 0
M  V30 35 O -0.521597 -3.232349 3.607909 0 CHG=-1 VAL=1
M  V30 36 H 3.159861 -1.417675 3.966096 0
M  V30 37 H 4.009830 -1.362074 2.424023 0
M  V30 38 H 3.344292 -2.959870 3.094444 0
M  V30 39 H 1.136662 -1.277191 3.015883 0
M  V30 40 H 2.949456 0.141990 1.535070 0
M  V30 41 H 1.184521 0.267160 1.373045 0
M  V30 42 H 0.970551 -1.137776 -0.405755 0
M  V30 43 H 4.609756 -0.764473 -1.163857 0
M  V30 44 H 5.552347 0.726229 -2.737903 0
M  V30 45 H 1.969386 2.656084 -3.147157 0
M  V30 46 H 0.013306 0.550814 -0.688382 0
M  V30 47 H -2.439571 3.770743 -2.600685 0
M  V30 48 H -4.791269 3.856168 -1.858566 0
M  V30 49 H -4.721166 -0.192544 4.181575 0
M  V30 50 H -5.715697 -2.310060 3.276611 0
M  V30 51 H -5.701755 -2.700339 0.808122 0
M  V30 52 H 3.852661 -2.028158 0.135959 0
M  V30 53 H 2.930045 -2.536050 -1.304721 0
M  V30 54 H 1.567061 -3.983277 -0.169603 0
M  V30 55 H 3.985915 -4.319740 0.393343 0
M  V30 56 H 2.876424 -5.054995 1.485858 0
M  V30 57 H 0.321027 -2.396090 1.041286 0
M  V30 58 H -0.637102 -4.952096 1.037328 0
M  V30 59 H -0.698351 -5.855963 2.572091 0
M  V30 60 H 0.720099 -6.095679 1.549565 0
M  V30 END ATOM
M  V30 BEGIN BOND
M  V30 1 1 1 2
M  V30 2 1 2 3
M  V30 3 1 3 4
M  V30 4 1 4 5
M  V30 5 2 5 6
M  V30 6 1 6 7
M  V30 7 2 7 8
M  V30 8 1 8 9
M  V30 9 2 9 10
M  V30 10 1 10 11
M  V30 11 1 11 12
M  V30 12 2 12 13
M  V30 13 1 12 14
M  V30 14 2 14 15
M  V30 15 1 15 16
M  V30 16 2 16 17
M  V30 17 1 17 18
M  V30 18 1 17 19
M  V30 19 1 19 20
M  V30 20 2 20 21
M  V30 21 1 21 22
M  V30 22 1 21 23
M  V30 23 2 23 24
M  V30 24 1 24 25
M  V30 25 2 25 26
M  V30 26 1 26 27
M  V30 27 2 19 28
M  V30 28 1 4 29
M  V30 29 1 29 30
M  V30 30 1 30 31
M  V30 31 1 30 32
M  V30 32 1 32 33
M  V30 33 1 33 34
M  V30 34 1 33 35
M  V30 35 1 32 2
M  V30 36 1 10 5
M  V30 37 1 28 14
M  V30 38 1 26 20
M  V30 39 1 1 36
M  V30 40 1 1 37
M  V30 41 1 1 38
M  V30 42 1 2 39 CFG=1
M  V30 43 1 3 40
M  V30 44 1 3 41
M  V30 45 1 4 42 CFG=3
M  V30 46 1 6 43
M  V30 47 1 7 44
M  V30 48 1 9 45
M  V30 49 1 11 46
M  V30 50 1 15 47
M  V30 51 1 16 48
M  V30 52 1 23 49
M  V30 53 1 24 50
M  V30 54 1 25 51
M  V30 55 1 29 52
M  V30 56 1 29 53
M  V30 57 1 30 54 CFG=3
M  V30 58 1 31 55
M  V30 59 1 31 56
M  V30 60 1 32 57 CFG=3
M  V30 61 1 34 58
M  V30 62 1 34 59
M  V30 63 1 34 60
M  V30 END BOND
M  V30 END CTAB
M  END
>  <Dataset>  (320) 
ChEMBL_Kinases

>  <Ligand_Instance>  (320) 
nan

>  <PDB_ID>  (320) 
nan

>  <Standardized_SMILES>  (320) 
C[C@H]1C[C@@H](c2ccncc2NC(=O)c2ccc(F)c(-c3c(F)cccc3F)n2)C[C@@H](N)[C@H]1[S+](C)[O-]

>  <Name>  (320) 
nan

>  <Pocket>  (320) 
nan

>  <ATP_Site>  (320) 
nan

>  <Peripheral>  (320) 
nan

>  <Num_H_Atoms_ProtBoundConf>  (320) 
nan

>  <Num_Resolved_Atoms>  (320) 
nan

>  <Num_Not_Resolved_Atoms>  (320) 
nan

$$$$
CHEMBL3687445
     RDKit          3D

  0  0  0  0  0  0  0  0  0  0999 V3000
M  V30 BEGIN CTAB
M  V30 COUNTS 59 62 0 0 0
M  V30 BEGIN ATOM
M  V30 1 C 5.304359 -2.709173 0.547152 0
M  V30 2 S 3.576347 -2.826298 0.139338 0
M  V30 3 C 2.590638 -1.391796 0.483745 0 CFG=1
M  V30 4 C 2.451112 -1.072268 1.960599 0 CFG=2
M  V30 5 N 2.282361 -2.269532 2.754595 0
M  V30 6 C 1.236840 -0.161130 2.015438 0
M  V30 7 C 1.649640 1.153252 1.488707 0 CFG=2
M  V30 8 C 0.743568 2.272094 1.700720 0
M  V30 9 C 0.980404 3.376725 2.532211 0
M  V30 10 C 0.088287 4.415104 2.693013 0
M  V30 11 N -1.091468 4.432172 2.046667 0
M  V30 12 C -1.371204 3.378127 1.223220 0
M  V30 13 C -0.470303 2.318772 1.054188 0
M  V30 14 N -1.015754 1.354535 0.177461 0
M  V30 15 C -1.205582 0.959228 -1.173928 0
M  V30 16 O -0.718128 1.734766 -2.069223 0
M  V30 17 C -1.918567 -0.261803 -1.434805 0
M  V30 18 C -2.051550 -0.569245 -2.770449 0
M  V30 19 C -2.702556 -1.700328 -3.205737 0
M  V30 20 C -3.255616 -2.582621 -2.294128 0
M  V30 21 F -3.913642 -3.720341 -2.636798 0
M  V30 22 C -3.101768 -2.240383 -0.966905 0
M  V30 23 C -3.635754 -3.080835 0.092207 0
M  V30 24 C -4.905257 -2.906771 0.574436 0
M  V30 25 F -5.717496 -1.939263 0.079949 0
M  V30 26 C -5.378452 -3.736925 1.593697 0
M  V30 27 C -4.527728 -4.727855 2.090655 0
M  V30 28 C -3.245867 -4.901938 1.602086 0
M  V30 29 C -2.800224 -4.061930 0.587536 0
M  V30 30 F -1.545523 -4.237967 0.114298 0
M  V30 31 N -2.454459 -1.116912 -0.553941 0
M  V30 32 C 2.279390 1.094606 0.129403 0
M  V30 33 C 3.058901 -0.139502 -0.175343 0 CFG=2
M  V30 34 C 3.205405 -0.346663 -1.678485 0
M  V30 35 H 5.771389 -1.751724 0.242565 0
M  V30 36 H 5.486358 -2.975489 1.607521 0
M  V30 37 H 5.839237 -3.493250 -0.055801 0
M  V30 38 H 1.563578 -1.614547 0.124999 0
M  V30 39 H 3.351759 -0.553981 2.345925 0
M  V30 40 H 2.034300 -3.086661 2.150928 0
M  V30 41 H 1.672967 -2.156497 3.577528 0
M  V30 42 H 0.457560 -0.702531 1.452130 0
M  V30 43 H 0.927617 -0.047928 3.086077 0
M  V30 44 H 2.549916 1.431049 2.161901 0
M  V30 45 H 1.934242 3.382607 3.067569 0
M  V30 46 H 0.366267 5.217817 3.356423 0
M  V30 47 H -2.337817 3.489805 0.755308 0
M  V30 48 H -1.417538 0.721495 0.922015 0
M  V30 49 H -1.640411 0.079663 -3.560245 0
M  V30 50 H -2.795630 -1.922183 -4.252133 0
M  V30 51 H -6.384043 -3.612731 1.988159 0
M  V30 52 H -4.925077 -5.362444 2.888010 0
M  V30 53 H -2.651993 -5.701715 2.050750 0
M  V30 54 H 1.578094 1.234004 -0.716008 0
M  V30 55 H 3.003195 1.969922 -0.009032 0
M  V30 56 H 4.106150 0.029316 0.186616 0
M  V30 57 H 3.946180 0.334916 -2.091505 0
M  V30 58 H 2.220841 -0.327104 -2.192891 0
M  V30 59 H 3.591375 -1.384649 -1.798841 0
M  V30 END ATOM
M  V30 BEGIN BOND
M  V30 1 1 1 2
M  V30 2 1 2 3
M  V30 3 1 3 4
M  V30 4 1 4 5
M  V30 5 1 4 6
M  V30 6 1 6 7
M  V30 7 1 7 8
M  V30 8 2 8 9
M  V30 9 1 9 10
M  V30 10 2 10 11
M  V30 11 1 11 12
M  V30 12 2 12 13
M  V30 13 1 13 14
M  V30 14 1 14 15
M  V30 15 2 15 16
M  V30 16 1 15 17
M  V30 17 2 17 18
M  V30 18 1 18 19
M  V30 19 2 19 20
M  V30 20 1 20 21
M  V30 21 1 20 22
M  V30 22 1 22 23
M  V30 23 2 23 24
M  V30 24 1 24 25
M  V30 25 1 24 26
M  V30 26 2 26 27
M  V30 27 1 27 28
M  V30 28 2 28 29
M  V30 29 1 29 30
M  V30 30 2 22 31
M  V30 31 1 7 32
M  V30 32 1 32 33
M  V30 33 1 33 34
M  V30 34 1 33 3
M  V30 35 1 13 8
M  V30 36 1 31 17
M  V30 37 1 29 23
M  V30 38 1 1 35
M  V30 39 1 1 36
M  V30 40 1 1 37
M  V30 41 1 3 38 CFG=3
M  V30 42 1 4 39 CFG=1
M  V30 43 1 5 40
M  V30 44 1 5 41
M  V30 45 1 6 42
M  V30 46 1 6 43
M  V30 47 1 7 44 CFG=1
M  V30 48 1 9 45
M  V30 49 1 10 46
M  V30 50 1 12 47
M  V30 51 1 14 48
M  V30 52 1 18 49
M  V30 53 1 19 50
M  V30 54 1 26 51
M  V30 55 1 27 52
M  V30 56 1 28 53
M  V30 57 1 32 54
M  V30 58 1 32 55
M  V30 59 1 33 56 CFG=1
M  V30 60 1 34 57
M  V30 61 1 34 58
M  V30 62 1 34 59
M  V30 END BOND
M  V30 END CTAB
M  END
>  <Dataset>  (321) 
ChEMBL_Kinases

>  <Ligand_Instance>  (321) 
nan

>  <PDB_ID>  (321) 
nan

>  <Standardized_SMILES>  (321) 
CS[C@H]1[C@H](N)C[C@H](c2ccncc2NC(=O)c2ccc(F)c(-c3c(F)cccc3F)n2)C[C@@H]1C

>  <Name>  (321) 
nan

>  <Pocket>  (321) 
nan

>  <ATP_Site>  (321) 
nan

>  <Peripheral>  (321) 
nan

>  <Num_H_Atoms_ProtBoundConf>  (321) 
nan

>  <Num_Resolved_Atoms>  (321) 
nan

>  <Num_Not_Resolved_Atoms>  (321) 
nan

$$$$
CHEMBL439323
     RDKit          3D

  0  0  0  0  0  0  0  0  0  0999 V3000
M  V30 BEGIN CTAB
M  V30 COUNTS 46 47 0 0 0
M  V30 BEGIN ATOM
M  V30 1 C 2.517363 -5.475715 -0.313344 0
M  V30 2 C 1.298023 -4.718927 0.093708 0
M  V30 3 C 0.826870 -5.086332 1.506785 0
M  V30 4 O 0.206186 -4.864101 -0.804959 0
M  V30 5 C -0.305617 -3.683425 -1.328086 0
M  V30 6 N 0.150938 -2.446097 -1.049218 0
M  V30 7 C -0.336243 -1.319425 -1.547074 0
M  V30 8 C 0.256220 -0.032100 -1.157268 0
M  V30 9 O -0.220986 1.026460 -1.641038 0
M  V30 10 N 1.336346 0.039925 -0.262063 0
M  V30 11 C 2.010514 1.231496 0.205163 0
M  V30 12 C 1.197398 1.948554 1.232428 0
M  V30 13 C 1.411057 1.579803 2.562332 0
M  V30 14 C 0.765739 2.118816 3.644956 0
M  V30 15 C -0.174454 3.109080 3.403126 0
M  V30 16 S -1.035999 3.838362 4.754504 0
M  V30 17 C -0.187331 5.240469 5.373093 0
M  V30 18 O -1.145572 2.810516 5.840263 0
M  V30 19 O -2.421200 4.261839 4.302331 0
M  V30 20 C -0.403215 3.490350 2.098758 0
M  V30 21 C 0.257346 2.935020 1.022783 0
M  V30 22 C -1.396057 -1.361868 -2.426199 0
M  V30 23 C -1.922716 -2.597074 -2.763611 0
M  V30 24 N -3.021431 -2.722644 -3.667146 0
M  V30 25 C -1.371629 -3.754580 -2.209932 0
M  V30 26 Cl -2.024350 -5.303571 -2.626756 0
M  V30 27 H 2.366615 -5.987665 -1.281632 0
M  V30 28 H 3.381849 -4.767939 -0.417741 0
M  V30 29 H 2.776376 -6.256949 0.448063 0
M  V30 30 H 1.479626 -3.605396 0.150651 0
M  V30 31 H 0.176682 -5.970811 1.521309 0
M  V30 32 H 0.257180 -4.220508 1.943715 0
M  V30 33 H 1.743035 -5.168222 2.121830 0
M  V30 34 H 1.675866 -0.896107 0.095962 0
M  V30 35 H 2.982354 0.971025 0.632053 0
M  V30 36 H 2.205305 1.901662 -0.653297 0
M  V30 37 H 2.147448 0.800000 2.790113 0
M  V30 38 H 0.964179 1.803367 4.641039 0
M  V30 39 H -0.129836 5.170685 6.476806 0
M  V30 40 H -0.654966 6.203511 5.078637 0
M  V30 41 H 0.875445 5.197806 5.005495 0
M  V30 42 H -1.141547 4.269236 1.896252 0
M  V30 43 H 0.106118 3.206196 -0.002678 0
M  V30 44 H -1.820219 -0.455556 -2.853624 0
M  V30 45 H -3.146205 -1.916486 -4.343359 0
M  V30 46 H -3.624212 -3.589149 -3.605229 0
M  V30 END ATOM
M  V30 BEGIN BOND
M  V30 1 1 1 2
M  V30 2 1 2 3
M  V30 3 1 2 4
M  V30 4 1 4 5
M  V30 5 2 5 6
M  V30 6 1 6 7
M  V30 7 1 7 8
M  V30 8 2 8 9
M  V30 9 1 8 10
M  V30 10 1 10 11
M  V30 11 1 11 12
M  V30 12 2 12 13
M  V30 13 1 13 14
M  V30 14 2 14 15
M  V30 15 1 15 16
M  V30 16 1 16 17
M  V30 17 2 16 18
M  V30 18 2 16 19
M  V30 19 1 15 20
M  V30 20 2 20 21
M  V30 21 2 7 22
M  V30 22 1 22 23
M  V30 23 1 23 24
M  V30 24 2 23 25
M  V30 25 1 25 26
M  V30 26 1 25 5
M  V30 27 1 21 12
M  V30 28 1 1 27
M  V30 29 1 1 28
M  V30 30 1 1 29
M  V30 31 1 2 30
M  V30 32 1 3 31
M  V30 33 1 3 32
M  V30 34 1 3 33
M  V30 35 1 10 34
M  V30 36 1 11 35
M  V30 37 1 11 36
M  V30 38 1 13 37
M  V30 39 1 14 38
M  V30 40 1 17 39
M  V30 41 1 17 40
M  V30 42 1 17 41
M  V30 43 1 20 42
M  V30 44 1 21 43
M  V30 45 1 22 44
M  V30 46 1 24 45
M  V30 47 1 24 46
M  V30 END BOND
M  V30 END CTAB
M  END
>  <Dataset>  (322) 
ChEMBL_Kinases

>  <Ligand_Instance>  (322) 
nan

>  <PDB_ID>  (322) 
nan

>  <Standardized_SMILES>  (322) 
CC(C)Oc1nc(C(=O)NCc2ccc(S(C)(=O)=O)cc2)cc(N)c1Cl

>  <Name>  (322) 
nan

>  <Pocket>  (322) 
nan

>  <ATP_Site>  (322) 
nan

>  <Peripheral>  (322) 
nan

>  <Num_H_Atoms_ProtBoundConf>  (322) 
nan

>  <Num_Resolved_Atoms>  (322) 
nan

>  <Num_Not_Resolved_Atoms>  (322) 
nan

$$$$
CHEMBL260397
     RDKit          3D

  0  0  0  0  0  0  0  0  0  0999 V3000
M  V30 BEGIN CTAB
M  V30 COUNTS 68 74 0 0 0
M  V30 BEGIN ATOM
M  V30 1 O 3.416726 1.302656 5.738937 0
M  V30 2 C 4.173601 0.341969 5.105590 0
M  V30 3 N 5.211855 -0.273204 5.720628 0
M  V30 4 C 5.742768 -1.157264 4.832322 0
M  V30 5 C 6.790753 -2.059466 4.859479 0
M  V30 6 C 7.048575 -2.815685 3.737971 0
M  V30 7 C 6.328851 -2.744344 2.561611 0
M  V30 8 C 5.271426 -1.829123 2.544569 0
M  V30 9 C 4.991720 -1.058942 3.655233 0
M  V30 10 N 4.036926 -0.128298 3.860421 0
M  V30 11 C 3.054369 0.259251 2.868587 0
M  V30 12 C 1.780212 0.743481 3.490051 0
M  V30 13 C 0.739742 0.862948 2.368835 0
M  V30 14 N 1.207080 1.626930 1.273459 0
M  V30 15 C 1.383571 0.984285 0.025254 0
M  V30 16 C 0.217500 0.357997 -0.586710 0
M  V30 17 C -0.622746 1.086410 -1.434394 0
M  V30 18 C -1.732361 0.534860 -2.035864 0
M  V30 19 C -2.065384 -0.778068 -1.823717 0
M  V30 20 C -3.195194 -1.522338 -2.374315 0
M  V30 21 N -2.734613 -2.549423 -3.147805 0
M  V30 22 C -3.598971 -3.395879 -3.775445 0
M  V30 23 C -3.136869 -4.446266 -4.566005 0
M  V30 24 C -4.047929 -5.280296 -5.183590 0
M  V30 25 C -5.399122 -5.089853 -5.030204 0
M  V30 26 C -5.780770 -4.032961 -4.235402 0
M  V30 27 C -4.954890 -3.151436 -3.581545 0
M  V30 28 N -5.411347 -2.146640 -2.824809 0
M  V30 29 C -4.552725 -1.329290 -2.218914 0
M  V30 30 C -4.868723 -0.203851 -1.372214 0
M  V30 31 C -4.400228 -0.381546 -0.068271 0
M  V30 32 C -4.623740 0.619412 0.881617 0
M  V30 33 C -5.296255 1.790568 0.581601 0
M  V30 34 C -5.749392 1.937397 -0.722579 0
M  V30 35 C -5.540089 0.962895 -1.675805 0
M  V30 36 C -1.243916 -1.515459 -0.986413 0
M  V30 37 C -0.112492 -0.986041 -0.361878 0
M  V30 38 C 2.433677 2.322946 1.619372 0
M  V30 39 C 3.538153 1.317553 1.924540 0
M  V30 40 H 2.875583 1.102747 6.558826 0
M  V30 41 H 7.380655 -2.144438 5.767745 0
M  V30 42 H 7.877642 -3.525362 3.768309 0
M  V30 43 H 6.604590 -3.378420 1.731018 0
M  V30 44 H 4.695301 -1.760644 1.627230 0
M  V30 45 H 2.781091 -0.631542 2.249700 0
M  V30 46 H 1.405074 -0.057153 4.168937 0
M  V30 47 H 1.857045 1.721085 4.004941 0
M  V30 48 H 0.397541 -0.148596 2.164715 0
M  V30 49 H -0.132216 1.369715 2.881855 0
M  V30 50 H 1.791730 1.748758 -0.683372 0
M  V30 51 H 2.190897 0.197095 0.078040 0
M  V30 52 H -0.398969 2.136064 -1.634210 0
M  V30 53 H -2.396912 1.070674 -2.692559 0
M  V30 54 H -2.063746 -4.563625 -4.662475 0
M  V30 55 H -3.654512 -6.089301 -5.792767 0
M  V30 56 H -6.130600 -5.733096 -5.506305 0
M  V30 57 H -6.861607 -3.875127 -4.108397 0
M  V30 58 H -3.854242 -1.228258 0.353606 0
M  V30 59 H -4.282177 0.540397 1.919051 0
M  V30 60 H -5.464931 2.560782 1.323614 0
M  V30 61 H -6.286047 2.832894 -1.029160 0
M  V30 62 H -5.866100 1.012488 -2.709804 0
M  V30 63 H -1.438385 -2.576312 -0.761761 0
M  V30 64 H 0.493710 -1.608643 0.279972 0
M  V30 65 H 2.771152 2.937724 0.772472 0
M  V30 66 H 2.307940 2.998290 2.485131 0
M  V30 67 H 4.383908 1.846938 2.374862 0
M  V30 68 H 3.899613 0.888120 0.961357 0
M  V30 END ATOM
M  V30 BEGIN BOND
M  V30 1 1 1 2
M  V30 2 2 2 3
M  V30 3 1 3 4
M  V30 4 2 4 5
M  V30 5 1 5 6
M  V30 6 2 6 7
M  V30 7 1 7 8
M  V30 8 2 8 9
M  V30 9 1 9 10
M  V30 10 1 10 11
M  V30 11 1 11 12
M  V30 12 1 12 13
M  V30 13 1 13 14
M  V30 14 1 14 15
M  V30 15 1 15 16
M  V30 16 2 16 17
M  V30 17 1 17 18
M  V30 18 2 18 19
M  V30 19 1 19 20
M  V30 20 2 20 21
M  V30 21 1 21 22
M  V30 22 2 22 23
M  V30 23 1 23 24
M  V30 24 2 24 25
M  V30 25 1 25 26
M  V30 26 2 26 27
M  V30 27 1 27 28
M  V30 28 2 28 29
M  V30 29 1 29 30
M  V30 30 2 30 31
M  V30 31 1 31 32
M  V30 32 2 32 33
M  V30 33 1 33 34
M  V30 34 2 34 35
M  V30 35 1 19 36
M  V30 36 2 36 37
M  V30 37 1 14 38
M  V30 38 1 38 39
M  V30 39 1 10 2
M  V30 40 1 39 11
M  V30 41 1 9 4
M  V30 42 1 37 16
M  V30 43 1 29 20
M  V30 44 1 35 30
M  V30 45 1 27 22
M  V30 46 1 1 40
M  V30 47 1 5 41
M  V30 48 1 6 42
M  V30 49 1 7 43
M  V30 50 1 8 44
M  V30 51 1 11 45
M  V30 52 1 12 46
M  V30 53 1 12 47
M  V30 54 1 13 48
M  V30 55 1 13 49
M  V30 56 1 15 50
M  V30 57 1 15 51
M  V30 58 1 17 52
M  V30 59 1 18 53
M  V30 60 1 23 54
M  V30 61 1 24 55
M  V30 62 1 25 56
M  V30 63 1 26 57
M  V30 64 1 31 58
M  V30 65 1 32 59
M  V30 66 1 33 60
M  V30 67 1 34 61
M  V30 68 1 35 62
M  V30 69 1 36 63
M  V30 70 1 37 64
M  V30 71 1 38 65
M  V30 72 1 38 66
M  V30 73 1 39 67
M  V30 74 1 39 68
M  V30 END BOND
M  V30 END CTAB
M  END
>  <Dataset>  (323) 
ChEMBL_Kinases

>  <Ligand_Instance>  (323) 
nan

>  <PDB_ID>  (323) 
nan

>  <Standardized_SMILES>  (323) 
Oc1nc2ccccc2n1C1CCN(Cc2ccc(-c3nc4ccccc4nc3-c3ccccc3)cc2)CC1

>  <Name>  (323) 
nan

>  <Pocket>  (323) 
nan

>  <ATP_Site>  (323) 
nan

>  <Peripheral>  (323) 
nan

>  <Num_H_Atoms_ProtBoundConf>  (323) 
nan

>  <Num_Resolved_Atoms>  (323) 
nan

>  <Num_Not_Resolved_Atoms>  (323) 
nan

$$$$
CHEMBL3687449
     RDKit          3D

  0  0  0  0  0  0  0  0  0  0999 V3000
M  V30 BEGIN CTAB
M  V30 COUNTS 65 68 0 0 0
M  V30 BEGIN ATOM
M  V30 1 C 1.186185 -1.544313 2.343411 0
M  V30 2 C 1.823788 -1.712351 0.997648 0 CFG=1
M  V30 3 C 0.866437 -1.304568 -0.146412 0
M  V30 4 C 1.438015 -1.961858 -1.344718 0 CFG=1
M  V30 5 C 0.706503 -1.943617 -2.598841 0
M  V30 6 C 1.448083 -2.091448 -3.771625 0
M  V30 7 C 0.846877 -2.130524 -5.010229 0
M  V30 8 N -0.495204 -2.029108 -5.170810 0
M  V30 9 C -1.266517 -1.884216 -4.073597 0
M  V30 10 C -0.641342 -1.847426 -2.847432 0
M  V30 11 N -1.531860 -1.680339 -1.752466 0
M  V30 12 C -1.706793 -0.247950 -1.600789 0
M  V30 13 O -1.075738 0.499973 -2.415839 0
M  V30 14 C -2.579124 0.321149 -0.546741 0
M  V30 15 C -2.681075 1.670497 -0.481921 0
M  V30 16 C -3.490793 2.223518 0.495042 0
M  V30 17 C -4.186272 1.408470 1.392805 0
M  V30 18 F -4.999308 1.859179 2.378385 0
M  V30 19 C -4.048161 0.032011 1.284544 0
M  V30 20 C -4.724598 -0.920996 2.164930 0
M  V30 21 C -4.073159 -1.293618 3.305731 0
M  V30 22 F -2.851247 -0.855084 3.693208 0
M  V30 23 C -4.667897 -2.189003 4.167650 0
M  V30 24 C -5.931105 -2.693160 3.845187 0
M  V30 25 C -6.571567 -2.303825 2.688210 0
M  V30 26 C -5.973217 -1.408356 1.829383 0
M  V30 27 F -6.600806 -1.017555 0.680766 0
M  V30 28 N -3.259031 -0.474665 0.330995 0
M  V30 29 C 2.884000 -1.534761 -1.589837 0
M  V30 30 C 3.550432 -0.771892 -0.534169 0 CFG=1
M  V30 31 N 3.766976 0.621455 -0.986189 0
M  V30 32 C 3.023086 -0.816939 0.848622 0 CFG=1
M  V30 33 O 2.565685 0.486435 1.153055 0
M  V30 34 P 3.335688 1.142866 2.489425 0
M  V30 35 C 2.085976 1.652453 3.701294 0
M  V30 36 C 4.195505 2.649333 1.912528 0
M  V30 37 O 4.365445 0.218209 3.055455 0
M  V30 38 H 0.345400 -0.834371 2.342250 0
M  V30 39 H 0.871373 -2.544156 2.741277 0
M  V30 40 H 1.946847 -1.173215 3.069767 0
M  V30 41 H 2.067403 -2.782500 0.842743 0
M  V30 42 H -0.109383 -1.777468 0.150962 0
M  V30 43 H 0.770331 -0.246485 -0.092405 0
M  V30 44 H 1.522092 -3.034268 -1.045393 0
M  V30 45 H 2.514838 -2.201412 -3.907616 0
M  V30 46 H 1.336350 -2.241566 -5.976729 0
M  V30 47 H -2.338518 -1.802191 -4.182300 0
M  V30 48 H -2.048912 -2.333824 -1.089681 0
M  V30 49 H -2.188571 2.380516 -1.124017 0
M  V30 50 H -3.611320 3.272585 0.596422 0
M  V30 51 H -4.308015 -2.589777 5.098410 0
M  V30 52 H -6.521439 -3.407650 4.431899 0
M  V30 53 H -7.560601 -2.669728 2.391391 0
M  V30 54 H 3.507329 -2.386374 -1.918506 0
M  V30 55 H 2.842024 -0.868480 -2.506845 0
M  V30 56 H 4.623569 -1.149379 -0.459163 0
M  V30 57 H 4.047009 0.538751 -1.989105 0
M  V30 58 H 4.588307 1.015539 -0.479940 0
M  V30 59 H 3.797369 -1.040470 1.619931 0
M  V30 60 H 1.814706 2.731787 3.574877 0
M  V30 61 H 2.414681 1.443042 4.752310 0
M  V30 62 H 1.141553 1.082368 3.573090 0
M  V30 63 H 4.078547 3.468475 2.638600 0
M  V30 64 H 5.270639 2.407892 1.725636 0
M  V30 65 H 3.771464 3.006581 0.940269 0
M  V30 END ATOM
M  V30 BEGIN BOND
M  V30 1 1 1 2
M  V30 2 1 2 3
M  V30 3 1 3 4
M  V30 4 1 4 5
M  V30 5 2 5 6
M  V30 6 1 6 7
M  V30 7 2 7 8
M  V30 8 1 8 9
M  V30 9 2 9 10
M  V30 10 1 10 11
M  V30 11 1 11 12
M  V30 12 2 12 13
M  V30 13 1 12 14
M  V30 14 2 14 15
M  V30 15 1 15 16
M  V30 16 2 16 17
M  V30 17 1 17 18
M  V30 18 1 17 19
M  V30 19 1 19 20
M  V30 20 2 20 21
M  V30 21 1 21 22
M  V30 22 1 21 23
M  V30 23 2 23 24
M  V30 24 1 24 25
M  V30 25 2 25 26
M  V30 26 1 26 27
M  V30 27 2 19 28
M  V30 28 1 4 29
M  V30 29 1 29 30
M  V30 30 1 30 31
M  V30 31 1 30 32
M  V30 32 1 32 33
M  V30 33 1 33 34
M  V30 34 1 34 35
M  V30 35 1 34 36
M  V30 36 2 34 37
M  V30 37 1 32 2
M  V30 38 1 10 5
M  V30 39 1 28 14
M  V30 40 1 26 20
M  V30 41 1 1 38
M  V30 42 1 1 39
M  V30 43 1 1 40
M  V30 44 1 2 41 CFG=3
M  V30 45 1 3 42
M  V30 46 1 3 43
M  V30 47 1 4 44 CFG=1
M  V30 48 1 6 45
M  V30 49 1 7 46
M  V30 50 1 9 47
M  V30 51 1 11 48
M  V30 52 1 15 49
M  V30 53 1 16 50
M  V30 54 1 23 51
M  V30 55 1 24 52
M  V30 56 1 25 53
M  V30 57 1 29 54
M  V30 58 1 29 55
M  V30 59 1 30 56 CFG=1
M  V30 60 1 31 57
M  V30 61 1 31 58
M  V30 62 1 32 59 CFG=1
M  V30 63 1 35 60
M  V30 64 1 35 61
M  V30 65 1 35 62
M  V30 66 1 36 63
M  V30 67 1 36 64
M  V30 68 1 36 65
M  V30 END BOND
M  V30 END CTAB
M  END
>  <Dataset>  (324) 
ChEMBL_Kinases

>  <Ligand_Instance>  (324) 
nan

>  <PDB_ID>  (324) 
nan

>  <Standardized_SMILES>  (324) 
C[C@H]1C[C@@H](c2ccncc2NC(=O)c2ccc(F)c(-c3c(F)cccc3F)n2)C[C@@H](N)[C@H]1OP(C)(C)=O

>  <Name>  (324) 
nan

>  <Pocket>  (324) 
nan

>  <ATP_Site>  (324) 
nan

>  <Peripheral>  (324) 
nan

>  <Num_H_Atoms_ProtBoundConf>  (324) 
nan

>  <Num_Resolved_Atoms>  (324) 
nan

>  <Num_Not_Resolved_Atoms>  (324) 
nan

$$$$
CHEMBL258845
     RDKit          3D

  0  0  0  0  0  0  0  0  0  0999 V3000
M  V30 BEGIN CTAB
M  V30 COUNTS 56 59 0 0 0
M  V30 BEGIN ATOM
M  V30 1 C 2.309087 -3.073915 2.924526 0
M  V30 2 C 1.961988 -1.612921 2.687993 0
M  V30 3 C 0.603099 -1.469597 2.136309 0
M  V30 4 O 0.701107 -2.685708 2.278214 0
M  V30 5 C -0.323857 -0.469441 1.683476 0
M  V30 6 C 0.029146 0.854987 1.714001 0
M  V30 7 C 1.292264 1.380156 2.171223 0
M  V30 8 C 1.552375 1.770551 3.490118 0
M  V30 9 C 2.799947 2.263894 3.810531 0
M  V30 10 C 3.838675 2.407791 2.915293 0
M  V30 11 C 3.569797 2.019621 1.618979 0
M  V30 12 C 2.337717 1.520563 1.250884 0
M  V30 13 C -0.880133 1.791950 1.280244 0
M  V30 14 C -0.589818 3.139758 1.284221 0
M  V30 15 C -1.522116 4.057780 0.843138 0
M  V30 16 Cl -1.068577 5.767597 0.881558 0
M  V30 17 C -2.762883 3.659538 0.388346 0
M  V30 18 C -3.065418 2.312123 0.379497 0
M  V30 19 C -2.123110 1.409387 0.823283 0
M  V30 20 C -2.365176 0.053165 0.838784 0
M  V30 21 O -3.523502 -0.279856 0.411018 0
M  V30 22 N -1.506685 -0.921807 1.255403 0
M  V30 23 C -1.997813 -2.274225 1.175216 0
M  V30 24 C -1.686809 -2.834389 -0.169298 0
M  V30 25 C -0.645030 -3.579105 -0.678810 0
M  V30 26 C -0.835685 -3.841747 -2.018607 0
M  V30 27 C 0.045250 -4.597269 -2.900161 0
M  V30 28 N 1.245328 -5.146247 -2.368376 0
M  V30 29 O -0.200641 -4.789544 -4.108790 0
M  V30 30 N -2.004400 -3.248782 -2.317704 0
M  V30 31 C -2.660128 -3.234971 -3.631943 0
M  V30 32 C -2.102973 -1.979790 -4.315763 0
M  V30 33 N -2.508412 -2.659384 -1.248206 0
M  V30 34 H 3.350560 -3.141833 3.358450 0
M  V30 35 H 1.652040 -3.456671 3.729006 0
M  V30 36 H 2.307818 -3.659580 2.000316 0
M  V30 37 H 2.045799 -1.050446 3.653914 0
M  V30 38 H 2.767165 -1.226987 2.024218 0
M  V30 39 H 0.750788 1.662613 4.194929 0
M  V30 40 H 2.935175 2.549897 4.858307 0
M  V30 41 H 4.758176 2.804792 3.296723 0
M  V30 42 H 4.379734 2.128184 0.904792 0
M  V30 43 H 2.197398 1.233909 0.208177 0
M  V30 44 H 0.376352 3.488821 1.635102 0
M  V30 45 H -3.493477 4.392466 0.041583 0
M  V30 46 H -4.043916 1.953490 0.024442 0
M  V30 47 H -3.109306 -2.267263 1.269335 0
M  V30 48 H -1.565355 -2.956083 1.939187 0
M  V30 49 H 0.181345 -3.897045 -0.096845 0
M  V30 50 H 2.185451 -4.987307 -2.780014 0
M  V30 51 H 1.032029 -5.725156 -1.511605 0
M  V30 52 H -2.445260 -4.147201 -4.198036 0
M  V30 53 H -3.766788 -3.130696 -3.474777 0
M  V30 54 H -2.079478 -2.129057 -5.411747 0
M  V30 55 H -2.681096 -1.087201 -4.017995 0
M  V30 56 H -1.024261 -1.867675 -4.009212 0
M  V30 END ATOM
M  V30 BEGIN BOND
M  V30 1 1 1 2
M  V30 2 1 2 3
M  V30 3 2 3 4
M  V30 4 1 3 5
M  V30 5 2 5 6
M  V30 6 1 6 7
M  V30 7 2 7 8
M  V30 8 1 8 9
M  V30 9 2 9 10
M  V30 10 1 10 11
M  V30 11 2 11 12
M  V30 12 1 6 13
M  V30 13 2 13 14
M  V30 14 1 14 15
M  V30 15 1 15 16
M  V30 16 2 15 17
M  V30 17 1 17 18
M  V30 18 2 18 19
M  V30 19 1 19 20
M  V30 20 2 20 21
M  V30 21 1 20 22
M  V30 22 1 22 23
M  V30 23 1 23 24
M  V30 24 1 24 25
M  V30 25 2 25 26
M  V30 26 1 26 27
M  V30 27 1 27 28
M  V30 28 2 27 29
M  V30 29 1 26 30
M  V30 30 1 30 31
M  V30 31 1 31 32
M  V30 32 1 30 33
M  V30 33 1 22 5
M  V30 34 2 33 24
M  V30 35 1 12 7
M  V30 36 1 19 13
M  V30 37 1 1 34
M  V30 38 1 1 35
M  V30 39 1 1 36
M  V30 40 1 2 37
M  V30 41 1 2 38
M  V30 42 1 8 39
M  V30 43 1 9 40
M  V30 44 1 10 41
M  V30 45 1 11 42
M  V30 46 1 12 43
M  V30 47 1 14 44
M  V30 48 1 17 45
M  V30 49 1 18 46
M  V30 50 1 23 47
M  V30 51 1 23 48
M  V30 52 1 25 49
M  V30 53 1 28 50
M  V30 54 1 28 51
M  V30 55 1 31 52
M  V30 56 1 31 53
M  V30 57 1 32 54
M  V30 58 1 32 55
M  V30 59 1 32 56
M  V30 END BOND
M  V30 END CTAB
M  END
>  <Dataset>  (325) 
ChEMBL_Kinases

>  <Ligand_Instance>  (325) 
nan

>  <PDB_ID>  (325) 
nan

>  <Standardized_SMILES>  (325) 
CCC(=O)c1c(-c2ccccc2)c2cc(Cl)ccc2c(=O)n1Cc1cc(C(N)=O)n(CC)n1

>  <Name>  (325) 
nan

>  <Pocket>  (325) 
nan

>  <ATP_Site>  (325) 
nan

>  <Peripheral>  (325) 
nan

>  <Num_H_Atoms_ProtBoundConf>  (325) 
nan

>  <Num_Resolved_Atoms>  (325) 
nan

>  <Num_Not_Resolved_Atoms>  (325) 
nan

$$$$
CHEMBL3702048
     RDKit          3D

  0  0  0  0  0  0  0  0  0  0999 V3000
M  V30 BEGIN CTAB
M  V30 COUNTS 52 56 0 0 0
M  V30 BEGIN ATOM
M  V30 1 C -1.317829 -2.268881 8.773124 0
M  V30 2 C -1.505049 -2.813445 7.361860 0
M  V30 3 O -0.896400 -1.852271 6.505791 0
M  V30 4 C -0.846800 -1.967064 5.142884 0
M  V30 5 O -1.435432 -3.054666 4.914714 0
M  V30 6 C -0.219398 -0.973515 4.277078 0
M  V30 7 C 0.343616 0.126489 4.889024 0
M  V30 8 C 0.933042 1.057934 4.061662 0
M  V30 9 C 0.953056 0.888711 2.694007 0
M  V30 10 N 1.519367 1.757848 1.723655 0
M  V30 11 C 1.539713 1.582239 0.318441 0
M  V30 12 N 2.149906 2.571931 -0.397375 0
M  V30 13 C 2.221977 2.499187 -1.734447 0
M  V30 14 C 1.657326 1.393235 -2.327680 0
M  V30 15 C 1.604579 1.092419 -3.673333 0
M  V30 16 C 2.062609 1.742531 -4.804642 0
M  V30 17 C 1.871416 1.203855 -6.061884 0
M  V30 18 N 1.227641 0.037735 -6.103789 0
M  V30 19 C 0.775541 -0.608982 -5.019440 0
M  V30 20 C 0.940527 -0.114154 -3.742000 0
M  V30 21 N 0.583580 -0.571477 -2.530577 0
M  V30 22 C -0.123066 -1.789342 -2.177230 0
M  V30 23 C -0.866015 -1.472293 -0.878453 0
M  V30 24 C -2.165172 -2.201957 -0.900875 0
M  V30 25 C -2.232131 -2.881816 -2.220774 0
M  V30 26 C -1.186395 -2.210410 -3.118433 0
M  V30 27 C 1.031853 0.371017 -1.645364 0
M  V30 28 N 0.997294 0.514450 -0.286916 0
M  V30 29 N 0.383986 -0.204824 2.197620 0
M  V30 30 C -0.216011 -1.172062 2.912500 0
M  V30 31 H -1.437695 -3.054200 9.543345 0
M  V30 32 H -2.112467 -1.508761 8.918766 0
M  V30 33 H -0.304679 -1.800137 8.848421 0
M  V30 34 H -2.605309 -2.867074 7.178499 0
M  V30 35 H -1.097946 -3.817671 7.252334 0
M  V30 36 H 0.354202 0.305430 5.954758 0
M  V30 37 H 1.402872 1.954233 4.428282 0
M  V30 38 H 1.939019 2.579576 2.181758 0
M  V30 39 H 2.709031 3.292749 -2.282451 0
M  V30 40 H 2.582312 2.692534 -4.714440 0
M  V30 41 H 2.253734 1.762332 -6.904544 0
M  V30 42 H 0.269382 -1.548284 -5.178753 0
M  V30 43 H 0.593080 -2.623152 -1.998782 0
M  V30 44 H -0.227479 -1.771276 -0.015635 0
M  V30 45 H -1.112505 -0.386870 -0.873874 0
M  V30 46 H -3.057656 -1.535149 -0.718644 0
M  V30 47 H -2.185017 -2.899320 -0.024478 0
M  V30 48 H -1.988289 -3.950964 -2.055124 0
M  V30 49 H -3.230747 -2.847164 -2.698731 0
M  V30 50 H -1.638030 -1.427952 -3.737653 0
M  V30 51 H -0.853590 -3.072442 -3.773913 0
M  V30 52 H -0.675211 -2.055404 2.505401 0
M  V30 END ATOM
M  V30 BEGIN BOND
M  V30 1 1 1 2
M  V30 2 1 2 3
M  V30 3 1 3 4
M  V30 4 2 4 5
M  V30 5 1 4 6
M  V30 6 2 6 7
M  V30 7 1 7 8
M  V30 8 2 8 9
M  V30 9 1 9 10
M  V30 10 1 10 11
M  V30 11 2 11 12
M  V30 12 1 12 13
M  V30 13 2 13 14
M  V30 14 1 14 15
M  V30 15 2 15 16
M  V30 16 1 16 17
M  V30 17 2 17 18
M  V30 18 1 18 19
M  V30 19 2 19 20
M  V30 20 1 20 21
M  V30 21 1 21 22
M  V30 22 1 22 23
M  V30 23 1 23 24
M  V30 24 1 24 25
M  V30 25 1 25 26
M  V30 26 1 21 27
M  V30 27 2 27 28
M  V30 28 1 9 29
M  V30 29 2 29 30
M  V30 30 1 30 6
M  V30 31 1 28 11
M  V30 32 1 27 14
M  V30 33 1 20 15
M  V30 34 1 26 22
M  V30 35 1 1 31
M  V30 36 1 1 32
M  V30 37 1 1 33
M  V30 38 1 2 34
M  V30 39 1 2 35
M  V30 40 1 7 36
M  V30 41 1 8 37
M  V30 42 1 10 38
M  V30 43 1 13 39
M  V30 44 1 16 40
M  V30 45 1 17 41
M  V30 46 1 19 42
M  V30 47 1 22 43
M  V30 48 1 23 44
M  V30 49 1 23 45
M  V30 50 1 24 46
M  V30 51 1 24 47
M  V30 52 1 25 48
M  V30 53 1 25 49
M  V30 54 1 26 50
M  V30 55 1 26 51
M  V30 56 1 30 52
M  V30 END BOND
M  V30 END CTAB
M  END
>  <Dataset>  (326) 
ChEMBL_Kinases

>  <Ligand_Instance>  (326) 
nan

>  <PDB_ID>  (326) 
nan

>  <Standardized_SMILES>  (326) 
CCOC(=O)c1ccc(Nc2ncc3c4ccncc4n(C4CCCC4)c3n2)nc1

>  <Name>  (326) 
nan

>  <Pocket>  (326) 
nan

>  <ATP_Site>  (326) 
nan

>  <Peripheral>  (326) 
nan

>  <Num_H_Atoms_ProtBoundConf>  (326) 
nan

>  <Num_Resolved_Atoms>  (326) 
nan

>  <Num_Not_Resolved_Atoms>  (326) 
nan

$$$$
CHEMBL3687468
     RDKit          3D

  0  0  0  0  0  0  0  0  0  0999 V3000
M  V30 BEGIN CTAB
M  V30 COUNTS 68 71 0 0 0
M  V30 BEGIN ATOM
M  V30 1 C 4.972728 -3.698667 2.503429 0
M  V30 2 O 3.973502 -2.838683 1.931790 0
M  V30 3 C 4.397932 -1.617632 1.490534 0
M  V30 4 O 5.626394 -1.363465 1.627702 0
M  V30 5 N 3.723544 -0.516293 0.879466 0
M  V30 6 C 4.734441 0.494424 0.646890 0
M  V30 7 C 2.300164 -0.553045 0.609302 0 CFG=2
M  V30 8 C 1.933358 -0.504708 -0.838932 0 CFG=2
M  V30 9 N 2.855718 -1.283402 -1.643877 0
M  V30 10 C 1.813557 0.865982 -1.409985 0
M  V30 11 N 1.100701 1.817304 -0.607062 0
M  V30 12 C 0.103175 2.707326 -1.087410 0
M  V30 13 C 0.490479 4.047065 -0.962291 0
M  V30 14 C -0.433905 4.993437 -1.419500 0
M  V30 15 N -1.632373 4.643487 -1.952146 0
M  V30 16 C -1.996582 3.349999 -2.068243 0
M  V30 17 C -1.110955 2.358369 -1.626773 0
M  V30 18 N -1.482700 0.995435 -1.731772 0
M  V30 19 C -1.436873 -0.103968 -2.607251 0
M  V30 20 O -0.917276 -0.036609 -3.746304 0
M  V30 21 C -2.040187 -1.323078 -2.085660 0
M  V30 22 C -2.018189 -2.423902 -2.906094 0
M  V30 23 C -2.558236 -3.626401 -2.523964 0
M  V30 24 C -3.149690 -3.750084 -1.270334 0
M  V30 25 F -3.675103 -4.948198 -0.920549 0
M  V30 26 C -3.154844 -2.610598 -0.460629 0
M  V30 27 C -3.774351 -2.751036 0.843150 0
M  V30 28 C -5.139821 -2.467553 0.934935 0
M  V30 29 F -5.925482 -2.074534 -0.071290 0
M  V30 30 C -5.793321 -2.587878 2.166098 0
M  V30 31 C -5.110455 -2.982653 3.292929 0
M  V30 32 C -5.682532 -3.149229 4.648396 0
M  V30 33 C -3.745629 -3.260185 3.173924 0
M  V30 34 C -3.085289 -3.148957 1.978193 0
M  V30 35 F -1.759790 -3.409577 1.824609 0
M  V30 36 N -2.613726 -1.472842 -0.890382 0
M  V30 37 C 1.466444 1.827563 0.769930 0
M  V30 38 C 1.500458 0.463279 1.364764 0 CFG=2
M  V30 39 C 1.934747 0.571923 2.810814 0
M  V30 40 H 5.989443 -3.437662 2.173289 0
M  V30 41 H 4.932445 -3.557326 3.601086 0
M  V30 42 H 4.716440 -4.761058 2.310450 0
M  V30 43 H 4.382050 1.389272 0.123054 0
M  V30 44 H 5.526293 0.061736 -0.033016 0
M  V30 45 H 5.299853 0.746527 1.589371 0
M  V30 46 H 1.958495 -1.553850 0.973767 0
M  V30 47 H 0.945581 -1.009362 -0.955181 0
M  V30 48 H 2.512536 -2.274591 -1.771450 0
M  V30 49 H 3.831124 -1.241916 -1.317489 0
M  V30 50 H 2.828813 1.283496 -1.696973 0
M  V30 51 H 1.295794 0.811126 -2.390720 0
M  V30 52 H 1.429166 4.399633 -0.548207 0
M  V30 53 H -0.189495 6.043476 -1.348186 0
M  V30 54 H -2.949046 3.065160 -2.490913 0
M  V30 55 H -1.920566 0.940165 -0.768684 0
M  V30 56 H -1.564881 -2.356054 -3.886880 0
M  V30 57 H -2.523169 -4.479232 -3.197646 0
M  V30 58 H -6.843253 -2.383837 2.295484 0
M  V30 59 H -4.907769 -2.962429 5.428393 0
M  V30 60 H -6.519776 -2.454641 4.861463 0
M  V30 61 H -6.093371 -4.178916 4.706661 0
M  V30 62 H -3.132161 -3.574212 3.996468 0
M  V30 63 H 0.676676 2.390581 1.338859 0
M  V30 64 H 2.388937 2.423678 0.970001 0
M  V30 65 H 0.447157 0.074982 1.381121 0
M  V30 66 H 2.238478 -0.436411 3.161410 0
M  V30 67 H 1.043115 0.863391 3.400504 0
M  V30 68 H 2.693840 1.354988 2.962329 0
M  V30 END ATOM
M  V30 BEGIN BOND
M  V30 1 1 1 2
M  V30 2 1 2 3
M  V30 3 2 3 4
M  V30 4 1 3 5
M  V30 5 1 5 6
M  V30 6 1 5 7
M  V30 7 1 7 8
M  V30 8 1 8 9
M  V30 9 1 8 10
M  V30 10 1 10 11
M  V30 11 1 11 12
M  V30 12 2 12 13
M  V30 13 1 13 14
M  V30 14 2 14 15
M  V30 15 1 15 16
M  V30 16 2 16 17
M  V30 17 1 17 18
M  V30 18 1 18 19
M  V30 19 2 19 20
M  V30 20 1 19 21
M  V30 21 2 21 22
M  V30 22 1 22 23
M  V30 23 2 23 24
M  V30 24 1 24 25
M  V30 25 1 24 26
M  V30 26 1 26 27
M  V30 27 2 27 28
M  V30 28 1 28 29
M  V30 29 1 28 30
M  V30 30 2 30 31
M  V30 31 1 31 32
M  V30 32 1 31 33
M  V30 33 2 33 34
M  V30 34 1 34 35
M  V30 35 2 26 36
M  V30 36 1 11 37
M  V30 37 1 37 38
M  V30 38 1 38 39
M  V30 39 1 38 7
M  V30 40 1 17 12
M  V30 41 1 36 21
M  V30 42 1 34 27
M  V30 43 1 1 40
M  V30 44 1 1 41
M  V30 45 1 1 42
M  V30 46 1 6 43
M  V30 47 1 6 44
M  V30 48 1 6 45
M  V30 49 1 7 46 CFG=1
M  V30 50 1 8 47 CFG=1
M  V30 51 1 9 48
M  V30 52 1 9 49
M  V30 53 1 10 50
M  V30 54 1 10 51
M  V30 55 1 13 52
M  V30 56 1 14 53
M  V30 57 1 16 54
M  V30 58 1 18 55
M  V30 59 1 22 56
M  V30 60 1 23 57
M  V30 61 1 30 58
M  V30 62 1 32 59
M  V30 63 1 32 60
M  V30 64 1 32 61
M  V30 65 1 33 62
M  V30 66 1 37 63
M  V30 67 1 37 64
M  V30 68 1 38 65 CFG=1
M  V30 69 1 39 66
M  V30 70 1 39 67
M  V30 71 1 39 68
M  V30 END BOND
M  V30 END CTAB
M  END
>  <Dataset>  (327) 
ChEMBL_Kinases

>  <Ligand_Instance>  (327) 
nan

>  <PDB_ID>  (327) 
nan

>  <Standardized_SMILES>  (327) 
COC(=O)N(C)[C@@H]1[C@H](N)CN(c2ccncc2NC(=O)c2ccc(F)c(-c3c(F)cc(C)cc3F)n2)C[C@@H]1C

>  <Name>  (327) 
nan

>  <Pocket>  (327) 
nan

>  <ATP_Site>  (327) 
nan

>  <Peripheral>  (327) 
nan

>  <Num_H_Atoms_ProtBoundConf>  (327) 
nan

>  <Num_Resolved_Atoms>  (327) 
nan

>  <Num_Not_Resolved_Atoms>  (327) 
nan

$$$$
CHEMBL442229
     RDKit          3D

  0  0  0  0  0  0  0  0  0  0999 V3000
M  V30 BEGIN CTAB
M  V30 COUNTS 32 34 0 0 0
M  V30 BEGIN ATOM
M  V30 1 N 3.060596 -4.107923 3.919372 0
M  V30 2 C 2.137910 -3.743529 2.903007 0
M  V30 3 O 0.924216 -3.577460 3.252652 0
M  V30 4 N 2.515230 -3.560135 1.528530 0
M  V30 5 C 1.311248 -3.198729 0.815481 0
M  V30 6 C 0.456772 -4.124715 0.228139 0
M  V30 7 C -0.644752 -3.596428 -0.411558 0
M  V30 8 C -0.897576 -2.242444 -0.474507 0
M  V30 9 C -0.020761 -1.362765 0.123709 0
M  V30 10 C 1.096006 -1.836240 0.776300 0
M  V30 11 C -0.512635 -0.008013 -0.086799 0
M  V30 12 C -0.031956 1.149535 0.323355 0
M  V30 13 C -0.545002 2.486303 0.092221 0
M  V30 14 C -0.670969 3.339583 1.196154 0
M  V30 15 C -1.141952 4.566471 0.822579 0
M  V30 16 C -1.310650 4.464434 -0.556480 0
M  V30 17 N -0.950628 3.236626 -0.943287 0
M  V30 18 C -1.748063 -0.106583 -0.852119 0
M  V30 19 O -2.501865 0.814007 -1.250489 0
M  V30 20 N -1.957900 -1.495305 -1.075156 0
M  V30 21 H 3.767653 -4.450925 4.599211 0
M  V30 22 H 3.035350 -3.523376 4.782572 0
M  V30 23 H 3.530787 -3.725018 1.360009 0
M  V30 24 H 0.711793 -5.171852 0.313207 0
M  V30 25 H -1.322459 -4.331080 -0.876110 0
M  V30 26 H 1.749771 -1.105502 1.228419 0
M  V30 27 H 0.888013 1.045422 0.918956 0
M  V30 28 H -0.460154 3.179467 2.262857 0
M  V30 29 H -1.394441 5.508536 1.269032 0
M  V30 30 H -1.669317 5.202538 -1.285439 0
M  V30 31 H -0.948769 2.858130 -1.902319 0
M  V30 32 H -2.757610 -1.927329 -1.594122 0
M  V30 END ATOM
M  V30 BEGIN BOND
M  V30 1 1 1 2
M  V30 2 2 2 3
M  V30 3 1 2 4
M  V30 4 1 4 5
M  V30 5 2 5 6
M  V30 6 1 6 7
M  V30 7 2 7 8
M  V30 8 1 8 9
M  V30 9 2 9 10
M  V30 10 1 9 11
M  V30 11 2 11 12
M  V30 12 1 12 13
M  V30 13 2 13 14
M  V30 14 1 14 15
M  V30 15 2 15 16
M  V30 16 1 16 17
M  V30 17 1 11 18
M  V30 18 2 18 19
M  V30 19 1 18 20
M  V30 20 1 10 5
M  V30 21 1 17 13
M  V30 22 1 20 8
M  V30 23 1 1 21
M  V30 24 1 1 22
M  V30 25 1 4 23
M  V30 26 1 6 24
M  V30 27 1 7 25
M  V30 28 1 10 26
M  V30 29 1 12 27
M  V30 30 1 14 28
M  V30 31 1 15 29
M  V30 32 1 16 30
M  V30 33 1 17 31
M  V30 34 1 20 32
M  V30 END BOND
M  V30 END CTAB
M  END
>  <Dataset>  (328) 
ChEMBL_Kinases

>  <Ligand_Instance>  (328) 
nan

>  <PDB_ID>  (328) 
nan

>  <Standardized_SMILES>  (328) 
NC(=O)Nc1ccc2c(c1)/C(=C/c1ccc[nH]1)C(=O)N2

>  <Name>  (328) 
nan

>  <Pocket>  (328) 
nan

>  <ATP_Site>  (328) 
nan

>  <Peripheral>  (328) 
nan

>  <Num_H_Atoms_ProtBoundConf>  (328) 
nan

>  <Num_Resolved_Atoms>  (328) 
nan

>  <Num_Not_Resolved_Atoms>  (328) 
nan

$$$$
CHEMBL3687467
     RDKit          3D

  0  0  0  0  0  0  0  0  0  0999 V3000
M  V30 BEGIN CTAB
M  V30 COUNTS 55 58 0 0 0
M  V30 BEGIN ATOM
M  V30 1 C 1.406389 -3.179494 1.988642 0
M  V30 2 C 1.279251 -1.940990 1.123414 0 CFG=1
M  V30 3 C 2.395383 -0.991400 1.423733 0
M  V30 4 N 2.825877 -0.374441 0.184636 0
M  V30 5 C 2.814193 0.973110 -0.289203 0
M  V30 6 C 4.121571 1.383645 -0.579806 0
M  V30 7 C 4.377691 2.662838 -1.060445 0
M  V30 8 N 3.355050 3.505638 -1.244526 0
M  V30 9 C 2.114055 3.122048 -0.970800 0
M  V30 10 C 1.788192 1.870386 -0.492099 0
M  V30 11 N 0.528792 1.344715 -0.165171 0
M  V30 12 C 0.174582 1.576696 1.193134 0
M  V30 13 O 1.011192 2.204996 1.904846 0
M  V30 14 C -1.105841 1.107145 1.743638 0
M  V30 15 C -1.369844 1.374441 3.069973 0
M  V30 16 C -2.526520 0.995860 3.718797 0
M  V30 17 C -3.489253 0.305983 3.010396 0
M  V30 18 F -4.653453 -0.102938 3.570552 0
M  V30 19 C -3.191329 0.054321 1.680134 0
M  V30 20 C -4.196505 -0.673119 0.916753 0
M  V30 21 C -5.224186 -0.065734 0.211732 0
M  V30 22 F -5.297589 1.295380 0.234932 0
M  V30 23 C -6.150592 -0.836959 -0.497424 0
M  V30 24 C -6.060650 -2.214309 -0.509636 0
M  V30 25 C -5.039150 -2.845682 0.189599 0
M  V30 26 C -4.121443 -2.059957 0.893309 0
M  V30 27 F -3.132787 -2.734244 1.566541 0
M  V30 28 N -2.052027 0.435214 1.067707 0
M  V30 29 C 3.381394 -1.345754 -0.736362 0
M  V30 30 C 2.298610 -2.280095 -1.155817 0 CFG=1
M  V30 31 N 2.812084 -3.644966 -1.343219 0
M  V30 32 C 1.070639 -2.259842 -0.315133 0 CFG=1
M  V30 33 C 0.398291 -3.565284 -0.383465 0
M  V30 34 N -0.142182 -4.601185 -0.423945 0
M  V30 35 H 1.906125 -4.019653 1.502427 0
M  V30 36 H 0.382524 -3.553421 2.273897 0
M  V30 37 H 1.968152 -2.946162 2.916547 0
M  V30 38 H 0.347349 -1.433320 1.498128 0
M  V30 39 H 2.156171 -0.270615 2.224632 0
M  V30 40 H 3.300224 -1.549996 1.806884 0
M  V30 41 H 5.037233 0.799728 -0.475320 0
M  V30 42 H 5.363651 3.031382 -1.300437 0
M  V30 43 H 1.251147 3.775639 -1.105782 0
M  V30 44 H -0.191773 0.825420 -0.712695 0
M  V30 45 H -0.641114 1.912586 3.659304 0
M  V30 46 H -2.683534 1.228961 4.754541 0
M  V30 47 H -6.943694 -0.319660 -1.038807 0
M  V30 48 H -6.789171 -2.811405 -1.066785 0
M  V30 49 H -4.975071 -3.927021 0.175318 0
M  V30 50 H 4.133330 -1.970403 -0.170357 0
M  V30 51 H 3.934261 -0.894164 -1.582902 0
M  V30 52 H 2.005087 -1.964376 -2.198447 0
M  V30 53 H 2.055086 -4.229403 -1.764805 0
M  V30 54 H 3.564885 -3.623395 -2.065614 0
M  V30 55 H 0.364328 -1.497681 -0.747897 0
M  V30 END ATOM
M  V30 BEGIN BOND
M  V30 1 1 1 2
M  V30 2 1 2 3
M  V30 3 1 3 4
M  V30 4 1 4 5
M  V30 5 2 5 6
M  V30 6 1 6 7
M  V30 7 2 7 8
M  V30 8 1 8 9
M  V30 9 2 9 10
M  V30 10 1 10 11
M  V30 11 1 11 12
M  V30 12 2 12 13
M  V30 13 1 12 14
M  V30 14 2 14 15
M  V30 15 1 15 16
M  V30 16 2 16 17
M  V30 17 1 17 18
M  V30 18 1 17 19
M  V30 19 1 19 20
M  V30 20 2 20 21
M  V30 21 1 21 22
M  V30 22 1 21 23
M  V30 23 2 23 24
M  V30 24 1 24 25
M  V30 25 2 25 26
M  V30 26 1 26 27
M  V30 27 2 19 28
M  V30 28 1 4 29
M  V30 29 1 29 30
M  V30 30 1 30 31
M  V30 31 1 30 32
M  V30 32 1 32 33
M  V30 33 3 33 34
M  V30 34 1 32 2
M  V30 35 1 10 5
M  V30 36 1 28 14
M  V30 37 1 26 20
M  V30 38 1 1 35
M  V30 39 1 1 36
M  V30 40 1 1 37
M  V30 41 1 2 38 CFG=1
M  V30 42 1 3 39
M  V30 43 1 3 40
M  V30 44 1 6 41
M  V30 45 1 7 42
M  V30 46 1 9 43
M  V30 47 1 11 44
M  V30 48 1 15 45
M  V30 49 1 16 46
M  V30 50 1 23 47
M  V30 51 1 24 48
M  V30 52 1 25 49
M  V30 53 1 29 50
M  V30 54 1 29 51
M  V30 55 1 30 52 CFG=3
M  V30 56 1 31 53
M  V30 57 1 31 54
M  V30 58 1 32 55 CFG=3
M  V30 END BOND
M  V30 END CTAB
M  END
>  <Dataset>  (329) 
ChEMBL_Kinases

>  <Ligand_Instance>  (329) 
nan

>  <PDB_ID>  (329) 
nan

>  <Standardized_SMILES>  (329) 
C[C@H]1CN(c2ccncc2NC(=O)c2ccc(F)c(-c3c(F)cccc3F)n2)C[C@@H](N)[C@H]1C#N

>  <Name>  (329) 
nan

>  <Pocket>  (329) 
nan

>  <ATP_Site>  (329) 
nan

>  <Peripheral>  (329) 
nan

>  <Num_H_Atoms_ProtBoundConf>  (329) 
nan

>  <Num_Resolved_Atoms>  (329) 
nan

>  <Num_Not_Resolved_Atoms>  (329) 
nan

$$$$
CHEMBL3687466
     RDKit          3D

  0  0  0  0  0  0  0  0  0  0999 V3000
M  V30 BEGIN CTAB
M  V30 COUNTS 60 64 0 0 0
M  V30 BEGIN ATOM
M  V30 1 C 0.625469 -2.516665 2.317662 0
M  V30 2 C 0.983171 -1.421824 1.321294 0 CFG=1
M  V30 3 C 1.587814 -0.272858 2.049593 0
M  V30 4 N 2.192228 0.621797 1.084457 0
M  V30 5 C 1.828384 2.004801 1.110845 0
M  V30 6 C 2.947562 2.810663 1.340579 0
M  V30 7 C 2.836294 4.179831 1.406816 0
M  V30 8 N 1.612679 4.711121 1.242454 0
M  V30 9 C 0.511590 3.973397 1.019821 0
M  V30 10 C 0.593443 2.598045 0.948469 0
M  V30 11 N -0.449058 1.661586 0.722988 0
M  V30 12 C -0.618641 1.400059 -0.668609 0
M  V30 13 O 0.174459 2.038787 -1.411581 0
M  V30 14 C -1.622860 0.474120 -1.181851 0
M  V30 15 C -1.681021 0.312387 -2.551347 0
M  V30 16 C -2.605771 -0.550021 -3.144302 0
M  V30 17 C -3.474518 -1.248723 -2.319716 0
M  V30 18 F -4.414407 -2.114168 -2.785130 0
M  V30 19 C -3.394959 -1.068113 -0.949829 0
M  V30 20 C -4.286755 -1.779999 -0.037282 0
M  V30 21 C -5.464512 -1.078720 0.221381 0
M  V30 22 F -5.774077 0.127948 -0.300162 0
M  V30 23 C -6.417889 -1.622369 1.071585 0
M  V30 24 C -6.207866 -2.856798 1.665161 0
M  V30 25 C -5.038605 -3.535015 1.397985 0
M  V30 26 C -4.072323 -3.014446 0.553821 0
M  V30 27 F -2.899690 -3.597874 0.230117 0
M  V30 28 N -2.491220 -0.227801 -0.401391 0
M  V30 29 C 3.139365 0.108599 0.124812 0
M  V30 30 C 2.573982 -1.060427 -0.595891 0 CFG=1
M  V30 31 N 3.619815 -1.812146 -1.288572 0
M  V30 32 C 1.815701 -2.024876 0.242406 0 CFG=1
M  V30 33 N 2.628453 -3.133870 0.749364 0
M  V30 34 C 3.717411 -2.947945 1.508385 0
M  V30 35 N 4.268311 -4.154343 1.830310 0
M  V30 36 C 3.475172 -5.092312 1.239176 0
M  V30 37 N 2.488587 -4.454528 0.589988 0
M  V30 38 H 0.136830 -3.368935 1.795969 0
M  V30 39 H 1.523201 -2.942376 2.822697 0
M  V30 40 H -0.115288 -2.130302 3.062249 0
M  V30 41 H -0.001725 -1.097186 0.893184 0
M  V30 42 H 0.757560 0.242572 2.591668 0
M  V30 43 H 2.313943 -0.615503 2.814231 0
M  V30 44 H 3.977385 2.451825 1.484339 0
M  V30 45 H 3.679267 4.841911 1.583238 0
M  V30 46 H -0.487971 4.362612 0.882803 0
M  V30 47 H -1.106701 1.134584 1.371568 0
M  V30 48 H -1.041898 0.817738 -3.265430 0
M  V30 49 H -2.696961 -0.715857 -4.204175 0
M  V30 50 H -7.355157 -1.088117 1.291163 0
M  V30 51 H -6.951474 -3.305466 2.342514 0
M  V30 52 H -4.798439 -4.509729 1.824833 0
M  V30 53 H 4.135934 -0.079664 0.576056 0
M  V30 54 H 3.316425 0.907489 -0.628101 0
M  V30 55 H 1.922253 -0.674723 -1.425571 0
M  V30 56 H 3.416532 -2.823531 -1.309048 0
M  V30 57 H 3.878922 -1.379838 -2.191471 0
M  V30 58 H 1.089216 -2.533749 -0.459335 0
M  V30 59 H 4.211952 -2.086438 1.890176 0
M  V30 60 H 3.447149 -6.189580 1.167512 0
M  V30 END ATOM
M  V30 BEGIN BOND
M  V30 1 1 1 2
M  V30 2 1 2 3
M  V30 3 1 3 4
M  V30 4 1 4 5
M  V30 5 2 5 6
M  V30 6 1 6 7
M  V30 7 2 7 8
M  V30 8 1 8 9
M  V30 9 2 9 10
M  V30 10 1 10 11
M  V30 11 1 11 12
M  V30 12 2 12 13
M  V30 13 1 12 14
M  V30 14 2 14 15
M  V30 15 1 15 16
M  V30 16 2 16 17
M  V30 17 1 17 18
M  V30 18 1 17 19
M  V30 19 1 19 20
M  V30 20 2 20 21
M  V30 21 1 21 22
M  V30 22 1 21 23
M  V30 23 2 23 24
M  V30 24 1 24 25
M  V30 25 2 25 26
M  V30 26 1 26 27
M  V30 27 2 19 28
M  V30 28 1 4 29
M  V30 29 1 29 30
M  V30 30 1 30 31
M  V30 31 1 30 32
M  V30 32 1 32 33
M  V30 33 1 33 34
M  V30 34 2 34 35
M  V30 35 1 35 36
M  V30 36 2 36 37
M  V30 37 1 32 2
M  V30 38 1 37 33
M  V30 39 1 10 5
M  V30 40 1 28 14
M  V30 41 1 26 20
M  V30 42 1 1 38
M  V30 43 1 1 39
M  V30 44 1 1 40
M  V30 45 1 2 41 CFG=3
M  V30 46 1 3 42
M  V30 47 1 3 43
M  V30 48 1 6 44
M  V30 49 1 7 45
M  V30 50 1 9 46
M  V30 51 1 11 47
M  V30 52 1 15 48
M  V30 53 1 16 49
M  V30 54 1 23 50
M  V30 55 1 24 51
M  V30 56 1 25 52
M  V30 57 1 29 53
M  V30 58 1 29 54
M  V30 59 1 30 55 CFG=3
M  V30 60 1 31 56
M  V30 61 1 31 57
M  V30 62 1 32 58 CFG=3
M  V30 63 1 34 59
M  V30 64 1 36 60
M  V30 END BOND
M  V30 END CTAB
M  END
>  <Dataset>  (330) 
ChEMBL_Kinases

>  <Ligand_Instance>  (330) 
nan

>  <PDB_ID>  (330) 
nan

>  <Standardized_SMILES>  (330) 
C[C@H]1CN(c2ccncc2NC(=O)c2ccc(F)c(-c3c(F)cccc3F)n2)C[C@@H](N)[C@H]1n1cncn1

>  <Name>  (330) 
nan

>  <Pocket>  (330) 
nan

>  <ATP_Site>  (330) 
nan

>  <Peripheral>  (330) 
nan

>  <Num_H_Atoms_ProtBoundConf>  (330) 
nan

>  <Num_Resolved_Atoms>  (330) 
nan

>  <Num_Not_Resolved_Atoms>  (330) 
nan

$$$$
CHEMBL3687465
     RDKit          3D

  0  0  0  0  0  0  0  0  0  0999 V3000
M  V30 BEGIN CTAB
M  V30 COUNTS 58 61 0 0 0
M  V30 BEGIN ATOM
M  V30 1 C 5.272625 -3.863566 3.700432 0
M  V30 2 C 4.754946 -3.244972 2.452859 0
M  V30 3 C 3.613597 -3.759369 1.847160 0
M  V30 4 C 3.153914 -3.156112 0.677620 0
M  V30 5 F 2.041792 -3.706777 0.143855 0
M  V30 6 C 3.833335 -2.073577 0.151543 0
M  V30 7 C 3.216386 -1.565337 -1.073314 0
M  V30 8 N 2.288711 -0.613428 -0.866178 0
M  V30 9 C 1.604120 -0.015979 -1.859233 0
M  V30 10 C 0.592589 1.020109 -1.657407 0
M  V30 11 O -0.038368 1.568133 -2.597314 0
M  V30 12 N 0.329181 1.409654 -0.305632 0
M  V30 13 C -0.566063 2.361490 0.250430 0
M  V30 14 C 0.020835 3.592490 0.440533 0
M  V30 15 N -0.751710 4.584854 0.963569 0
M  V30 16 C -2.051972 4.325021 1.272738 0
M  V30 17 C -2.575048 3.076235 1.058306 0
M  V30 18 C -1.866077 2.021614 0.535380 0
M  V30 19 N -2.480291 0.764209 0.343255 0
M  V30 20 C -3.869298 0.540883 0.567378 0
M  V30 21 C -4.142444 -0.386361 1.733371 0 CFG=1
M  V30 22 N -5.531870 -0.776087 1.670092 0
M  V30 23 C -3.291244 -1.635934 1.642780 0 CFG=1
M  V30 24 C -4.098503 -2.851618 1.763393 0
M  V30 25 N -4.721959 -3.820166 1.858293 0
M  V30 26 C -2.576127 -1.712847 0.309485 0 CFG=1
M  V30 27 C -3.509259 -2.234345 -0.749399 0
M  V30 28 C -1.871643 -0.456138 -0.081534 0
M  V30 29 C 1.852543 -0.385449 -3.164674 0
M  V30 30 C 2.797595 -1.358960 -3.417112 0
M  V30 31 C 3.495175 -1.964599 -2.371130 0
M  V30 32 F 4.440876 -2.927157 -2.496871 0
M  V30 33 C 4.966909 -1.567279 0.758347 0
M  V30 34 F 5.535538 -0.500483 0.134480 0
M  V30 35 C 5.424234 -2.162826 1.916625 0
M  V30 36 H 4.854538 -4.873093 3.870150 0
M  V30 37 H 6.362910 -3.819279 3.675305 0
M  V30 38 H 4.905537 -3.242499 4.558982 0
M  V30 39 H 3.104139 -4.611785 2.288049 0
M  V30 40 H 0.812157 1.033361 0.565798 0
M  V30 41 H 1.035535 3.825295 0.208247 0
M  V30 42 H -2.560008 5.183138 1.677761 0
M  V30 43 H -3.607513 3.065029 1.365459 0
M  V30 44 H -4.488409 1.437524 0.751414 0
M  V30 45 H -4.319582 0.092924 -0.361678 0
M  V30 46 H -3.961961 0.095882 2.699677 0
M  V30 47 H -5.941908 -0.555494 0.747324 0
M  V30 48 H -6.119790 -0.318306 2.398972 0
M  V30 49 H -2.535345 -1.669307 2.451802 0
M  V30 50 H -1.809445 -2.535143 0.462923 0
M  V30 51 H -3.472993 -1.684077 -1.705391 0
M  V30 52 H -3.295643 -3.298247 -1.026161 0
M  V30 53 H -4.554150 -2.278974 -0.339505 0
M  V30 54 H -1.841738 -0.473026 -1.213514 0
M  V30 55 H -0.814055 -0.579886 0.290307 0
M  V30 56 H 1.322695 0.072564 -3.981792 0
M  V30 57 H 3.053503 -1.706609 -4.403264 0
M  V30 58 H 6.323105 -1.723171 2.354275 0
M  V30 END ATOM
M  V30 BEGIN BOND
M  V30 1 1 1 2
M  V30 2 2 2 3
M  V30 3 1 3 4
M  V30 4 1 4 5
M  V30 5 2 4 6
M  V30 6 1 6 7
M  V30 7 2 7 8
M  V30 8 1 8 9
M  V30 9 1 9 10
M  V30 10 2 10 11
M  V30 11 1 10 12
M  V30 12 1 12 13
M  V30 13 2 13 14
M  V30 14 1 14 15
M  V30 15 2 15 16
M  V30 16 1 16 17
M  V30 17 2 17 18
M  V30 18 1 18 19
M  V30 19 1 19 20
M  V30 20 1 20 21
M  V30 21 1 21 22
M  V30 22 1 21 23
M  V30 23 1 23 24
M  V30 24 3 24 25
M  V30 25 1 23 26
M  V30 26 1 26 27
M  V30 27 1 26 28
M  V30 28 2 9 29
M  V30 29 1 29 30
M  V30 30 2 30 31
M  V30 31 1 31 32
M  V30 32 1 6 33
M  V30 33 1 33 34
M  V30 34 2 33 35
M  V30 35 1 35 2
M  V30 36 1 31 7
M  V30 37 1 18 13
M  V30 38 1 28 19
M  V30 39 1 1 36
M  V30 40 1 1 37
M  V30 41 1 1 38
M  V30 42 1 3 39
M  V30 43 1 12 40
M  V30 44 1 14 41
M  V30 45 1 16 42
M  V30 46 1 17 43
M  V30 47 1 20 44
M  V30 48 1 20 45
M  V30 49 1 21 46 CFG=1
M  V30 50 1 22 47
M  V30 51 1 22 48
M  V30 52 1 23 49 CFG=1
M  V30 53 1 26 50 CFG=1
M  V30 54 1 27 51
M  V30 55 1 27 52
M  V30 56 1 27 53
M  V30 57 1 28 54
M  V30 58 1 28 55
M  V30 59 1 29 56
M  V30 60 1 30 57
M  V30 61 1 35 58
M  V30 END BOND
M  V30 END CTAB
M  END
>  <Dataset>  (331) 
ChEMBL_Kinases

>  <Ligand_Instance>  (331) 
nan

>  <PDB_ID>  (331) 
nan

>  <Standardized_SMILES>  (331) 
Cc1cc(F)c(-c2nc(C(=O)Nc3cnccc3N3C[C@@H](N)[C@@H](C#N)[C@@H](C)C3)ccc2F)c(F)c1

>  <Name>  (331) 
nan

>  <Pocket>  (331) 
nan

>  <ATP_Site>  (331) 
nan

>  <Peripheral>  (331) 
nan

>  <Num_H_Atoms_ProtBoundConf>  (331) 
nan

>  <Num_Resolved_Atoms>  (331) 
nan

>  <Num_Not_Resolved_Atoms>  (331) 
nan

$$$$
CHEMBL3687464
     RDKit          3D

  0  0  0  0  0  0  0  0  0  0999 V3000
M  V30 BEGIN CTAB
M  V30 COUNTS 54 57 0 0 0
M  V30 BEGIN ATOM
M  V30 1 C 4.470486 -2.795107 0.094928 0
M  V30 2 C 3.649290 -2.873138 1.338881 0 CFG=1
M  V30 3 C 3.281264 -1.519730 1.902398 0
M  V30 4 N 2.271245 -0.889749 1.080433 0
M  V30 5 C 2.568793 0.215280 0.270813 0
M  V30 6 C 3.867221 0.629762 0.133974 0
M  V30 7 C 4.221464 1.699441 -0.660146 0
M  V30 8 N 3.290481 2.409892 -1.359334 0
M  V30 9 C 1.994382 2.035537 -1.253811 0
M  V30 10 C 1.685764 0.959174 -0.447406 0
M  V30 11 N 0.294561 0.668400 -0.411498 0
M  V30 12 C -0.298926 1.429097 0.661254 0
M  V30 13 O 0.502008 2.146652 1.298175 0
M  V30 14 C -1.723522 1.359868 0.971071 0
M  V30 15 N -2.612050 0.607233 0.316070 0
M  V30 16 C -3.753628 0.532667 0.541429 0
M  V30 17 C -4.854703 -0.236707 -0.075090 0
M  V30 18 C -4.546813 -1.057259 -1.140868 0
M  V30 19 F -3.250859 -1.099300 -1.548072 0
M  V30 20 C -5.577463 -1.754434 -1.690480 0
M  V30 21 C -6.873191 -1.662694 -1.223940 0
M  V30 22 C -7.153214 -0.828932 -0.150053 0
M  V30 23 C -6.128113 -0.107087 0.430587 0
M  V30 24 F -6.395462 0.702206 1.471741 0
M  V30 25 S -4.041093 1.695640 2.010993 0
M  V30 26 C -2.201189 2.154732 2.052947 0
M  V30 27 N -1.506048 3.030782 2.908783 0
M  V30 28 C 0.989625 -1.559637 1.211597 0
M  V30 29 C 1.198813 -2.977273 1.774815 0 CFG=1
M  V30 30 N -0.020755 -3.706579 1.392156 0
M  V30 31 C 2.358295 -3.626731 1.081444 0 CFG=1
M  V30 32 C 2.069161 -3.634753 -0.351779 0
M  V30 33 N 1.839686 -3.653130 -1.473792 0
M  V30 34 H 5.526258 -2.522232 0.347649 0
M  V30 35 H 4.547733 -3.834423 -0.298524 0
M  V30 36 H 4.031634 -2.199717 -0.704198 0
M  V30 37 H 4.232467 -3.412815 2.114643 0
M  V30 38 H 2.807303 -1.725010 2.908455 0
M  V30 39 H 4.149939 -0.900303 2.137783 0
M  V30 40 H 4.727474 0.208772 0.589749 0
M  V30 41 H 5.218526 2.080483 -0.814855 0
M  V30 42 H 1.259432 2.605587 -1.813118 0
M  V30 43 H -0.423465 0.077732 -0.927646 0
M  V30 44 H -5.289326 -2.396539 -2.537476 0
M  V30 45 H -7.652566 -2.229746 -1.687196 0
M  V30 46 H -8.145353 -0.735560 0.234840 0
M  V30 47 H -1.244871 3.961515 2.509889 0
M  V30 48 H -1.255903 2.773457 3.902499 0
M  V30 49 H 0.591677 -1.741086 0.182133 0
M  V30 50 H 0.293125 -1.091428 1.903094 0
M  V30 51 H 1.223831 -2.998848 2.867200 0
M  V30 52 H 0.060640 -4.024429 0.404993 0
M  V30 53 H -0.815958 -3.033204 1.525267 0
M  V30 54 H 2.432855 -4.679780 1.405299 0
M  V30 END ATOM
M  V30 BEGIN BOND
M  V30 1 1 1 2
M  V30 2 1 2 3
M  V30 3 1 3 4
M  V30 4 1 4 5
M  V30 5 2 5 6
M  V30 6 1 6 7
M  V30 7 2 7 8
M  V30 8 1 8 9
M  V30 9 2 9 10
M  V30 10 1 10 11
M  V30 11 1 11 12
M  V30 12 2 12 13
M  V30 13 1 12 14
M  V30 14 1 14 15
M  V30 15 2 15 16
M  V30 16 1 16 17
M  V30 17 2 17 18
M  V30 18 1 18 19
M  V30 19 1 18 20
M  V30 20 2 20 21
M  V30 21 1 21 22
M  V30 22 2 22 23
M  V30 23 1 23 24
M  V30 24 1 16 25
M  V30 25 1 25 26
M  V30 26 1 26 27
M  V30 27 1 4 28
M  V30 28 1 28 29
M  V30 29 1 29 30
M  V30 30 1 29 31
M  V30 31 1 31 32
M  V30 32 3 32 33
M  V30 33 1 31 2
M  V30 34 1 10 5
M  V30 35 2 26 14
M  V30 36 1 23 17
M  V30 37 1 1 34
M  V30 38 1 1 35
M  V30 39 1 1 36
M  V30 40 1 2 37 CFG=1
M  V30 41 1 3 38
M  V30 42 1 3 39
M  V30 43 1 6 40
M  V30 44 1 7 41
M  V30 45 1 9 42
M  V30 46 1 11 43
M  V30 47 1 20 44
M  V30 48 1 21 45
M  V30 49 1 22 46
M  V30 50 1 27 47
M  V30 51 1 27 48
M  V30 52 1 28 49
M  V30 53 1 28 50
M  V30 54 1 29 51 CFG=1
M  V30 55 1 30 52
M  V30 56 1 30 53
M  V30 57 1 31 54 CFG=1
M  V30 END BOND
M  V30 END CTAB
M  END
>  <Dataset>  (332) 
ChEMBL_Kinases

>  <Ligand_Instance>  (332) 
nan

>  <PDB_ID>  (332) 
nan

>  <Standardized_SMILES>  (332) 
C[C@H]1CN(c2ccncc2NC(=O)c2nc(-c3c(F)cccc3F)sc2N)C[C@@H](N)[C@H]1C#N

>  <Name>  (332) 
nan

>  <Pocket>  (332) 
nan

>  <ATP_Site>  (332) 
nan

>  <Peripheral>  (332) 
nan

>  <Num_H_Atoms_ProtBoundConf>  (332) 
nan

>  <Num_Resolved_Atoms>  (332) 
nan

>  <Num_Not_Resolved_Atoms>  (332) 
nan

$$$$
CHEMBL442227
     RDKit          3D

  0  0  0  0  0  0  0  0  0  0999 V3000
M  V30 BEGIN CTAB
M  V30 COUNTS 46 49 0 0 0
M  V30 BEGIN ATOM
M  V30 1 C 2.660749 -5.623477 0.778756 0
M  V30 2 O 3.995752 -5.507772 0.267244 0
M  V30 3 C 4.337200 -4.339663 -0.407628 0
M  V30 4 C 5.581667 -4.110809 -0.946436 0
M  V30 5 C 5.888926 -2.943488 -1.611791 0
M  V30 6 C 4.947875 -1.951897 -1.762129 0
M  V30 7 C 3.653683 -2.105547 -1.241049 0
M  V30 8 C 2.574346 -1.129900 -1.350803 0
M  V30 9 C 2.330807 -0.255502 -2.381255 0
M  V30 10 N 1.249401 0.508991 -2.155672 0
M  V30 11 C 0.753622 0.141696 -0.943261 0
M  V30 12 C -0.413573 0.524800 -0.149947 0
M  V30 13 C -0.369683 0.942135 1.105261 0
M  V30 14 C 0.814929 1.112959 1.945931 0
M  V30 15 O 1.999775 0.904950 1.588518 0
M  V30 16 N 0.353677 1.550725 3.205322 0
M  V30 17 C -1.073382 1.659260 3.179933 0
M  V30 18 C -1.879103 2.053455 4.228476 0
M  V30 19 C -3.239185 2.065826 3.933876 0
M  V30 20 C -3.775560 1.723170 2.720108 0
M  V30 21 N -5.179600 1.756206 2.499065 0
M  V30 22 C -6.189516 2.663934 2.052341 0
M  V30 23 N -7.493494 2.064262 2.050798 0
M  V30 24 O -5.817643 3.814704 1.734427 0
M  V30 25 C -2.904031 1.332110 1.696851 0
M  V30 26 C -1.542236 1.301283 1.932948 0
M  V30 27 C 1.560821 -0.879875 -0.417613 0
M  V30 28 C 3.397317 -3.312218 -0.574474 0
M  V30 29 H 2.556112 -6.585473 1.316987 0
M  V30 30 H 2.397362 -4.789172 1.460480 0
M  V30 31 H 1.927930 -5.658724 -0.079911 0
M  V30 32 H 6.364337 -4.874833 -0.850265 0
M  V30 33 H 6.881058 -2.803035 -2.019996 0
M  V30 34 H 5.133294 -1.003666 -2.279984 0
M  V30 35 H 2.900126 -0.136120 -3.302950 0
M  V30 36 H 0.747768 1.262889 -2.664859 0
M  V30 37 H -1.416865 0.476361 -0.596073 0
M  V30 38 H 1.044352 1.739123 3.978484 0
M  V30 39 H -1.550540 2.340603 5.213268 0
M  V30 40 H -3.909914 2.376211 4.743914 0
M  V30 41 H -5.352611 0.765582 2.795287 0
M  V30 42 H -7.844247 1.813619 1.078870 0
M  V30 43 H -7.861104 1.983627 3.033135 0
M  V30 44 H -3.307548 1.060064 0.735656 0
M  V30 45 H 1.547500 -1.477890 0.496211 0
M  V30 46 H 2.407746 -3.495952 -0.148150 0
M  V30 END ATOM
M  V30 BEGIN BOND
M  V30 1 1 1 2
M  V30 2 1 2 3
M  V30 3 2 3 4
M  V30 4 1 4 5
M  V30 5 2 5 6
M  V30 6 1 6 7
M  V30 7 1 7 8
M  V30 8 2 8 9
M  V30 9 1 9 10
M  V30 10 1 10 11
M  V30 11 1 11 12
M  V30 12 2 12 13
M  V30 13 1 13 14
M  V30 14 2 14 15
M  V30 15 1 14 16
M  V30 16 1 16 17
M  V30 17 2 17 18
M  V30 18 1 18 19
M  V30 19 2 19 20
M  V30 20 1 20 21
M  V30 21 1 21 22
M  V30 22 1 22 23
M  V30 23 2 22 24
M  V30 24 1 20 25
M  V30 25 2 25 26
M  V30 26 2 11 27
M  V30 27 2 7 28
M  V30 28 1 28 3
M  V30 29 1 27 8
M  V30 30 1 26 13
M  V30 31 1 26 17
M  V30 32 1 1 29
M  V30 33 1 1 30
M  V30 34 1 1 31
M  V30 35 1 4 32
M  V30 36 1 5 33
M  V30 37 1 6 34
M  V30 38 1 9 35
M  V30 39 1 10 36
M  V30 40 1 12 37
M  V30 41 1 16 38
M  V30 42 1 18 39
M  V30 43 1 19 40
M  V30 44 1 21 41
M  V30 45 1 23 42
M  V30 46 1 23 43
M  V30 47 1 25 44
M  V30 48 1 27 45
M  V30 49 1 28 46
M  V30 END BOND
M  V30 END CTAB
M  END
>  <Dataset>  (333) 
ChEMBL_Kinases

>  <Ligand_Instance>  (333) 
nan

>  <PDB_ID>  (333) 
nan

>  <Standardized_SMILES>  (333) 
COc1cccc(-c2c[nH]c(/C=C3\C(=O)Nc4ccc(NC(N)=O)cc43)c2)c1

>  <Name>  (333) 
nan

>  <Pocket>  (333) 
nan

>  <ATP_Site>  (333) 
nan

>  <Peripheral>  (333) 
nan

>  <Num_H_Atoms_ProtBoundConf>  (333) 
nan

>  <Num_Resolved_Atoms>  (333) 
nan

>  <Num_Not_Resolved_Atoms>  (333) 
nan

$$$$
CHEMBL3687456
     RDKit          3D

  0  0  0  0  0  0  0  0  0  0999 V3000
M  V30 BEGIN CTAB
M  V30 COUNTS 65 68 0 0 0
M  V30 BEGIN ATOM
M  V30 1 C 1.042500 -3.963670 2.509917 0
M  V30 2 O 1.498801 -2.731551 1.980789 0
M  V30 3 C 2.812489 -2.536099 1.575223 0
M  V30 4 O 3.551263 -3.549213 1.721540 0
M  V30 5 N 3.342504 -1.328886 1.035461 0
M  V30 6 C 4.729078 -1.326546 0.675499 0
M  V30 7 C 2.376172 -0.244740 0.924967 0 CFG=2
M  V30 8 C 2.055721 0.119813 -0.476240 0 CFG=2
M  V30 9 C 3.231190 0.404095 -1.355408 0
M  V30 10 C 1.207605 1.373309 -0.460295 0
M  V30 11 C 0.486331 1.549311 0.865554 0 CFG=2
M  V30 12 C -0.480741 2.654232 0.777023 0
M  V30 13 C -0.011043 3.946492 1.011704 0
M  V30 14 C -0.789132 5.110075 0.969222 0
M  V30 15 N -2.107603 4.974448 0.675954 0
M  V30 16 C -2.564575 3.722096 0.447279 0
M  V30 17 C -1.824527 2.561455 0.481847 0
M  V30 18 N -2.383757 1.288332 0.220068 0
M  V30 19 C -3.699120 0.910251 -0.070873 0
M  V30 20 O -4.589762 1.777357 -0.127739 0
M  V30 21 C -4.177392 -0.464716 -0.331103 0
M  V30 22 N -3.349987 -1.485430 -0.306606 0
M  V30 23 C -3.695501 -2.645258 -0.515885 0
M  V30 24 C -3.132658 -3.969455 -0.578490 0
M  V30 25 C -3.831490 -5.125356 -0.852458 0
M  V30 26 F -5.156106 -5.030576 -1.084278 0
M  V30 27 C -3.117945 -6.307591 -0.869771 0
M  V30 28 C -1.747713 -6.329645 -0.620364 0
M  V30 29 C -1.045516 -5.158870 -0.343902 0
M  V30 30 C -1.778770 -3.966503 -0.328919 0
M  V30 31 F -1.045027 -2.850826 -0.053520 0
M  V30 32 S -5.557224 -2.498035 -0.840760 0
M  V30 33 C -5.544515 -0.668424 -0.608783 0
M  V30 34 N -6.680942 0.163335 -0.713899 0
M  V30 35 C 1.419194 1.719647 2.017541 0
M  V30 36 C 2.676381 0.886081 1.851472 0 CFG=2
M  V30 37 N 3.750417 1.737451 1.399840 0
M  V30 38 H -0.081135 -3.865717 2.569833 0
M  V30 39 H 1.255736 -4.825475 1.861525 0
M  V30 40 H 1.386004 -4.115423 3.554156 0
M  V30 41 H 5.238463 -0.351918 0.819044 0
M  V30 42 H 4.952070 -1.742502 -0.328454 0
M  V30 43 H 5.286608 -2.015383 1.375971 0
M  V30 44 H 1.424823 -0.711058 1.327432 0
M  V30 45 H 1.479067 -0.726245 -0.926769 0
M  V30 46 H 3.569576 -0.522325 -1.863942 0
M  V30 47 H 2.935718 1.089789 -2.203184 0
M  V30 48 H 4.091645 0.873984 -0.892986 0
M  V30 49 H 1.727320 2.280153 -0.774114 0
M  V30 50 H 0.386170 1.225273 -1.213561 0
M  V30 51 H -0.105105 0.609431 1.085503 0
M  V30 52 H 1.003277 4.243415 1.245357 0
M  V30 53 H -0.420142 6.118795 1.153304 0
M  V30 54 H -3.619753 3.750639 0.226032 0
M  V30 55 H -1.793759 0.434310 0.214916 0
M  V30 56 H -3.649929 -7.230788 -1.083817 0
M  V30 57 H -1.256142 -7.287952 -0.650393 0
M  V30 58 H 0.017318 -5.218693 -0.155807 0
M  V30 59 H -6.983143 0.415301 0.252140 0
M  V30 60 H -7.017767 0.380354 -1.697860 0
M  V30 61 H 0.913422 1.276813 2.928357 0
M  V30 62 H 1.680130 2.741306 2.260850 0
M  V30 63 H 2.998569 0.452682 2.819636 0
M  V30 64 H 3.428968 2.691334 1.133949 0
M  V30 65 H 4.602330 1.705706 1.966065 0
M  V30 END ATOM
M  V30 BEGIN BOND
M  V30 1 1 1 2
M  V30 2 1 2 3
M  V30 3 2 3 4
M  V30 4 1 3 5
M  V30 5 1 5 6
M  V30 6 1 5 7
M  V30 7 1 7 8
M  V30 8 1 8 9
M  V30 9 1 8 10
M  V30 10 1 10 11
M  V30 11 1 11 12
M  V30 12 2 12 13
M  V30 13 1 13 14
M  V30 14 2 14 15
M  V30 15 1 15 16
M  V30 16 2 16 17
M  V30 17 1 17 18
M  V30 18 1 18 19
M  V30 19 2 19 20
M  V30 20 1 19 21
M  V30 21 1 21 22
M  V30 22 2 22 23
M  V30 23 1 23 24
M  V30 24 2 24 25
M  V30 25 1 25 26
M  V30 26 1 25 27
M  V30 27 2 27 28
M  V30 28 1 28 29
M  V30 29 2 29 30
M  V30 30 1 30 31
M  V30 31 1 23 32
M  V30 32 1 32 33
M  V30 33 1 33 34
M  V30 34 1 11 35
M  V30 35 1 35 36
M  V30 36 1 36 37
M  V30 37 1 36 7
M  V30 38 1 17 12
M  V30 39 2 33 21
M  V30 40 1 30 24
M  V30 41 1 1 38
M  V30 42 1 1 39
M  V30 43 1 1 40
M  V30 44 1 6 41
M  V30 45 1 6 42
M  V30 46 1 6 43
M  V30 47 1 7 44 CFG=1
M  V30 48 1 8 45 CFG=3
M  V30 49 1 9 46
M  V30 50 1 9 47
M  V30 51 1 9 48
M  V30 52 1 10 49
M  V30 53 1 10 50
M  V30 54 1 11 51 CFG=1
M  V30 55 1 13 52
M  V30 56 1 14 53
M  V30 57 1 16 54
M  V30 58 1 18 55
M  V30 59 1 27 56
M  V30 60 1 28 57
M  V30 61 1 29 58
M  V30 62 1 34 59
M  V30 63 1 34 60
M  V30 64 1 35 61
M  V30 65 1 35 62
M  V30 66 1 36 63 CFG=1
M  V30 67 1 37 64
M  V30 68 1 37 65
M  V30 END BOND
M  V30 END CTAB
M  END
>  <Dataset>  (334) 
ChEMBL_Kinases

>  <Ligand_Instance>  (334) 
nan

>  <PDB_ID>  (334) 
nan

>  <Standardized_SMILES>  (334) 
COC(=O)N(C)[C@@H]1[C@H](C)C[C@H](c2ccncc2NC(=O)c2nc(-c3c(F)cccc3F)sc2N)C[C@@H]1N

>  <Name>  (334) 
nan

>  <Pocket>  (334) 
nan

>  <ATP_Site>  (334) 
nan

>  <Peripheral>  (334) 
nan

>  <Num_H_Atoms_ProtBoundConf>  (334) 
nan

>  <Num_Resolved_Atoms>  (334) 
nan

>  <Num_Not_Resolved_Atoms>  (334) 
nan

$$$$
CHEMBL259389
     RDKit          3D

  0  0  0  0  0  0  0  0  0  0999 V3000
M  V30 BEGIN CTAB
M  V30 COUNTS 21 23 0 0 0
M  V30 BEGIN ATOM
M  V30 1 N 0.581257 2.521632 3.734818 0
M  V30 2 C 0.833215 1.164029 3.383202 0
M  V30 3 N 1.232857 0.184643 4.245701 0
M  V30 4 N 1.368901 -0.950541 3.569227 0
M  V30 5 C 1.058314 -0.707797 2.271704 0
M  V30 6 N 1.030375 -1.493914 1.177529 0
M  V30 7 C 0.681077 -1.016969 -0.034895 0
M  V30 8 C 0.652803 -1.830153 -1.163519 0
M  V30 9 C 0.284706 -1.269957 -2.371467 0
M  V30 10 C -0.058114 0.060882 -2.517607 0
M  V30 11 C -0.036112 0.892749 -1.398523 0
M  V30 12 C 0.334974 0.309235 -0.203485 0
M  V30 13 N 0.360341 1.113207 0.899130 0
M  V30 14 C 0.714967 0.620697 2.119992 0
M  V30 15 H -0.307258 2.531679 4.317739 0
M  V30 16 H 1.120655 3.404935 3.503247 0
M  V30 17 H 1.659027 -1.884430 3.925728 0
M  V30 18 H 0.918625 -2.861111 -1.049034 0
M  V30 19 H 0.255133 -1.892656 -3.276300 0
M  V30 20 H -0.341401 0.449533 -3.498600 0
M  V30 21 H -0.296501 1.939471 -1.466030 0
M  V30 END ATOM
M  V30 BEGIN BOND
M  V30 1 1 1 2
M  V30 2 2 2 3
M  V30 3 1 3 4
M  V30 4 1 4 5
M  V30 5 2 5 6
M  V30 6 1 6 7
M  V30 7 2 7 8
M  V30 8 1 8 9
M  V30 9 2 9 10
M  V30 10 1 10 11
M  V30 11 2 11 12
M  V30 12 1 12 13
M  V30 13 2 13 14
M  V30 14 1 14 2
M  V30 15 1 14 5
M  V30 16 1 12 7
M  V30 17 1 1 15
M  V30 18 1 1 16
M  V30 19 1 4 17
M  V30 20 1 8 18
M  V30 21 1 9 19
M  V30 22 1 10 20
M  V30 23 1 11 21
M  V30 END BOND
M  V30 END CTAB
M  END
>  <Dataset>  (335) 
ChEMBL_Kinases

>  <Ligand_Instance>  (335) 
nan

>  <PDB_ID>  (335) 
nan

>  <Standardized_SMILES>  (335) 
Nc1n[nH]c2nc3ccccc3nc12

>  <Name>  (335) 
QUINOXALINE1

>  <Pocket>  (335) 
nan

>  <ATP_Site>  (335) 
nan

>  <Peripheral>  (335) 
nan

>  <Num_H_Atoms_ProtBoundConf>  (335) 
nan

>  <Num_Resolved_Atoms>  (335) 
nan

>  <Num_Not_Resolved_Atoms>  (335) 
nan

$$$$
CHEMBL3687462
     RDKit          3D

  0  0  0  0  0  0  0  0  0  0999 V3000
M  V30 BEGIN CTAB
M  V30 COUNTS 69 72 0 0 0
M  V30 BEGIN ATOM
M  V30 1 C 2.432692 -3.637723 3.661697 0
M  V30 2 O 1.720927 -2.480572 3.210185 0
M  V30 3 C 1.935630 -1.325057 3.920905 0
M  V30 4 O 2.742654 -1.827118 4.741126 0
M  V30 5 N 1.838950 0.024362 4.315118 0
M  V30 6 C 2.617995 0.447771 5.448459 0
M  V30 7 C 0.909092 0.240058 3.238954 0 CFG=2
M  V30 8 C 1.468060 1.160806 2.195157 0 CFG=2
M  V30 9 C 1.933383 2.488841 2.734641 0
M  V30 10 C 0.536887 1.302164 1.029081 0
M  V30 11 C -0.908131 1.381458 1.411968 0 CFG=2
M  V30 12 C -1.687835 2.364101 0.618221 0
M  V30 13 C -1.887388 3.701163 0.896338 0
M  V30 14 C -2.622450 4.524118 0.104013 0
M  V30 15 N -3.212138 4.072097 -1.024255 0
M  V30 16 C -3.056429 2.767583 -1.357013 0
M  V30 17 C -2.309110 1.920553 -0.556040 0
M  V30 18 N -2.219933 0.556053 -1.020386 0
M  V30 19 C -3.154142 -0.478869 -0.649688 0
M  V30 20 O -4.120526 -0.216278 0.124823 0
M  V30 21 C -2.940646 -1.826129 -1.199248 0
M  V30 22 C -3.855391 -2.813261 -0.833207 0
M  V30 23 C -3.588679 -4.054433 -1.390842 0
M  V30 24 C -2.526773 -4.320120 -2.232259 0
M  V30 25 F -2.313922 -5.550882 -2.748852 0
M  V30 26 C -1.662959 -3.294013 -2.550175 0
M  V30 27 C -0.510620 -3.470157 -3.430022 0
M  V30 28 C -0.804740 -3.233075 -4.756076 0
M  V30 29 F -2.025525 -2.872127 -5.229225 0
M  V30 30 C 0.169555 -3.352558 -5.738889 0
M  V30 31 C 1.450804 -3.721468 -5.323094 0
M  V30 32 C 2.492467 -3.847382 -6.393095 0
M  V30 33 C 1.762878 -3.962882 -3.998780 0
M  V30 34 C 0.762386 -3.833599 -3.041078 0
M  V30 35 F 0.946799 -4.043038 -1.719543 0
M  V30 36 N -1.925282 -2.092653 -2.007392 0
M  V30 37 C -1.123964 1.668018 2.866739 0
M  V30 38 C -0.440597 0.666998 3.765944 0 CFG=2
M  V30 39 N -0.325079 1.271517 5.079581 0
M  V30 40 H 3.528017 -3.468677 3.598205 0
M  V30 41 H 2.108135 -3.936236 4.674714 0
M  V30 42 H 2.116996 -4.445862 2.974554 0
M  V30 43 H 2.936493 1.507444 5.261533 0
M  V30 44 H 2.036142 0.382016 6.406031 0
M  V30 45 H 3.482648 -0.226251 5.545806 0
M  V30 46 H 0.810878 -0.764184 2.733180 0
M  V30 47 H 2.400511 0.649953 1.815837 0
M  V30 48 H 1.688976 3.302998 1.995037 0
M  V30 49 H 1.537002 2.711202 3.732036 0
M  V30 50 H 3.053736 2.553585 2.831545 0
M  V30 51 H 0.838322 2.199703 0.439294 0
M  V30 52 H 0.716581 0.439396 0.338814 0
M  V30 53 H -1.353869 0.370779 1.227487 0
M  V30 54 H -1.412921 4.058920 1.800906 0
M  V30 55 H -2.709109 5.568685 0.430402 0
M  V30 56 H -3.537504 2.430605 -2.264257 0
M  V30 57 H -1.423607 0.297905 -1.671195 0
M  V30 58 H -4.689815 -2.664840 -0.190440 0
M  V30 59 H -4.269406 -4.882172 -1.144976 0
M  V30 60 H -0.011650 -3.175775 -6.804919 0
M  V30 61 H 2.116158 -4.524992 -7.186865 0
M  V30 62 H 2.645723 -2.837272 -6.859226 0
M  V30 63 H 3.450211 -4.146467 -5.965432 0
M  V30 64 H 2.739872 -4.243736 -3.686090 0
M  V30 65 H -0.786762 2.668998 3.148316 0
M  V30 66 H -2.214471 1.551261 3.059766 0
M  V30 67 H -1.051409 -0.256686 3.893394 0
M  V30 68 H -0.709144 0.637310 5.842731 0
M  V30 69 H -0.926798 2.132344 5.164346 0
M  V30 END ATOM
M  V30 BEGIN BOND
M  V30 1 1 1 2
M  V30 2 1 2 3
M  V30 3 2 3 4
M  V30 4 1 3 5
M  V30 5 1 5 6
M  V30 6 1 5 7
M  V30 7 1 7 8
M  V30 8 1 8 9
M  V30 9 1 8 10
M  V30 10 1 10 11
M  V30 11 1 11 12
M  V30 12 2 12 13
M  V30 13 1 13 14
M  V30 14 2 14 15
M  V30 15 1 15 16
M  V30 16 2 16 17
M  V30 17 1 17 18
M  V30 18 1 18 19
M  V30 19 2 19 20
M  V30 20 1 19 21
M  V30 21 2 21 22
M  V30 22 1 22 23
M  V30 23 2 23 24
M  V30 24 1 24 25
M  V30 25 1 24 26
M  V30 26 1 26 27
M  V30 27 2 27 28
M  V30 28 1 28 29
M  V30 29 1 28 30
M  V30 30 2 30 31
M  V30 31 1 31 32
M  V30 32 1 31 33
M  V30 33 2 33 34
M  V30 34 1 34 35
M  V30 35 2 26 36
M  V30 36 1 11 37
M  V30 37 1 37 38
M  V30 38 1 38 39
M  V30 39 1 38 7
M  V30 40 1 17 12
M  V30 41 1 36 21
M  V30 42 1 34 27
M  V30 43 1 1 40
M  V30 44 1 1 41
M  V30 45 1 1 42
M  V30 46 1 6 43
M  V30 47 1 6 44
M  V30 48 1 6 45
M  V30 49 1 7 46 CFG=3
M  V30 50 1 8 47 CFG=3
M  V30 51 1 9 48
M  V30 52 1 9 49
M  V30 53 1 9 50
M  V30 54 1 10 51
M  V30 55 1 10 52
M  V30 56 1 11 53 CFG=1
M  V30 57 1 13 54
M  V30 58 1 14 55
M  V30 59 1 16 56
M  V30 60 1 18 57
M  V30 61 1 22 58
M  V30 62 1 23 59
M  V30 63 1 30 60
M  V30 64 1 32 61
M  V30 65 1 32 62
M  V30 66 1 32 63
M  V30 67 1 33 64
M  V30 68 1 37 65
M  V30 69 1 37 66
M  V30 70 1 38 67 CFG=1
M  V30 71 1 39 68
M  V30 72 1 39 69
M  V30 END BOND
M  V30 END CTAB
M  END
>  <Dataset>  (336) 
ChEMBL_Kinases

>  <Ligand_Instance>  (336) 
nan

>  <PDB_ID>  (336) 
nan

>  <Standardized_SMILES>  (336) 
COC(=O)N(C)[C@@H]1[C@H](C)C[C@H](c2ccncc2NC(=O)c2ccc(F)c(-c3c(F)cc(C)cc3F)n2)C[C@@H]1N

>  <Name>  (336) 
nan

>  <Pocket>  (336) 
nan

>  <ATP_Site>  (336) 
nan

>  <Peripheral>  (336) 
nan

>  <Num_H_Atoms_ProtBoundConf>  (336) 
nan

>  <Num_Resolved_Atoms>  (336) 
nan

>  <Num_Not_Resolved_Atoms>  (336) 
nan

$$$$
CHEMBL259554
     RDKit          3D

  0  0  0  0  0  0  0  0  0  0999 V3000
M  V30 BEGIN CTAB
M  V30 COUNTS 52 55 0 0 0
M  V30 BEGIN ATOM
M  V30 1 C 2.466815 -2.688211 3.134256 0
M  V30 2 C 1.055422 -2.766712 2.591099 0
M  V30 3 C 0.516034 -1.547352 2.050194 0
M  V30 4 O 1.689278 -1.314894 2.434511 0
M  V30 5 C -0.162170 -0.406904 1.478029 0
M  V30 6 C 0.550706 0.767158 1.418479 0
M  V30 7 C 1.937158 0.931308 1.834978 0
M  V30 8 C 2.934890 0.720440 0.894249 0
M  V30 9 C 4.274283 0.853730 1.198581 0
M  V30 10 C 4.666512 1.211937 2.489170 0
M  V30 11 C 3.678061 1.425459 3.438605 0
M  V30 12 C 2.331890 1.284384 3.105896 0
M  V30 13 C -0.092843 1.906147 0.919245 0
M  V30 14 C 0.568339 3.100692 0.838124 0
M  V30 15 C -0.091878 4.201404 0.343913 0
M  V30 16 Cl 0.758456 5.719176 0.244352 0
M  V30 17 C -1.396905 4.083896 -0.057859 0
M  V30 18 C -2.009287 2.837966 0.052255 0
M  V30 19 C -1.399370 1.688431 0.542069 0
M  V30 20 C -2.089646 0.514801 0.608270 0
M  V30 21 O -3.279300 0.566543 0.202942 0
M  V30 22 N -1.441830 -0.561682 1.092150 0
M  V30 23 C -2.214166 -1.784896 1.155394 0
M  V30 24 C -2.214920 -2.559781 -0.100738 0
M  V30 25 C -1.282172 -3.448043 -0.578691 0
M  V30 26 C -1.326311 -4.159014 -1.754214 0
M  V30 27 C -2.425951 -3.975057 -2.564465 0
M  V30 28 C -2.480789 -4.724572 -3.812803 0
M  V30 29 O -1.554143 -5.494349 -4.108220 0
M  V30 30 O -3.531930 -4.626923 -4.712504 0
M  V30 31 C -3.419309 -3.102551 -2.172220 0
M  V30 32 C -3.302708 -2.424832 -0.976639 0
M  V30 33 H 2.800247 -3.693958 3.497791 0
M  V30 34 H 2.605701 -1.939740 3.927512 0
M  V30 35 H 3.155720 -2.458828 2.299267 0
M  V30 36 H 1.045041 -3.581218 1.828515 0
M  V30 37 H 0.455709 -3.202081 3.436160 0
M  V30 38 H 2.650032 0.440054 -0.119472 0
M  V30 39 H 5.022593 0.681168 0.438718 0
M  V30 40 H 5.720450 1.312073 2.711021 0
M  V30 41 H 3.947458 1.701956 4.439790 0
M  V30 42 H 1.579306 1.447799 3.832006 0
M  V30 43 H 1.597591 3.210783 1.150638 0
M  V30 44 H -1.934874 4.932619 -0.448469 0
M  V30 45 H -3.051084 2.815865 -0.286409 0
M  V30 46 H -1.919217 -2.407502 2.031661 0
M  V30 47 H -3.281939 -1.518807 1.380506 0
M  V30 48 H -0.423874 -3.597895 0.041129 0
M  V30 49 H -0.528125 -4.825028 -2.013498 0
M  V30 50 H -3.387230 -4.639545 -5.724891 0
M  V30 51 H -4.246938 -3.012694 -2.858895 0
M  V30 52 H -4.154443 -1.789260 -0.807797 0
M  V30 END ATOM
M  V30 BEGIN BOND
M  V30 1 1 1 2
M  V30 2 1 2 3
M  V30 3 2 3 4
M  V30 4 1 3 5
M  V30 5 2 5 6
M  V30 6 1 6 7
M  V30 7 2 7 8
M  V30 8 1 8 9
M  V30 9 2 9 10
M  V30 10 1 10 11
M  V30 11 2 11 12
M  V30 12 1 6 13
M  V30 13 2 13 14
M  V30 14 1 14 15
M  V30 15 1 15 16
M  V30 16 2 15 17
M  V30 17 1 17 18
M  V30 18 2 18 19
M  V30 19 1 19 20
M  V30 20 2 20 21
M  V30 21 1 20 22
M  V30 22 1 22 23
M  V30 23 1 23 24
M  V30 24 2 24 25
M  V30 25 1 25 26
M  V30 26 2 26 27
M  V30 27 1 27 28
M  V30 28 2 28 29
M  V30 29 1 28 30
M  V30 30 1 27 31
M  V30 31 2 31 32
M  V30 32 1 22 5
M  V30 33 1 32 24
M  V30 34 1 12 7
M  V30 35 1 19 13
M  V30 36 1 1 33
M  V30 37 1 1 34
M  V30 38 1 1 35
M  V30 39 1 2 36
M  V30 40 1 2 37
M  V30 41 1 8 38
M  V30 42 1 9 39
M  V30 43 1 10 40
M  V30 44 1 11 41
M  V30 45 1 12 42
M  V30 46 1 14 43
M  V30 47 1 17 44
M  V30 48 1 18 45
M  V30 49 1 23 46
M  V30 50 1 23 47
M  V30 51 1 25 48
M  V30 52 1 26 49
M  V30 53 1 30 50
M  V30 54 1 31 51
M  V30 55 1 32 52
M  V30 END BOND
M  V30 END CTAB
M  END
>  <Dataset>  (337) 
ChEMBL_Kinases

>  <Ligand_Instance>  (337) 
nan

>  <PDB_ID>  (337) 
nan

>  <Standardized_SMILES>  (337) 
CCC(=O)c1c(-c2ccccc2)c2cc(Cl)ccc2c(=O)n1Cc1ccc(C(=O)O)cc1

>  <Name>  (337) 
nan

>  <Pocket>  (337) 
nan

>  <ATP_Site>  (337) 
nan

>  <Peripheral>  (337) 
nan

>  <Num_H_Atoms_ProtBoundConf>  (337) 
nan

>  <Num_Resolved_Atoms>  (337) 
nan

>  <Num_Not_Resolved_Atoms>  (337) 
nan

$$$$
CHEMBL440356
     RDKit          3D

  0  0  0  0  0  0  0  0  0  0999 V3000
M  V30 BEGIN CTAB
M  V30 COUNTS 20 21 0 0 0
M  V30 BEGIN ATOM
M  V30 1 O -1.579756 0.624114 2.135664 0
M  V30 2 C -0.450949 0.222885 1.733773 0
M  V30 3 C 0.572367 0.080997 2.788410 0
M  V30 4 C 1.973254 0.434605 2.295727 0
M  V30 5 N 2.508560 -0.610039 1.429971 0
M  V30 6 C 1.988057 -0.967906 0.142132 0
M  V30 7 O 2.665422 -1.712012 -0.609021 0
M  V30 8 C 0.694256 -0.553895 -0.443858 0
M  V30 9 N 0.354091 -0.622612 -1.764815 0
M  V30 10 C -0.906894 -0.150083 -1.882375 0
M  V30 11 Br -1.841862 -0.039363 -3.544389 0
M  V30 12 C -1.388521 0.226073 -0.641383 0
M  V30 13 C -0.382991 -0.025205 0.277239 0
M  V30 14 H 0.557839 -0.920067 3.289871 0
M  V30 15 H 0.340729 0.847743 3.574914 0
M  V30 16 H 2.635022 0.669136 3.122515 0
M  V30 17 H 1.829304 1.346165 1.656197 0
M  V30 18 H 3.334625 -1.171223 1.723218 0
M  V30 19 H 1.016200 -0.991535 -2.497005 0
M  V30 20 H -2.358660 0.641104 -0.393354 0
M  V30 END ATOM
M  V30 BEGIN BOND
M  V30 1 2 1 2
M  V30 2 1 2 3
M  V30 3 1 3 4
M  V30 4 1 4 5
M  V30 5 1 5 6
M  V30 6 2 6 7
M  V30 7 1 6 8
M  V30 8 1 8 9
M  V30 9 1 9 10
M  V30 10 1 10 11
M  V30 11 2 10 12
M  V30 12 1 12 13
M  V30 13 1 13 2
M  V30 14 2 13 8
M  V30 15 1 3 14
M  V30 16 1 3 15
M  V30 17 1 4 16
M  V30 18 1 4 17
M  V30 19 1 5 18
M  V30 20 1 9 19
M  V30 21 1 12 20
M  V30 END BOND
M  V30 END CTAB
M  END
>  <Dataset>  (338) 
ChEMBL_Kinases

>  <Ligand_Instance>  (338) 
nan

>  <PDB_ID>  (338) 
nan

>  <Standardized_SMILES>  (338) 
O=C1CCNC(=O)c2[nH]c(Br)cc21

>  <Name>  (338) 
nan

>  <Pocket>  (338) 
nan

>  <ATP_Site>  (338) 
nan

>  <Peripheral>  (338) 
nan

>  <Num_H_Atoms_ProtBoundConf>  (338) 
nan

>  <Num_Resolved_Atoms>  (338) 
nan

>  <Num_Not_Resolved_Atoms>  (338) 
nan

$$$$
CHEMBL3687461
     RDKit          3D

  0  0  0  0  0  0  0  0  0  0999 V3000
M  V30 BEGIN CTAB
M  V30 COUNTS 58 61 0 0 0
M  V30 BEGIN ATOM
M  V30 1 C 2.868996 -2.956705 0.851112 0
M  V30 2 O 2.026009 -1.879375 0.572172 0
M  V30 3 C 2.799519 -0.800699 0.156070 0 CFG=2
M  V30 4 C 2.748912 0.384049 1.041792 0 CFG=2
M  V30 5 N 2.823602 -0.036494 2.421610 0
M  V30 6 C 1.568311 1.302765 0.846057 0
M  V30 7 C 1.179489 1.394566 -0.615622 0 CFG=2
M  V30 8 C 0.181616 2.419122 -0.853468 0
M  V30 9 C 0.595422 3.650606 -1.410546 0
M  V30 10 C -0.163830 4.769447 -1.749350 0
M  V30 11 N -1.499619 4.654202 -1.506084 0
M  V30 12 C -1.955843 3.505735 -0.975557 0
M  V30 13 C -1.179460 2.419583 -0.651872 0
M  V30 14 N -1.730255 1.251017 -0.086134 0
M  V30 15 C -3.077548 0.923896 0.190825 0
M  V30 16 O -3.997746 1.734226 -0.071426 0
M  V30 17 C -3.538072 -0.325637 0.781954 0
M  V30 18 C -4.859868 -0.601703 1.033919 0
M  V30 19 C -5.277126 -1.790843 1.592079 0
M  V30 20 N -4.327832 -2.721685 1.901433 0
M  V30 21 C -3.013988 -2.456948 1.655299 0
M  V30 22 C -2.113725 -3.540470 2.033062 0
M  V30 23 C -1.934165 -4.421683 0.967019 0
M  V30 24 F -2.508267 -4.310611 -0.273609 0
M  V30 25 C -1.118621 -5.544767 1.070017 0
M  V30 26 C -0.481238 -5.769517 2.272690 0
M  V30 27 C -0.654069 -4.903196 3.329853 0
M  V30 28 C -1.462369 -3.791509 3.224944 0
M  V30 29 F -1.728081 -2.857318 4.167058 0
M  V30 30 N -2.631790 -1.289731 1.110439 0
M  V30 31 C 1.035322 0.062285 -1.247062 0
M  V30 32 C 2.490348 -0.485277 -1.270056 0 CFG=2
M  V30 33 C 2.611867 -1.644640 -2.190758 0
M  V30 34 H 2.324790 -3.853741 1.185594 0
M  V30 35 H 3.539206 -2.647012 1.705471 0
M  V30 36 H 3.508238 -3.154239 -0.033433 0
M  V30 37 H 3.864399 -1.179749 0.188514 0
M  V30 38 H 3.686134 0.987689 0.863349 0
M  V30 39 H 1.908636 -0.170389 2.882352 0
M  V30 40 H 3.457023 0.581736 2.981729 0
M  V30 41 H 1.899816 2.329224 1.143960 0
M  V30 42 H 0.715169 1.080328 1.509805 0
M  V30 43 H 2.155934 1.805756 -1.085746 0
M  V30 44 H 1.660722 3.833896 -1.640383 0
M  V30 45 H 0.261890 5.663569 -2.172926 0
M  V30 46 H -3.021874 3.570284 -0.843118 0
M  V30 47 H -1.166921 0.442005 0.227226 0
M  V30 48 H -5.599737 0.137988 0.787559 0
M  V30 49 H -6.339224 -1.929011 1.759101 0
M  V30 50 H -0.950869 -6.251378 0.273593 0
M  V30 51 H 0.185026 -6.609693 2.490089 0
M  V30 52 H -0.179564 -5.029919 4.297606 0
M  V30 53 H 0.637324 0.151229 -2.271757 0
M  V30 54 H 0.515223 -0.721181 -0.668219 0
M  V30 55 H 3.102976 0.340549 -1.643989 0
M  V30 56 H 2.068595 -2.549815 -1.855399 0
M  V30 57 H 2.166425 -1.341166 -3.183222 0
M  V30 58 H 3.669368 -1.867504 -2.328350 0
M  V30 END ATOM
M  V30 BEGIN BOND
M  V30 1 1 1 2
M  V30 2 1 2 3
M  V30 3 1 3 4
M  V30 4 1 4 5
M  V30 5 1 4 6
M  V30 6 1 6 7
M  V30 7 1 7 8
M  V30 8 2 8 9
M  V30 9 1 9 10
M  V30 10 2 10 11
M  V30 11 1 11 12
M  V30 12 2 12 13
M  V30 13 1 13 14
M  V30 14 1 14 15
M  V30 15 2 15 16
M  V30 16 1 15 17
M  V30 17 2 17 18
M  V30 18 1 18 19
M  V30 19 2 19 20
M  V30 20 1 20 21
M  V30 21 1 21 22
M  V30 22 2 22 23
M  V30 23 1 23 24
M  V30 24 1 23 25
M  V30 25 2 25 26
M  V30 26 1 26 27
M  V30 27 2 27 28
M  V30 28 1 28 29
M  V30 29 2 21 30
M  V30 30 1 7 31
M  V30 31 1 31 32
M  V30 32 1 32 33
M  V30 33 1 32 3
M  V30 34 1 13 8
M  V30 35 1 30 17
M  V30 36 1 28 22
M  V30 37 1 1 34
M  V30 38 1 1 35
M  V30 39 1 1 36
M  V30 40 1 3 37 CFG=3
M  V30 41 1 4 38 CFG=3
M  V30 42 1 5 39
M  V30 43 1 5 40
M  V30 44 1 6 41
M  V30 45 1 6 42
M  V30 46 1 7 43 CFG=3
M  V30 47 1 9 44
M  V30 48 1 10 45
M  V30 49 1 12 46
M  V30 50 1 14 47
M  V30 51 1 18 48
M  V30 52 1 19 49
M  V30 53 1 25 50
M  V30 54 1 26 51
M  V30 55 1 27 52
M  V30 56 1 31 53
M  V30 57 1 31 54
M  V30 58 1 32 55 CFG=3
M  V30 59 1 33 56
M  V30 60 1 33 57
M  V30 61 1 33 58
M  V30 END BOND
M  V30 END CTAB
M  END
>  <Dataset>  (339) 
ChEMBL_Kinases

>  <Ligand_Instance>  (339) 
nan

>  <PDB_ID>  (339) 
nan

>  <Standardized_SMILES>  (339) 
CO[C@@H]1[C@H](N)C[C@H](c2ccncc2NC(=O)c2ccnc(-c3c(F)cccc3F)n2)C[C@@H]1C

>  <Name>  (339) 
nan

>  <Pocket>  (339) 
nan

>  <ATP_Site>  (339) 
nan

>  <Peripheral>  (339) 
nan

>  <Num_H_Atoms_ProtBoundConf>  (339) 
nan

>  <Num_Resolved_Atoms>  (339) 
nan

>  <Num_Not_Resolved_Atoms>  (339) 
nan

$$$$
CHEMBL3687460
     RDKit          3D

  0  0  0  0  0  0  0  0  0  0999 V3000
M  V30 BEGIN CTAB
M  V30 COUNTS 56 59 0 0 0
M  V30 BEGIN ATOM
M  V30 1 C 1.220102 -2.130763 2.616535 0
M  V30 2 O 1.140685 -1.076178 1.677861 0
M  V30 3 C 2.398613 -0.884445 1.108811 0 CFG=2
M  V30 4 C 2.921476 0.428499 1.590790 0 CFG=2
M  V30 5 N 2.446241 0.628794 2.948400 0
M  V30 6 C 2.529346 1.615132 0.771901 0
M  V30 7 C 2.409623 1.395742 -0.688470 0 CFG=2
M  V30 8 C 1.471037 2.387574 -1.264282 0
M  V30 9 C 1.861697 3.539331 -1.958665 0
M  V30 10 C 0.999836 4.456032 -2.493321 0
M  V30 11 N -0.325202 4.280041 -2.367642 0
M  V30 12 C -0.746469 3.181619 -1.704587 0
M  V30 13 C 0.124551 2.233850 -1.151712 0
M  V30 14 N -0.612497 1.221836 -0.515624 0
M  V30 15 C -1.309093 -0.011188 -0.646307 0
M  V30 16 O -1.328251 -0.486106 -1.831201 0
M  V30 17 C -1.923720 -0.616334 0.529183 0
M  V30 18 C -1.930502 -0.078217 1.865282 0
M  V30 19 S -2.901243 -1.430074 2.767464 0
M  V30 20 C -3.090033 -2.379579 1.275399 0
M  V30 21 C -3.819066 -3.700713 1.210530 0
M  V30 22 C -3.910405 -4.356287 0.011436 0
M  V30 23 F -3.349330 -3.815234 -1.094930 0
M  V30 24 C -4.584985 -5.568839 -0.024311 0
M  V30 25 C -5.137509 -6.072403 1.136284 0
M  V30 26 C -5.028905 -5.386679 2.334143 0
M  V30 27 C -4.358122 -4.174150 2.386228 0
M  V30 28 F -4.246309 -3.492355 3.560703 0
M  V30 29 N -2.542031 -1.769340 0.394735 0
M  V30 30 C 2.277255 0.053480 -1.246093 0
M  V30 31 C 2.447023 -1.111306 -0.347092 0 CFG=2
M  V30 32 C 1.376277 -2.157955 -0.679393 0
M  V30 33 H 1.975285 -1.813103 3.392439 0
M  V30 34 H 1.634098 -3.049978 2.158086 0
M  V30 35 H 0.246951 -2.375459 3.037051 0
M  V30 36 H 3.045149 -1.661401 1.616290 0
M  V30 37 H 4.040226 0.357685 1.659634 0
M  V30 38 H 1.881951 1.495205 3.064237 0
M  V30 39 H 3.199410 0.521430 3.661612 0
M  V30 40 H 3.307389 2.386061 1.023057 0
M  V30 41 H 1.608774 2.066884 1.193340 0
M  V30 42 H 3.422562 1.773596 -1.088295 0
M  V30 43 H 2.945253 3.703232 -2.073265 0
M  V30 44 H 1.414043 5.301272 -3.005127 0
M  V30 45 H -1.845937 3.158304 -1.673547 0
M  V30 46 H -0.591443 1.629246 0.444822 0
M  V30 47 H -1.409085 0.958471 2.134066 0
M  V30 48 H -4.649121 -6.075598 -0.979130 0
M  V30 49 H -5.638798 -7.014427 1.010142 0
M  V30 50 H -5.470166 -5.809868 3.209924 0
M  V30 51 H 3.003467 -0.114505 -2.112043 0
M  V30 52 H 1.314239 -0.014570 -1.789054 0
M  V30 53 H 3.416083 -1.646501 -0.580089 0
M  V30 54 H 0.979656 -1.969737 -1.698252 0
M  V30 55 H 0.532641 -2.145275 0.017842 0
M  V30 56 H 1.780786 -3.190620 -0.672948 0
M  V30 END ATOM
M  V30 BEGIN BOND
M  V30 1 1 1 2
M  V30 2 1 2 3
M  V30 3 1 3 4
M  V30 4 1 4 5
M  V30 5 1 4 6
M  V30 6 1 6 7
M  V30 7 1 7 8
M  V30 8 2 8 9
M  V30 9 1 9 10
M  V30 10 2 10 11
M  V30 11 1 11 12
M  V30 12 2 12 13
M  V30 13 1 13 14
M  V30 14 1 14 15
M  V30 15 2 15 16
M  V30 16 1 15 17
M  V30 17 2 17 18
M  V30 18 1 18 19
M  V30 19 1 19 20
M  V30 20 1 20 21
M  V30 21 2 21 22
M  V30 22 1 22 23
M  V30 23 1 22 24
M  V30 24 2 24 25
M  V30 25 1 25 26
M  V30 26 2 26 27
M  V30 27 1 27 28
M  V30 28 2 20 29
M  V30 29 1 7 30
M  V30 30 1 30 31
M  V30 31 1 31 32
M  V30 32 1 31 3
M  V30 33 1 13 8
M  V30 34 1 29 17
M  V30 35 1 27 21
M  V30 36 1 1 33
M  V30 37 1 1 34
M  V30 38 1 1 35
M  V30 39 1 3 36 CFG=1
M  V30 40 1 4 37 CFG=1
M  V30 41 1 5 38
M  V30 42 1 5 39
M  V30 43 1 6 40
M  V30 44 1 6 41
M  V30 45 1 7 42 CFG=3
M  V30 46 1 9 43
M  V30 47 1 10 44
M  V30 48 1 12 45
M  V30 49 1 14 46
M  V30 50 1 18 47
M  V30 51 1 24 48
M  V30 52 1 25 49
M  V30 53 1 26 50
M  V30 54 1 30 51
M  V30 55 1 30 52
M  V30 56 1 31 53 CFG=1
M  V30 57 1 32 54
M  V30 58 1 32 55
M  V30 59 1 32 56
M  V30 END BOND
M  V30 END CTAB
M  END
>  <Dataset>  (340) 
ChEMBL_Kinases

>  <Ligand_Instance>  (340) 
nan

>  <PDB_ID>  (340) 
nan

>  <Standardized_SMILES>  (340) 
CO[C@@H]1[C@H](N)C[C@H](c2ccncc2NC(=O)c2csc(-c3c(F)cccc3F)n2)C[C@@H]1C

>  <Name>  (340) 
nan

>  <Pocket>  (340) 
nan

>  <ATP_Site>  (340) 
nan

>  <Peripheral>  (340) 
nan

>  <Num_H_Atoms_ProtBoundConf>  (340) 
nan

>  <Num_Resolved_Atoms>  (340) 
nan

>  <Num_Not_Resolved_Atoms>  (340) 
nan

$$$$
CHEMBL3687459
     RDKit          3D

  0  0  0  0  0  0  0  0  0  0999 V3000
M  V30 BEGIN CTAB
M  V30 COUNTS 61 65 0 0 0
M  V30 BEGIN ATOM
M  V30 1 C 2.722273 -0.382646 0.727692 0
M  V30 2 C 2.886826 -1.741276 0.059880 0 CFG=1
M  V30 3 C 2.375506 -2.850346 0.914365 0
M  V30 4 C 1.050198 -3.417345 0.517234 0 CFG=1
M  V30 5 C 0.364297 -3.973557 1.668499 0
M  V30 6 C 0.577752 -5.315590 2.018476 0
M  V30 7 C -0.004150 -5.980572 3.076636 0
M  V30 8 N -0.847657 -5.301719 3.845971 0
M  V30 9 C -1.115858 -4.028428 3.598767 0
M  V30 10 C -0.524585 -3.378903 2.535979 0
M  V30 11 N -0.852194 -2.013175 2.314285 0
M  V30 12 C -0.170708 -0.894728 2.920948 0
M  V30 13 O 0.795591 -0.988224 3.720508 0
M  V30 14 C -0.668383 0.432836 2.555697 0
M  V30 15 C -0.084213 1.567224 3.083329 0
M  V30 16 C -0.535086 2.831974 2.756232 0
M  V30 17 C -1.600589 2.993756 1.877302 0
M  V30 18 F -2.129116 4.178016 1.482549 0
M  V30 19 C -2.166434 1.841279 1.364200 0
M  V30 20 C -3.301052 1.817004 0.420705 0
M  V30 21 C -4.592335 1.768696 0.853141 0
M  V30 22 F -4.822386 1.742150 2.200330 0
M  V30 23 C -5.678885 1.745350 -0.016465 0
M  V30 24 C -5.456336 1.771843 -1.377440 0
M  V30 25 C -4.148790 1.821000 -1.833373 0
M  V30 26 C -3.068446 1.843880 -0.946832 0
M  V30 27 F -1.796082 1.892682 -1.447623 0
M  V30 28 N -1.697331 0.628686 1.708427 0
M  V30 29 C 0.265806 -2.460668 -0.338227 0
M  V30 30 C 1.105217 -2.267954 -1.603021 0 CFG=1
M  V30 31 N 0.344486 -1.474558 -2.556898 0
M  V30 32 C 2.469290 -1.748484 -1.366342 0 CFG=1
M  V30 33 N 2.732009 -0.449294 -1.996389 0
M  V30 34 C 1.893777 0.586530 -2.127022 0
M  V30 35 N 2.519466 1.595274 -2.765215 0
M  V30 36 C 3.778663 1.182585 -3.041004 0
M  V30 37 N 3.881289 -0.059429 -2.564544 0
M  V30 38 H 3.608067 0.283951 0.507360 0
M  V30 39 H 1.863395 0.128773 0.285469 0
M  V30 40 H 2.706937 -0.520678 1.810663 0
M  V30 41 H 4.021032 -1.878378 0.043698 0
M  V30 42 H 2.332435 -2.427170 1.964015 0
M  V30 43 H 3.144680 -3.655013 0.998647 0
M  V30 44 H 1.291099 -4.282700 -0.180427 0
M  V30 45 H 1.270332 -5.911987 1.404693 0
M  V30 46 H 0.221677 -7.007099 3.263828 0
M  V30 47 H -1.806862 -3.500099 4.242051 0
M  V30 48 H -1.651217 -1.865976 1.658654 0
M  V30 49 H 0.761600 1.517543 3.783947 0
M  V30 50 H -0.097443 3.757601 3.154200 0
M  V30 51 H -6.701210 1.706909 0.336928 0
M  V30 52 H -6.236741 1.757156 -2.140215 0
M  V30 53 H -3.899069 1.844012 -2.886256 0
M  V30 54 H -0.680706 -2.921711 -0.702203 0
M  V30 55 H 0.136326 -1.487685 0.116518 0
M  V30 56 H 1.146802 -3.299977 -2.070665 0
M  V30 57 H 0.885764 -1.263056 -3.402119 0
M  V30 58 H -0.568464 -1.939529 -2.740893 0
M  V30 59 H 3.169761 -2.445292 -1.935644 0
M  V30 60 H 0.870367 0.688804 -1.805779 0
M  V30 61 H 4.681791 1.547114 -3.511793 0
M  V30 END ATOM
M  V30 BEGIN BOND
M  V30 1 1 1 2
M  V30 2 1 2 3
M  V30 3 1 3 4
M  V30 4 1 4 5
M  V30 5 2 5 6
M  V30 6 1 6 7
M  V30 7 2 7 8
M  V30 8 1 8 9
M  V30 9 2 9 10
M  V30 10 1 10 11
M  V30 11 1 11 12
M  V30 12 2 12 13
M  V30 13 1 12 14
M  V30 14 2 14 15
M  V30 15 1 15 16
M  V30 16 2 16 17
M  V30 17 1 17 18
M  V30 18 1 17 19
M  V30 19 1 19 20
M  V30 20 2 20 21
M  V30 21 1 21 22
M  V30 22 1 21 23
M  V30 23 2 23 24
M  V30 24 1 24 25
M  V30 25 2 25 26
M  V30 26 1 26 27
M  V30 27 2 19 28
M  V30 28 1 4 29
M  V30 29 1 29 30
M  V30 30 1 30 31
M  V30 31 1 30 32
M  V30 32 1 32 33
M  V30 33 1 33 34
M  V30 34 2 34 35
M  V30 35 1 35 36
M  V30 36 2 36 37
M  V30 37 1 32 2
M  V30 38 1 37 33
M  V30 39 1 10 5
M  V30 40 1 28 14
M  V30 41 1 26 20
M  V30 42 1 1 38
M  V30 43 1 1 39
M  V30 44 1 1 40
M  V30 45 1 2 41 CFG=3
M  V30 46 1 3 42
M  V30 47 1 3 43
M  V30 48 1 4 44 CFG=3
M  V30 49 1 6 45
M  V30 50 1 7 46
M  V30 51 1 9 47
M  V30 52 1 11 48
M  V30 53 1 15 49
M  V30 54 1 16 50
M  V30 55 1 23 51
M  V30 56 1 24 52
M  V30 57 1 25 53
M  V30 58 1 29 54
M  V30 59 1 29 55
M  V30 60 1 30 56 CFG=3
M  V30 61 1 31 57
M  V30 62 1 31 58
M  V30 63 1 32 59 CFG=3
M  V30 64 1 34 60
M  V30 65 1 36 61
M  V30 END BOND
M  V30 END CTAB
M  END
>  <Dataset>  (341) 
ChEMBL_Kinases

>  <Ligand_Instance>  (341) 
nan

>  <PDB_ID>  (341) 
nan

>  <Standardized_SMILES>  (341) 
C[C@H]1C[C@@H](c2ccncc2NC(=O)c2ccc(F)c(-c3c(F)cccc3F)n2)C[C@@H](N)[C@H]1n1cncn1

>  <Name>  (341) 
nan

>  <Pocket>  (341) 
nan

>  <ATP_Site>  (341) 
nan

>  <Peripheral>  (341) 
nan

>  <Num_H_Atoms_ProtBoundConf>  (341) 
nan

>  <Num_Resolved_Atoms>  (341) 
nan

>  <Num_Not_Resolved_Atoms>  (341) 
nan

$$$$
CHEMBL259720
     RDKit          3D

  0  0  0  0  0  0  0  0  0  0999 V3000
M  V30 BEGIN CTAB
M  V30 COUNTS 56 59 0 0 0
M  V30 BEGIN ATOM
M  V30 1 C 1.861447 -2.512870 3.345263 0
M  V30 2 C 0.537277 -2.483539 2.607874 0
M  V30 3 C 0.193765 -1.144088 2.132855 0
M  V30 4 O 1.288242 -0.974844 2.679085 0
M  V30 5 C -0.468535 -0.015659 1.534323 0
M  V30 6 C 0.177673 1.192953 1.613592 0
M  V30 7 C 1.461976 1.347571 2.236665 0
M  V30 8 C 1.423331 1.635357 3.576797 0
M  V30 9 C 2.563006 1.815166 4.328569 0
M  V30 10 C 3.784029 1.696753 3.688460 0
M  V30 11 C 3.823087 1.403293 2.321780 0
M  V30 12 C 2.684382 1.225109 1.577577 0
M  V30 13 C -0.477676 2.267291 1.056740 0
M  V30 14 C 0.124957 3.504661 1.108109 0
M  V30 15 C -0.518157 4.594583 0.554497 0
M  V30 16 Cl 0.161641 6.205445 0.567933 0
M  V30 17 C -1.747792 4.366811 -0.025560 0
M  V30 18 C -2.335830 3.120267 -0.067589 0
M  V30 19 C -1.704974 2.024267 0.480997 0
M  V30 20 C -2.319095 0.791836 0.422681 0
M  V30 21 O -3.460245 0.695216 -0.139394 0
M  V30 22 N -1.654888 -0.260642 0.979150 0
M  V30 23 C -2.386089 -1.500576 0.868714 0
M  V30 24 C -2.094932 -2.202192 -0.407258 0
M  V30 25 C -1.254193 -3.168840 -0.905037 0
M  V30 26 C -1.503266 -3.368861 -2.244931 0
M  V30 27 C -0.803118 -4.318694 -3.099821 0
M  V30 28 O -1.143748 -4.390816 -4.325372 0
M  V30 29 N 0.229542 -5.136571 -2.569519 0
M  V30 30 C 0.905077 -6.067131 -3.437577 0
M  V30 31 N -2.497625 -2.520207 -2.556839 0
M  V30 32 C -3.081683 -2.397389 -3.888913 0
M  V30 33 N -2.846240 -1.832614 -1.473537 0
M  V30 34 H 1.821447 -1.875841 4.247913 0
M  V30 35 H 2.077973 -3.558096 3.693900 0
M  V30 36 H 2.665481 -2.260977 2.649508 0
M  V30 37 H -0.216915 -2.898641 3.322652 0
M  V30 38 H 0.596718 -3.239696 1.793411 0
M  V30 39 H 0.510039 1.747273 4.164128 0
M  V30 40 H 2.597111 2.044479 5.392023 0
M  V30 41 H 4.709037 1.821738 4.201247 0
M  V30 42 H 4.742551 1.298542 1.767765 0
M  V30 43 H 2.668089 1.000850 0.536529 0
M  V30 44 H 1.091422 3.636647 1.573874 0
M  V30 45 H -2.327635 5.162266 -0.485998 0
M  V30 46 H -3.312313 2.971851 -0.534776 0
M  V30 47 H -3.466937 -1.352091 1.032796 0
M  V30 48 H -2.000915 -2.138202 1.720834 0
M  V30 49 H -0.554243 -3.620657 -0.233795 0
M  V30 50 H 0.532067 -5.101423 -1.570071 0
M  V30 51 H 0.467618 -6.084152 -4.453794 0
M  V30 52 H 0.944261 -7.091232 -2.966991 0
M  V30 53 H 1.963244 -5.751244 -3.541788 0
M  V30 54 H -3.296314 -3.395498 -4.287468 0
M  V30 55 H -2.445111 -1.853498 -4.601592 0
M  V30 56 H -4.064515 -1.859308 -3.837780 0
M  V30 END ATOM
M  V30 BEGIN BOND
M  V30 1 1 1 2
M  V30 2 1 2 3
M  V30 3 2 3 4
M  V30 4 1 3 5
M  V30 5 2 5 6
M  V30 6 1 6 7
M  V30 7 2 7 8
M  V30 8 1 8 9
M  V30 9 2 9 10
M  V30 10 1 10 11
M  V30 11 2 11 12
M  V30 12 1 6 13
M  V30 13 2 13 14
M  V30 14 1 14 15
M  V30 15 1 15 16
M  V30 16 2 15 17
M  V30 17 1 17 18
M  V30 18 2 18 19
M  V30 19 1 19 20
M  V30 20 2 20 21
M  V30 21 1 20 22
M  V30 22 1 22 23
M  V30 23 1 23 24
M  V30 24 1 24 25
M  V30 25 2 25 26
M  V30 26 1 26 27
M  V30 27 2 27 28
M  V30 28 1 27 29
M  V30 29 1 29 30
M  V30 30 1 26 31
M  V30 31 1 31 32
M  V30 32 1 31 33
M  V30 33 1 22 5
M  V30 34 2 33 24
M  V30 35 1 12 7
M  V30 36 1 19 13
M  V30 37 1 1 34
M  V30 38 1 1 35
M  V30 39 1 1 36
M  V30 40 1 2 37
M  V30 41 1 2 38
M  V30 42 1 8 39
M  V30 43 1 9 40
M  V30 44 1 10 41
M  V30 45 1 11 42
M  V30 46 1 12 43
M  V30 47 1 14 44
M  V30 48 1 17 45
M  V30 49 1 18 46
M  V30 50 1 23 47
M  V30 51 1 23 48
M  V30 52 1 25 49
M  V30 53 1 29 50
M  V30 54 1 30 51
M  V30 55 1 30 52
M  V30 56 1 30 53
M  V30 57 1 32 54
M  V30 58 1 32 55
M  V30 59 1 32 56
M  V30 END BOND
M  V30 END CTAB
M  END
>  <Dataset>  (342) 
ChEMBL_Kinases

>  <Ligand_Instance>  (342) 
nan

>  <PDB_ID>  (342) 
nan

>  <Standardized_SMILES>  (342) 
CCC(=O)c1c(-c2ccccc2)c2cc(Cl)ccc2c(=O)n1Cc1cc(C(=O)NC)n(C)n1

>  <Name>  (342) 
nan

>  <Pocket>  (342) 
nan

>  <ATP_Site>  (342) 
nan

>  <Peripheral>  (342) 
nan

>  <Num_H_Atoms_ProtBoundConf>  (342) 
nan

>  <Num_Resolved_Atoms>  (342) 
nan

>  <Num_Not_Resolved_Atoms>  (342) 
nan

$$$$
CHEMBL3687458
     RDKit          3D

  0  0  0  0  0  0  0  0  0  0999 V3000
M  V30 BEGIN CTAB
M  V30 COUNTS 61 65 0 0 0
M  V30 BEGIN ATOM
M  V30 1 C 0.758690 -1.952341 2.340378 0
M  V30 2 C 2.153095 -2.363950 1.827201 0 CFG=2
M  V30 3 C 2.949583 -1.100990 1.769420 0
M  V30 4 C 3.109575 -0.508903 0.408536 0 CFG=2
M  V30 5 C 3.148613 0.947418 0.317740 0
M  V30 6 C 4.349703 1.658592 0.457865 0
M  V30 7 C 4.532762 3.023800 0.387803 0
M  V30 8 N 3.438621 3.769795 0.158797 0
M  V30 9 C 2.238739 3.158375 0.011867 0
M  V30 10 C 2.096756 1.801080 0.088089 0
M  V30 11 N 0.784517 1.354965 -0.096338 0
M  V30 12 C 0.090122 1.376108 1.172716 0
M  V30 13 O 0.846951 1.785443 2.095919 0
M  V30 14 C -1.321407 0.969197 1.344640 0
M  V30 15 C -1.760379 1.086398 2.648931 0
M  V30 16 C -3.042595 0.770326 3.041024 0
M  V30 17 C -3.936485 0.314983 2.094679 0
M  V30 18 F -5.227606 -0.027595 2.362332 0
M  V30 19 C -3.434636 0.220327 0.808396 0
M  V30 20 C -4.352860 -0.257271 -0.211976 0
M  V30 21 C -4.493412 -1.620988 -0.485285 0
M  V30 22 F -3.720048 -2.434993 0.270963 0
M  V30 23 C -5.370488 -2.082293 -1.463648 0
M  V30 24 C -6.132199 -1.212127 -2.198457 0
M  V30 25 C -5.986953 0.133818 -1.921651 0
M  V30 26 C -5.122751 0.647661 -0.952381 0
M  V30 27 F -5.039845 1.987402 -0.742935 0
M  V30 28 N -2.178533 0.533031 0.440758 0
M  V30 29 C 2.293638 -1.213039 -0.652150 0
M  V30 30 C 2.731952 -2.668427 -0.570330 0 CFG=2
M  V30 31 N 2.403306 -3.408954 -1.768663 0
M  V30 32 C 2.085701 -3.235075 0.652946 0 CFG=2
M  V30 33 N 0.728069 -3.723672 0.344466 0
M  V30 34 C -0.025762 -4.560311 1.080610 0
M  V30 35 N -1.192011 -4.741720 0.424450 0
M  V30 36 C -1.120483 -4.006974 -0.702280 0
M  V30 37 N 0.046712 -3.386189 -0.753905 0
M  V30 38 H 0.268161 -2.781963 2.890745 0
M  V30 39 H 0.160024 -1.508563 1.549584 0
M  V30 40 H 0.947690 -1.177405 3.111433 0
M  V30 41 H 2.520084 -2.981364 2.684903 0
M  V30 42 H 3.935852 -1.292847 2.250543 0
M  V30 43 H 2.538781 -0.314407 2.434854 0
M  V30 44 H 4.157778 -0.829899 0.088717 0
M  V30 45 H 5.260659 1.066595 0.646459 0
M  V30 46 H 5.504904 3.445968 0.512441 0
M  V30 47 H 1.429556 3.853033 -0.168046 0
M  V30 48 H 0.207837 1.022255 -0.928462 0
M  V30 49 H -1.128913 1.439150 3.478695 0
M  V30 50 H -3.386705 0.861637 4.060438 0
M  V30 51 H -5.446211 -3.132105 -1.639222 0
M  V30 52 H -6.821632 -1.539361 -2.964330 0
M  V30 53 H -6.577693 0.831184 -2.489506 0
M  V30 54 H 2.599550 -0.862082 -1.657132 0
M  V30 55 H 1.219715 -1.092453 -0.585028 0
M  V30 56 H 3.825992 -2.671385 -0.410679 0
M  V30 57 H 2.093216 -4.373199 -1.461160 0
M  V30 58 H 3.297990 -3.583117 -2.315982 0
M  V30 59 H 2.641761 -4.211810 0.837194 0
M  V30 60 H 0.223136 -5.010884 2.008965 0
M  V30 61 H -1.828001 -3.850496 -1.530524 0
M  V30 END ATOM
M  V30 BEGIN BOND
M  V30 1 1 1 2
M  V30 2 1 2 3
M  V30 3 1 3 4
M  V30 4 1 4 5
M  V30 5 2 5 6
M  V30 6 1 6 7
M  V30 7 2 7 8
M  V30 8 1 8 9
M  V30 9 2 9 10
M  V30 10 1 10 11
M  V30 11 1 11 12
M  V30 12 2 12 13
M  V30 13 1 12 14
M  V30 14 2 14 15
M  V30 15 1 15 16
M  V30 16 2 16 17
M  V30 17 1 17 18
M  V30 18 1 17 19
M  V30 19 1 19 20
M  V30 20 2 20 21
M  V30 21 1 21 22
M  V30 22 1 21 23
M  V30 23 2 23 24
M  V30 24 1 24 25
M  V30 25 2 25 26
M  V30 26 1 26 27
M  V30 27 2 19 28
M  V30 28 1 4 29
M  V30 29 1 29 30
M  V30 30 1 30 31
M  V30 31 1 30 32
M  V30 32 1 32 33
M  V30 33 1 33 34
M  V30 34 2 34 35
M  V30 35 1 35 36
M  V30 36 2 36 37
M  V30 37 1 32 2
M  V30 38 1 37 33
M  V30 39 1 10 5
M  V30 40 1 28 14
M  V30 41 1 26 20
M  V30 42 1 1 38
M  V30 43 1 1 39
M  V30 44 1 1 40
M  V30 45 1 2 41 CFG=1
M  V30 46 1 3 42
M  V30 47 1 3 43
M  V30 48 1 4 44 CFG=3
M  V30 49 1 6 45
M  V30 50 1 7 46
M  V30 51 1 9 47
M  V30 52 1 11 48
M  V30 53 1 15 49
M  V30 54 1 16 50
M  V30 55 1 23 51
M  V30 56 1 24 52
M  V30 57 1 25 53
M  V30 58 1 29 54
M  V30 59 1 29 55
M  V30 60 1 30 56 CFG=1
M  V30 61 1 31 57
M  V30 62 1 31 58
M  V30 63 1 32 59 CFG=1
M  V30 64 1 34 60
M  V30 65 1 36 61
M  V30 END BOND
M  V30 END CTAB
M  END
>  <Dataset>  (343) 
ChEMBL_Kinases

>  <Ligand_Instance>  (343) 
nan

>  <PDB_ID>  (343) 
nan

>  <Standardized_SMILES>  (343) 
C[C@@H]1C[C@H](c2ccncc2NC(=O)c2ccc(F)c(-c3c(F)cccc3F)n2)C[C@H](N)[C@@H]1n1cncn1

>  <Name>  (343) 
nan

>  <Pocket>  (343) 
nan

>  <ATP_Site>  (343) 
nan

>  <Peripheral>  (343) 
nan

>  <Num_H_Atoms_ProtBoundConf>  (343) 
nan

>  <Num_Resolved_Atoms>  (343) 
nan

>  <Num_Not_Resolved_Atoms>  (343) 
nan

$$$$
CHEMBL3687463
     RDKit          3D

  0  0  0  0  0  0  0  0  0  0999 V3000
M  V30 BEGIN CTAB
M  V30 COUNTS 69 72 0 0 0
M  V30 BEGIN ATOM
M  V30 1 C -2.772856 -2.118885 4.769491 0
M  V30 2 O -3.046299 -0.761678 4.473080 0
M  V30 3 C -2.342800 -0.059600 3.506804 0
M  V30 4 O -1.594585 -1.013480 3.180426 0
M  V30 5 N -2.514217 1.296259 3.112271 0
M  V30 6 C -3.569306 1.936797 3.866952 0
M  V30 7 C -1.515303 1.511483 2.056329 0 CFG=2
M  V30 8 C -0.435919 2.463782 2.424856 0 CFG=2
M  V30 9 N -0.789155 3.840961 2.482737 0
M  V30 10 C 0.718448 2.223948 1.458422 0
M  V30 11 C 0.243288 1.822324 0.078019 0 CFG=2
M  V30 12 C 1.270418 2.181080 -0.926526 0
M  V30 13 C 1.167687 3.459672 -1.486208 0
M  V30 14 C 2.143753 3.765667 -2.422947 0
M  V30 15 N 3.138001 2.950706 -2.811331 0
M  V30 16 C 3.185438 1.723348 -2.233011 0
M  V30 17 C 2.265118 1.289204 -1.276622 0
M  V30 18 N 2.361518 0.008295 -0.711358 0
M  V30 19 C 2.951395 -0.658497 0.367235 0
M  V30 20 O 3.664354 -0.046065 1.200225 0
M  V30 21 C 2.664605 -2.087031 0.424238 0
M  V30 22 C 3.231040 -2.776690 1.474961 0
M  V30 23 C 3.018361 -4.136393 1.616558 0
M  V30 24 C 2.228790 -4.829746 0.699861 0
M  V30 25 F 1.979430 -6.145363 0.773824 0
M  V30 26 C 1.682485 -4.095653 -0.336376 0
M  V30 27 C 0.844191 -4.732426 -1.343105 0
M  V30 28 C -0.535965 -4.846578 -1.218892 0
M  V30 29 F -1.133783 -4.344237 -0.112466 0
M  V30 30 C -1.232464 -5.469669 -2.234330 0
M  V30 31 C -0.632852 -5.988570 -3.372421 0
M  V30 32 C -1.441492 -6.654452 -4.442607 0
M  V30 33 C 0.734156 -5.867018 -3.479166 0
M  V30 34 C 1.452585 -5.243024 -2.467208 0
M  V30 35 F 2.784180 -5.182746 -2.681696 0
M  V30 36 N 1.909664 -2.793655 -0.437760 0
M  V30 37 C -1.074152 2.477448 -0.145612 0
M  V30 38 C -2.111512 1.779810 0.719291 0 CFG=2
M  V30 39 C -3.376711 2.597865 0.739837 0
M  V30 40 H -1.720238 -2.155557 5.117619 0
M  V30 41 H -3.483890 -2.534096 5.497371 0
M  V30 42 H -2.804576 -2.671611 3.803503 0
M  V30 43 H -3.357964 1.758991 4.946651 0
M  V30 44 H -4.544240 1.425427 3.668522 0
M  V30 45 H -3.658871 3.001639 3.677386 0
M  V30 46 H -1.016833 0.495272 1.994472 0
M  V30 47 H -0.032166 2.187559 3.426754 0
M  V30 48 H -0.045887 4.374512 2.945662 0
M  V30 49 H -1.749472 4.078290 2.731180 0
M  V30 50 H 1.218109 3.224905 1.324862 0
M  V30 51 H 1.422166 1.461366 1.847508 0
M  V30 52 H 0.136028 0.704941 -0.001751 0
M  V30 53 H 0.400677 4.159394 -1.222109 0
M  V30 54 H 2.123835 4.750907 -2.901755 0
M  V30 55 H 3.967334 1.012951 -2.503686 0
M  V30 56 H 1.748186 -0.441140 -1.453742 0
M  V30 57 H 3.852882 -2.273961 2.210967 0
M  V30 58 H 3.430299 -4.742199 2.414881 0
M  V30 59 H -2.306343 -5.571759 -2.163662 0
M  V30 60 H -1.040885 -7.663956 -4.596616 0
M  V30 61 H -2.484133 -6.694386 -4.120832 0
M  V30 62 H -1.302188 -6.077459 -5.382628 0
M  V30 63 H 1.167460 -6.283746 -4.381582 0
M  V30 64 H -1.406565 2.485481 -1.199128 0
M  V30 65 H -0.992094 3.551213 0.135409 0
M  V30 66 H -2.341858 0.794709 0.219125 0
M  V30 67 H -3.860659 2.462253 -0.273266 0
M  V30 68 H -3.109698 3.656452 0.804679 0
M  V30 69 H -4.119114 2.240638 1.452759 0
M  V30 END ATOM
M  V30 BEGIN BOND
M  V30 1 1 1 2
M  V30 2 1 2 3
M  V30 3 2 3 4
M  V30 4 1 3 5
M  V30 5 1 5 6
M  V30 6 1 5 7
M  V30 7 1 7 8
M  V30 8 1 8 9
M  V30 9 1 8 10
M  V30 10 1 10 11
M  V30 11 1 11 12
M  V30 12 2 12 13
M  V30 13 1 13 14
M  V30 14 2 14 15
M  V30 15 1 15 16
M  V30 16 2 16 17
M  V30 17 1 17 18
M  V30 18 1 18 19
M  V30 19 2 19 20
M  V30 20 1 19 21
M  V30 21 2 21 22
M  V30 22 1 22 23
M  V30 23 2 23 24
M  V30 24 1 24 25
M  V30 25 1 24 26
M  V30 26 1 26 27
M  V30 27 2 27 28
M  V30 28 1 28 29
M  V30 29 1 28 30
M  V30 30 2 30 31
M  V30 31 1 31 32
M  V30 32 1 31 33
M  V30 33 2 33 34
M  V30 34 1 34 35
M  V30 35 2 26 36
M  V30 36 1 11 37
M  V30 37 1 37 38
M  V30 38 1 38 39
M  V30 39 1 38 7
M  V30 40 1 17 12
M  V30 41 1 36 21
M  V30 42 1 34 27
M  V30 43 1 1 40
M  V30 44 1 1 41
M  V30 45 1 1 42
M  V30 46 1 6 43
M  V30 47 1 6 44
M  V30 48 1 6 45
M  V30 49 1 7 46 CFG=3
M  V30 50 1 8 47 CFG=1
M  V30 51 1 9 48
M  V30 52 1 9 49
M  V30 53 1 10 50
M  V30 54 1 10 51
M  V30 55 1 11 52 CFG=1
M  V30 56 1 13 53
M  V30 57 1 14 54
M  V30 58 1 16 55
M  V30 59 1 18 56
M  V30 60 1 22 57
M  V30 61 1 23 58
M  V30 62 1 30 59
M  V30 63 1 32 60
M  V30 64 1 32 61
M  V30 65 1 32 62
M  V30 66 1 33 63
M  V30 67 1 37 64
M  V30 68 1 37 65
M  V30 69 1 38 66 CFG=3
M  V30 70 1 39 67
M  V30 71 1 39 68
M  V30 72 1 39 69
M  V30 END BOND
M  V30 END CTAB
M  END
>  <Dataset>  (344) 
ChEMBL_Kinases

>  <Ligand_Instance>  (344) 
nan

>  <PDB_ID>  (344) 
nan

>  <Standardized_SMILES>  (344) 
COC(=O)N(C)[C@@H]1[C@H](N)C[C@H](c2ccncc2NC(=O)c2ccc(F)c(-c3c(F)cc(C)cc3F)n2)C[C@@H]1C

>  <Name>  (344) 
nan

>  <Pocket>  (344) 
nan

>  <ATP_Site>  (344) 
nan

>  <Peripheral>  (344) 
nan

>  <Num_H_Atoms_ProtBoundConf>  (344) 
nan

>  <Num_Resolved_Atoms>  (344) 
nan

>  <Num_Not_Resolved_Atoms>  (344) 
nan

$$$$
CHEMBL2420701
     RDKit          3D

  0  0  0  0  0  0  0  0  0  0999 V3000
M  V30 BEGIN CTAB
M  V30 COUNTS 35 37 0 0 0
M  V30 BEGIN ATOM
M  V30 1 C -0.697615 -1.153612 5.351338 0
M  V30 2 N -0.546118 -0.862294 3.925625 0
M  V30 3 C 0.148208 -1.596881 3.005562 0
M  V30 4 C 0.043204 -0.972937 1.757598 0
M  V30 5 C 0.699517 -1.562787 0.599288 0
M  V30 6 C 0.147264 -2.810154 0.286752 0
M  V30 7 C 0.647031 -3.532923 -0.795177 0
M  V30 8 N 1.667652 -3.060530 -1.568763 0
M  V30 9 C 2.182502 -1.861720 -1.251084 0
M  V30 10 C 3.295828 -1.229418 -2.010110 0
M  V30 11 O 2.790180 -0.437583 -3.043288 0
M  V30 12 C 1.728794 -1.108635 -0.197125 0
M  V30 13 C -0.743711 0.160960 1.985911 0
M  V30 14 C -1.062420 1.063351 0.888934 0
M  V30 15 C -2.393642 1.118733 0.478132 0
M  V30 16 C -2.793097 1.949094 -0.555550 0
M  V30 17 C -1.878631 2.757856 -1.220665 0
M  V30 18 F -2.136237 3.609861 -2.240892 0
M  V30 19 C -0.560316 2.710275 -0.821892 0
M  V30 20 C -0.181103 1.878069 0.208725 0
M  V30 21 N -1.073381 0.186608 3.295566 0
M  V30 22 H -0.623109 -2.236056 5.509268 0
M  V30 23 H 0.185106 -0.712492 5.884141 0
M  V30 24 H -1.652585 -0.809551 5.746088 0
M  V30 25 H 0.671217 -2.517677 3.304331 0
M  V30 26 H -0.667172 -3.361605 0.775497 0
M  V30 27 H 0.277155 -4.505803 -1.105919 0
M  V30 28 H 3.999276 -2.002892 -2.405835 0
M  V30 29 H 3.918062 -0.573789 -1.377051 0
M  V30 30 H 2.371268 -0.999764 -3.715039 0
M  V30 31 H 2.084684 -0.140899 0.127981 0
M  V30 32 H -3.217935 0.542593 0.906478 0
M  V30 33 H -3.800292 2.045643 -0.929894 0
M  V30 34 H 0.232358 3.310850 -1.286433 0
M  V30 35 H 0.832218 1.844655 0.516795 0
M  V30 END ATOM
M  V30 BEGIN BOND
M  V30 1 1 1 2
M  V30 2 1 2 3
M  V30 3 2 3 4
M  V30 4 1 4 5
M  V30 5 2 5 6
M  V30 6 1 6 7
M  V30 7 2 7 8
M  V30 8 1 8 9
M  V30 9 1 9 10
M  V30 10 1 10 11
M  V30 11 2 9 12
M  V30 12 1 4 13
M  V30 13 1 13 14
M  V30 14 2 14 15
M  V30 15 1 15 16
M  V30 16 2 16 17
M  V30 17 1 17 18
M  V30 18 1 17 19
M  V30 19 2 19 20
M  V30 20 2 13 21
M  V30 21 1 21 2
M  V30 22 1 12 5
M  V30 23 1 20 14
M  V30 24 1 1 22
M  V30 25 1 1 23
M  V30 26 1 1 24
M  V30 27 1 3 25
M  V30 28 1 6 26
M  V30 29 1 7 27
M  V30 30 1 10 28
M  V30 31 1 10 29
M  V30 32 1 11 30
M  V30 33 1 12 31
M  V30 34 1 15 32
M  V30 35 1 16 33
M  V30 36 1 19 34
M  V30 37 1 20 35
M  V30 END BOND
M  V30 END CTAB
M  END
>  <Dataset>  (345) 
ChEMBL_Kinases

>  <Ligand_Instance>  (345) 
nan

>  <PDB_ID>  (345) 
nan

>  <Standardized_SMILES>  (345) 
Cn1cc(-c2ccnc(CO)c2)c(-c2ccc(F)cc2)n1

>  <Name>  (345) 
nan

>  <Pocket>  (345) 
nan

>  <ATP_Site>  (345) 
nan

>  <Peripheral>  (345) 
nan

>  <Num_H_Atoms_ProtBoundConf>  (345) 
nan

>  <Num_Resolved_Atoms>  (345) 
nan

>  <Num_Not_Resolved_Atoms>  (345) 
nan

$$$$
CHEMBL3691927
     RDKit          3D

  0  0  0  0  0  0  0  0  0  0999 V3000
M  V30 BEGIN CTAB
M  V30 COUNTS 63 66 0 0 0
M  V30 BEGIN ATOM
M  V30 1 C 7.733466 -3.153660 2.005310 0
M  V30 2 O 6.669905 -3.198951 1.071921 0
M  V30 3 C 5.842239 -2.123240 0.779965 0
M  V30 4 C 5.980621 -0.885961 1.382919 0
M  V30 5 C 5.116031 0.135189 1.037832 0
M  V30 6 F 5.191473 1.368933 1.585198 0
M  V30 7 C 4.122690 -0.090977 0.094159 0
M  V30 8 C 3.153921 0.908278 -0.349198 0
M  V30 9 N 1.964198 1.037226 0.303314 0
M  V30 10 C 1.039909 1.927935 -0.051435 0
M  V30 11 C -0.228414 2.047372 0.663827 0
M  V30 12 O -1.128701 2.858650 0.379686 0
M  V30 13 N -0.563805 1.222824 1.786106 0
M  V30 14 C -1.853010 1.552466 2.286169 0
M  V30 15 C -2.016625 2.520960 3.274985 0
M  V30 16 N -3.266474 2.808782 3.728068 0
M  V30 17 C -4.344229 2.181816 3.244845 0
M  V30 18 C -4.269749 1.207731 2.262261 0
M  V30 19 C -2.998349 0.911613 1.798035 0
M  V30 20 C -2.775290 -0.099465 0.758812 0 CFG=1
M  V30 21 C -2.567416 -1.441869 1.413813 0
M  V30 22 C -2.259660 -2.531181 0.436634 0 CFG=1
M  V30 23 N -2.211065 -3.780260 1.183335 0
M  V30 24 C -3.399109 -2.620697 -0.557982 0 CFG=2
M  V30 25 O -3.232743 -3.670905 -1.440979 0
M  V30 26 C -4.243988 -4.620089 -1.331256 0
M  V30 27 C -3.520840 -1.284326 -1.238258 0 CFG=1
M  V30 28 C -4.599464 -1.390238 -2.295717 0
M  V30 29 C -3.908691 -0.248521 -0.212207 0
M  V30 30 C 1.219520 2.791585 -1.112546 0
M  V30 31 C 2.422143 2.685364 -1.798427 0
M  V30 32 C 3.378366 1.760489 -1.427725 0
M  V30 33 F 4.549612 1.662664 -2.101848 0
M  V30 34 C 3.997289 -1.345958 -0.504541 0
M  V30 35 F 3.036922 -1.607891 -1.433832 0
M  V30 36 C 4.868106 -2.386210 -0.161562 0
M  V30 37 H 7.871605 -4.162411 2.491131 0
M  V30 38 H 8.677458 -2.836890 1.497524 0
M  V30 39 H 7.567406 -2.451057 2.840535 0
M  V30 40 H 6.758616 -0.724109 2.116037 0
M  V30 41 H 0.134301 0.492556 2.116717 0
M  V30 42 H -1.136026 3.023873 3.660467 0
M  V30 43 H -5.318980 2.448430 3.640284 0
M  V30 44 H -5.149443 0.706319 1.878160 0
M  V30 45 H -1.866561 0.128710 0.130659 0
M  V30 46 H -3.542592 -1.702896 1.917756 0
M  V30 47 H -1.739388 -1.406417 2.172213 0
M  V30 48 H -1.282528 -2.409832 -0.035622 0
M  V30 49 H -1.501404 -3.720956 1.955345 0
M  V30 50 H -1.940915 -4.551411 0.530460 0
M  V30 51 H -4.315876 -2.812250 0.021120 0
M  V30 52 H -5.202135 -4.104855 -1.551992 0
M  V30 53 H -4.339379 -5.009747 -0.287445 0
M  V30 54 H -4.013008 -5.453472 -2.018675 0
M  V30 55 H -2.547879 -0.979378 -1.700425 0
M  V30 56 H -5.575561 -1.429750 -1.791720 0
M  V30 57 H -4.444178 -2.285747 -2.921742 0
M  V30 58 H -4.479722 -0.496637 -2.947328 0
M  V30 59 H -4.836437 -0.531388 0.285779 0
M  V30 60 H -4.108180 0.703544 -0.775021 0
M  V30 61 H 0.449373 3.513291 -1.385831 0
M  V30 62 H 2.573132 3.364632 -2.639491 0
M  V30 63 H 4.754042 -3.354198 -0.638283 0
M  V30 END ATOM
M  V30 BEGIN BOND
M  V30 1 1 1 2
M  V30 2 1 2 3
M  V30 3 2 3 4
M  V30 4 1 4 5
M  V30 5 1 5 6
M  V30 6 2 5 7
M  V30 7 1 7 8
M  V30 8 2 8 9
M  V30 9 1 9 10
M  V30 10 1 10 11
M  V30 11 2 11 12
M  V30 12 1 11 13
M  V30 13 1 13 14
M  V30 14 2 14 15
M  V30 15 1 15 16
M  V30 16 2 16 17
M  V30 17 1 17 18
M  V30 18 2 18 19
M  V30 19 1 19 20
M  V30 20 1 20 21
M  V30 21 1 21 22
M  V30 22 1 22 23
M  V30 23 1 22 24
M  V30 24 1 24 25
M  V30 25 1 25 26
M  V30 26 1 24 27
M  V30 27 1 27 28
M  V30 28 1 27 29
M  V30 29 2 10 30
M  V30 30 1 30 31
M  V30 31 2 31 32
M  V30 32 1 32 33
M  V30 33 1 7 34
M  V30 34 1 34 35
M  V30 35 2 34 36
M  V30 36 1 36 3
M  V30 37 1 32 8
M  V30 38 1 19 14
M  V30 39 1 29 20
M  V30 40 1 1 37
M  V30 41 1 1 38
M  V30 42 1 1 39
M  V30 43 1 4 40
M  V30 44 1 13 41
M  V30 45 1 15 42
M  V30 46 1 17 43
M  V30 47 1 18 44
M  V30 48 1 20 45 CFG=3
M  V30 49 1 21 46
M  V30 50 1 21 47
M  V30 51 1 22 48 CFG=3
M  V30 52 1 23 49
M  V30 53 1 23 50
M  V30 54 1 24 51 CFG=1
M  V30 55 1 26 52
M  V30 56 1 26 53
M  V30 57 1 26 54
M  V30 58 1 27 55 CFG=3
M  V30 59 1 28 56
M  V30 60 1 28 57
M  V30 61 1 28 58
M  V30 62 1 29 59
M  V30 63 1 29 60
M  V30 64 1 30 61
M  V30 65 1 31 62
M  V30 66 1 36 63
M  V30 END BOND
M  V30 END CTAB
M  END
>  <Dataset>  (346) 
ChEMBL_Kinases

>  <Ligand_Instance>  (346) 
nan

>  <PDB_ID>  (346) 
nan

>  <Standardized_SMILES>  (346) 
COc1cc(F)c(-c2nc(C(=O)Nc3cnccc3[C@H]3C[C@@H](N)[C@H](OC)[C@@H](C)C3)ccc2F)c(F)c1

>  <Name>  (346) 
nan

>  <Pocket>  (346) 
nan

>  <ATP_Site>  (346) 
nan

>  <Peripheral>  (346) 
nan

>  <Num_H_Atoms_ProtBoundConf>  (346) 
nan

>  <Num_Resolved_Atoms>  (346) 
nan

>  <Num_Not_Resolved_Atoms>  (346) 
nan

$$$$
CHEMBL2420702
     RDKit          3D

  0  0  0  0  0  0  0  0  0  0999 V3000
M  V30 BEGIN CTAB
M  V30 COUNTS 39 41 0 0 0
M  V30 BEGIN ATOM
M  V30 1 C -1.149776 -4.155672 1.390731 0
M  V30 2 N -0.633155 -4.182078 2.725057 0
M  V30 3 C 0.325913 -3.115716 2.971018 0
M  V30 4 C -0.330634 -1.792794 2.762265 0
M  V30 5 C -0.315455 -1.189246 1.518233 0
M  V30 6 C -0.931585 0.051711 1.319573 0
M  V30 7 C -0.810313 0.527647 -0.055537 0
M  V30 8 C -1.714934 0.801597 -1.050041 0
M  V30 9 N -1.069292 1.223840 -2.157462 0
M  V30 10 C -1.691214 1.610325 -3.425272 0
M  V30 11 N 0.225003 1.221579 -1.880797 0
M  V30 12 C 0.430523 0.805815 -0.614755 0
M  V30 13 C 1.756774 0.694425 -0.010849 0
M  V30 14 C 1.906127 1.544413 1.080332 0
M  V30 15 C 3.110164 1.582175 1.792860 0
M  V30 16 C 4.163363 0.768570 1.411515 0
M  V30 17 F 5.346609 0.775895 2.075742 0
M  V30 18 C 3.987628 -0.064734 0.325499 0
M  V30 19 C 2.808297 -0.116479 -0.389865 0
M  V30 20 C -1.553837 0.661842 2.386248 0
M  V30 21 C -1.534378 0.005262 3.609260 0
M  V30 22 N -0.937790 -1.183087 3.775133 0
M  V30 23 H -0.390378 -4.071631 0.590049 0
M  V30 24 H -1.635920 -5.157156 1.198717 0
M  V30 25 H -1.954834 -3.374419 1.274065 0
M  V30 26 H -0.262965 -5.109943 3.011386 0
M  V30 27 H 1.100343 -3.216847 2.178397 0
M  V30 28 H 0.830638 -3.214471 3.930835 0
M  V30 29 H 0.200025 -1.744658 0.734405 0
M  V30 30 H -2.771489 0.673974 -0.894806 0
M  V30 31 H -2.741910 1.219296 -3.420117 0
M  V30 32 H -1.198170 1.048359 -4.265065 0
M  V30 33 H -1.728124 2.689600 -3.579246 0
M  V30 34 H 1.155748 2.219653 1.464043 0
M  V30 35 H 3.256462 2.234619 2.647940 0
M  V30 36 H 4.786687 -0.714843 -0.003268 0
M  V30 37 H 2.593101 -0.737207 -1.245685 0
M  V30 38 H -1.998603 1.604518 2.149599 0
M  V30 39 H -2.041685 0.535061 4.415976 0
M  V30 END ATOM
M  V30 BEGIN BOND
M  V30 1 1 1 2
M  V30 2 1 2 3
M  V30 3 1 3 4
M  V30 4 2 4 5
M  V30 5 1 5 6
M  V30 6 1 6 7
M  V30 7 2 7 8
M  V30 8 1 8 9
M  V30 9 1 9 10
M  V30 10 1 9 11
M  V30 11 2 11 12
M  V30 12 1 12 13
M  V30 13 2 13 14
M  V30 14 1 14 15
M  V30 15 2 15 16
M  V30 16 1 16 17
M  V30 17 1 16 18
M  V30 18 2 18 19
M  V30 19 2 6 20
M  V30 20 1 20 21
M  V30 21 2 21 22
M  V30 22 1 22 4
M  V30 23 1 12 7
M  V30 24 1 19 13
M  V30 25 1 1 23
M  V30 26 1 1 24
M  V30 27 1 1 25
M  V30 28 1 2 26
M  V30 29 1 3 27
M  V30 30 1 3 28
M  V30 31 1 5 29
M  V30 32 1 8 30
M  V30 33 1 10 31
M  V30 34 1 10 32
M  V30 35 1 10 33
M  V30 36 1 14 34
M  V30 37 1 15 35
M  V30 38 1 18 36
M  V30 39 1 19 37
M  V30 40 1 20 38
M  V30 41 1 21 39
M  V30 END BOND
M  V30 END CTAB
M  END
>  <Dataset>  (347) 
ChEMBL_Kinases

>  <Ligand_Instance>  (347) 
nan

>  <PDB_ID>  (347) 
nan

>  <Standardized_SMILES>  (347) 
CNCc1cc(-c2cn(C)nc2-c2ccc(F)cc2)ccn1

>  <Name>  (347) 
nan

>  <Pocket>  (347) 
nan

>  <ATP_Site>  (347) 
nan

>  <Peripheral>  (347) 
nan

>  <Num_H_Atoms_ProtBoundConf>  (347) 
nan

>  <Num_Resolved_Atoms>  (347) 
nan

>  <Num_Not_Resolved_Atoms>  (347) 
nan

$$$$
CHEMBL3691926
     RDKit          3D

  0  0  0  0  0  0  0  0  0  0999 V3000
M  V30 BEGIN CTAB
M  V30 COUNTS 69 72 0 0 0
M  V30 BEGIN ATOM
M  V30 1 C -0.842659 -0.890597 6.194212 0
M  V30 2 O -0.856069 0.161915 5.257935 0
M  V30 3 C 0.375301 0.078185 4.598132 0 CFG=1
M  V30 4 C 0.210438 -0.312283 3.152566 0 CFG=2
M  V30 5 N -0.197131 -1.673717 2.982323 0
M  V30 6 C 1.475694 0.046888 2.386309 0
M  V30 7 C 1.409926 1.575968 2.300776 0 CFG=2
M  V30 8 C 2.449742 2.130623 1.409102 0
M  V30 9 C 3.704988 2.495637 1.844696 0
M  V30 10 C 4.703951 3.016843 1.047774 0
M  V30 11 N 4.387631 3.168646 -0.270359 0
M  V30 12 C 3.167298 2.822065 -0.735263 0
M  V30 13 C 2.152933 2.293290 0.071652 0
M  V30 14 N 0.917284 1.969563 -0.531570 0
M  V30 15 C -0.238558 2.756769 -0.717757 0
M  V30 16 O -0.254637 3.947301 -0.310649 0
M  V30 17 C -1.379160 2.133612 -1.388101 0
M  V30 18 C -2.526453 2.891393 -1.581590 0
M  V30 19 C -3.629722 2.347870 -2.210478 0
M  V30 20 C -3.627537 1.040285 -2.664676 0
M  V30 21 F -4.625113 0.390523 -3.288374 0
M  V30 22 C -2.453507 0.311031 -2.450567 0
M  V30 23 C -2.225938 -1.076280 -2.842924 0
M  V30 24 C -2.550135 -2.066355 -1.951305 0
M  V30 25 F -3.075072 -1.806854 -0.717522 0
M  V30 26 C -2.379508 -3.409115 -2.210731 0
M  V30 27 C -1.857920 -3.804487 -3.421433 0
M  V30 28 O -1.574401 -5.044240 -3.964275 0
M  V30 29 C -1.784899 -6.274843 -3.318518 0
M  V30 30 C -2.699185 -7.191886 -4.108719 0
M  V30 31 C -0.436940 -6.939515 -3.087392 0
M  V30 32 C -1.517585 -2.814407 -4.351948 0
M  V30 33 C -1.701587 -1.457022 -4.061886 0
M  V30 34 F -1.393486 -0.460607 -4.914355 0
M  V30 35 N -1.416743 0.868955 -1.843207 0
M  V30 36 C 1.342615 2.220138 3.652236 0
M  V30 37 C 1.231203 1.276224 4.809592 0 CFG=2
M  V30 38 C 2.590738 0.885436 5.387679 0
M  V30 39 H -1.782686 -0.931618 6.792226 0
M  V30 40 H -0.010629 -0.794903 6.921670 0
M  V30 41 H -0.795495 -1.866811 5.632660 0
M  V30 42 H 0.883805 -0.797039 5.079831 0
M  V30 43 H -0.611509 0.317568 2.738413 0
M  V30 44 H 0.406261 -2.198621 2.339688 0
M  V30 45 H -1.224048 -1.784788 2.772253 0
M  V30 46 H 2.393125 -0.326808 2.832389 0
M  V30 47 H 1.324122 -0.314625 1.340007 0
M  V30 48 H 0.383533 1.735774 1.850780 0
M  V30 49 H 3.972357 2.382305 2.884038 0
M  V30 50 H 5.675483 3.288672 1.437746 0
M  V30 51 H 3.039844 2.992876 -1.809542 0
M  V30 52 H 0.937767 0.977889 -0.867372 0
M  V30 53 H -2.546805 3.917180 -1.232882 0
M  V30 54 H -4.545035 2.899036 -2.383323 0
M  V30 55 H -2.599795 -4.245680 -1.586182 0
M  V30 56 H -2.207247 -6.092447 -2.313033 0
M  V30 57 H -2.566613 -7.022285 -5.196329 0
M  V30 58 H -3.749666 -7.041940 -3.809008 0
M  V30 59 H -2.416471 -8.237386 -3.860842 0
M  V30 60 H -0.604070 -7.677658 -2.262423 0
M  V30 61 H 0.288121 -6.210136 -2.708632 0
M  V30 62 H -0.131450 -7.419896 -4.039356 0
M  V30 63 H -1.092990 -2.948235 -5.358882 0
M  V30 64 H 0.510690 2.982191 3.720361 0
M  V30 65 H 2.254012 2.851328 3.873188 0
M  V30 66 H 0.744596 1.854510 5.651418 0
M  V30 67 H 2.907546 1.554917 6.214764 0
M  V30 68 H 3.394269 0.870746 4.652635 0
M  V30 69 H 2.502021 -0.126846 5.846677 0
M  V30 END ATOM
M  V30 BEGIN BOND
M  V30 1 1 1 2
M  V30 2 1 2 3
M  V30 3 1 3 4
M  V30 4 1 4 5
M  V30 5 1 4 6
M  V30 6 1 6 7
M  V30 7 1 7 8
M  V30 8 2 8 9
M  V30 9 1 9 10
M  V30 10 2 10 11
M  V30 11 1 11 12
M  V30 12 2 12 13
M  V30 13 1 13 14
M  V30 14 1 14 15
M  V30 15 2 15 16
M  V30 16 1 15 17
M  V30 17 2 17 18
M  V30 18 1 18 19
M  V30 19 2 19 20
M  V30 20 1 20 21
M  V30 21 1 20 22
M  V30 22 1 22 23
M  V30 23 2 23 24
M  V30 24 1 24 25
M  V30 25 1 24 26
M  V30 26 2 26 27
M  V30 27 1 27 28
M  V30 28 1 28 29
M  V30 29 1 29 30
M  V30 30 1 29 31
M  V30 31 1 27 32
M  V30 32 2 32 33
M  V30 33 1 33 34
M  V30 34 2 22 35
M  V30 35 1 7 36
M  V30 36 1 36 37
M  V30 37 1 37 38
M  V30 38 1 37 3
M  V30 39 1 13 8
M  V30 40 1 35 17
M  V30 41 1 33 23
M  V30 42 1 1 39
M  V30 43 1 1 40
M  V30 44 1 1 41
M  V30 45 1 3 42 CFG=1
M  V30 46 1 4 43 CFG=3
M  V30 47 1 5 44
M  V30 48 1 5 45
M  V30 49 1 6 46
M  V30 50 1 6 47
M  V30 51 1 7 48 CFG=3
M  V30 52 1 9 49
M  V30 53 1 10 50
M  V30 54 1 12 51
M  V30 55 1 14 52
M  V30 56 1 18 53
M  V30 57 1 19 54
M  V30 58 1 26 55
M  V30 59 1 29 56
M  V30 60 1 30 57
M  V30 61 1 30 58
M  V30 62 1 30 59
M  V30 63 1 31 60
M  V30 64 1 31 61
M  V30 65 1 31 62
M  V30 66 1 32 63
M  V30 67 1 36 64
M  V30 68 1 36 65
M  V30 69 1 37 66 CFG=1
M  V30 70 1 38 67
M  V30 71 1 38 68
M  V30 72 1 38 69
M  V30 END BOND
M  V30 END CTAB
M  END
>  <Dataset>  (348) 
ChEMBL_Kinases

>  <Ligand_Instance>  (348) 
nan

>  <PDB_ID>  (348) 
nan

>  <Standardized_SMILES>  (348) 
CO[C@H]1[C@H](N)C[C@H](c2ccncc2NC(=O)c2ccc(F)c(-c3c(F)cc(OC(C)C)cc3F)n2)C[C@@H]1C

>  <Name>  (348) 
nan

>  <Pocket>  (348) 
nan

>  <ATP_Site>  (348) 
nan

>  <Peripheral>  (348) 
nan

>  <Num_H_Atoms_ProtBoundConf>  (348) 
nan

>  <Num_Resolved_Atoms>  (348) 
nan

>  <Num_Not_Resolved_Atoms>  (348) 
nan

$$$$
CHEMBL4573829
     RDKit          3D

  0  0  0  0  0  0  0  0  0  0999 V3000
M  V30 BEGIN CTAB
M  V30 COUNTS 57 61 0 0 0
M  V30 BEGIN ATOM
M  V30 1 C 3.142961 -4.667421 0.748016 0
M  V30 2 C 3.248195 -3.907557 2.046007 0 CFG=1
M  V30 3 N 4.571304 -3.921434 2.586734 0
M  V30 4 C 5.118822 -2.611981 2.672701 0
M  V30 5 O 6.263809 -2.263691 3.102595 0
M  V30 6 C 4.073292 -1.737100 2.155314 0
M  V30 7 C 3.736214 -0.428358 1.881317 0
M  V30 8 C 2.452249 -0.342270 1.349569 0
M  V30 9 C 1.825223 0.914359 0.967801 0
M  V30 10 C 2.513266 2.104300 1.091716 0
M  V30 11 C 2.022632 3.346066 0.759874 0
M  V30 12 C 0.736037 3.366888 0.266577 0
M  V30 13 C 0.008611 2.179506 0.127632 0
M  V30 14 C -1.279589 2.208746 -0.365395 0
M  V30 15 O -1.712345 3.341453 -0.663258 0
M  V30 16 N -2.058648 1.125413 -0.533917 0
M  V30 17 C -3.410077 1.156403 -1.050837 0
M  V30 18 C -3.556225 0.372901 -2.350972 0
M  V30 19 C -4.368491 0.649728 0.018239 0
M  V30 20 C -3.883447 2.559578 -1.380901 0
M  V30 21 C -1.457695 -0.016645 -0.170871 0
M  V30 22 N -2.139100 -1.284745 -0.287940 0
M  V30 23 C -1.735546 -2.637650 0.047512 0
M  V30 24 C -1.508238 -2.847257 1.542367 0
M  V30 25 C -2.096749 -3.780389 -0.790705 0
M  V30 26 C -0.686085 -3.306842 -0.792668 0
M  V30 27 N -0.206818 -0.101904 0.314275 0
M  V30 28 C 0.543197 0.971136 0.472558 0
M  V30 29 N 2.050982 -1.606965 1.318172 0
M  V30 30 C 2.968042 -2.471895 1.782017 0
M  V30 31 H 4.126678 -4.782251 0.247030 0
M  V30 32 H 2.379775 -4.210552 0.119633 0
M  V30 33 H 2.821933 -5.701073 0.991178 0
M  V30 34 H 2.490209 -4.321334 2.741448 0
M  V30 35 H 5.018641 -4.803771 2.861506 0
M  V30 36 H 4.443395 0.391873 2.083537 0
M  V30 37 H 3.543325 2.118050 1.483113 0
M  V30 38 H 2.603898 4.241843 0.877296 0
M  V30 39 H 0.310548 4.333221 -0.008544 0
M  V30 40 H -2.597065 -0.124588 -2.637877 0
M  V30 41 H -4.429398 -0.303542 -2.347689 0
M  V30 42 H -3.751312 1.056954 -3.230596 0
M  V30 43 H -3.786740 0.292156 0.899723 0
M  V30 44 H -5.005869 1.478048 0.440010 0
M  V30 45 H -5.092876 -0.087479 -0.351651 0
M  V30 46 H -3.370497 3.014860 -2.233430 0
M  V30 47 H -4.950408 2.419379 -1.746582 0
M  V30 48 H -4.008905 3.203481 -0.490488 0
M  V30 49 H -3.106607 -1.362577 -0.668773 0
M  V30 50 H -0.582387 -3.394733 1.768229 0
M  V30 51 H -1.577178 -1.914928 2.100615 0
M  V30 52 H -2.351906 -3.505288 1.885509 0
M  V30 53 H -2.744230 -3.569861 -1.670058 0
M  V30 54 H -2.362031 -4.720685 -0.270132 0
M  V30 55 H -0.308737 -2.728127 -1.659376 0
M  V30 56 H 0.034161 -3.983509 -0.331905 0
M  V30 57 H 1.139813 -1.911692 0.975838 0
M  V30 END ATOM
M  V30 BEGIN BOND
M  V30 1 1 1 2
M  V30 2 1 2 3
M  V30 3 1 3 4
M  V30 4 2 4 5
M  V30 5 1 4 6
M  V30 6 1 6 7
M  V30 7 2 7 8
M  V30 8 1 8 9
M  V30 9 2 9 10
M  V30 10 1 10 11
M  V30 11 2 11 12
M  V30 12 1 12 13
M  V30 13 1 13 14
M  V30 14 2 14 15
M  V30 15 1 14 16
M  V30 16 1 16 17
M  V30 17 1 17 18
M  V30 18 1 17 19
M  V30 19 1 17 20
M  V30 20 1 16 21
M  V30 21 1 21 22
M  V30 22 1 22 23
M  V30 23 1 23 24
M  V30 24 1 23 25
M  V30 25 1 25 26
M  V30 26 2 21 27
M  V30 27 1 27 28
M  V30 28 1 8 29
M  V30 29 1 29 30
M  V30 30 1 30 2
M  V30 31 2 30 6
M  V30 32 1 28 9
M  V30 33 2 28 13
M  V30 34 1 26 23
M  V30 35 1 1 31
M  V30 36 1 1 32
M  V30 37 1 1 33
M  V30 38 1 2 34 CFG=1
M  V30 39 1 3 35
M  V30 40 1 7 36
M  V30 41 1 10 37
M  V30 42 1 11 38
M  V30 43 1 12 39
M  V30 44 1 18 40
M  V30 45 1 18 41
M  V30 46 1 18 42
M  V30 47 1 19 43
M  V30 48 1 19 44
M  V30 49 1 19 45
M  V30 50 1 20 46
M  V30 51 1 20 47
M  V30 52 1 20 48
M  V30 53 1 22 49
M  V30 54 1 24 50
M  V30 55 1 24 51
M  V30 56 1 24 52
M  V30 57 1 25 53
M  V30 58 1 25 54
M  V30 59 1 26 55
M  V30 60 1 26 56
M  V30 61 1 29 57
M  V30 END BOND
M  V30 END CTAB
M  END
>  <Dataset>  (349) 
ChEMBL_Kinases

>  <Ligand_Instance>  (349) 
nan

>  <PDB_ID>  (349) 
nan

>  <Standardized_SMILES>  (349) 
C[C@H]1NC(=O)c2cc(-c3cccc4c(=O)n(C(C)(C)C)c(NC5(C)CC5)nc34)[nH]c21

>  <Name>  (349) 
nan

>  <Pocket>  (349) 
nan

>  <ATP_Site>  (349) 
nan

>  <Peripheral>  (349) 
nan

>  <Num_H_Atoms_ProtBoundConf>  (349) 
nan

>  <Num_Resolved_Atoms>  (349) 
nan

>  <Num_Not_Resolved_Atoms>  (349) 
nan

$$$$
CHEMBL3691925
     RDKit          3D

  0  0  0  0  0  0  0  0  0  0999 V3000
M  V30 BEGIN CTAB
M  V30 COUNTS 78 81 0 0 0
M  V30 BEGIN ATOM
M  V30 1 C -0.454294 -7.691160 6.499789 0
M  V30 2 C 0.886014 -6.974906 6.421245 0
M  V30 3 C 1.800124 -7.679978 7.433497 0
M  V30 4 O 0.759976 -5.618471 6.772533 0
M  V30 5 C 1.146698 -4.538430 6.030752 0
M  V30 6 C 0.886763 -3.304238 6.638157 0
M  V30 7 C 1.225416 -2.115389 6.002917 0
M  V30 8 F 0.959773 -0.942344 6.623105 0
M  V30 9 C 1.824911 -2.203802 4.755722 0
M  V30 10 C 2.142634 -0.898974 4.165230 0
M  V30 11 N 1.178751 -0.378576 3.380500 0
M  V30 12 C 1.288767 0.803350 2.762373 0
M  V30 13 C 0.331621 1.479748 1.893153 0
M  V30 14 O 0.510880 2.599919 1.355518 0
M  V30 15 N -0.963260 0.958685 1.524455 0
M  V30 16 C -1.536704 1.946836 0.676547 0
M  V30 17 C -2.298720 2.954632 1.232950 0
M  V30 18 N -2.843495 3.902496 0.450408 0
M  V30 19 C -2.661743 3.897300 -0.904006 0
M  V30 20 C -1.903256 2.883273 -1.399333 0
M  V30 21 C -1.301098 1.867837 -0.702046 0
M  V30 22 C -0.489010 0.786271 -1.338311 0 CFG=1
M  V30 23 C -1.276006 -0.355330 -1.814905 0
M  V30 24 C -1.016334 -0.918025 -3.161353 0 CFG=1
M  V30 25 N -2.238684 -1.343074 -3.845451 0
M  V30 26 C -0.180457 -0.042460 -4.068273 0 CFG=1
M  V30 27 O -0.899475 1.091542 -4.316393 0
M  V30 28 C -1.179219 1.403244 -5.611064 0
M  V30 29 C -1.981793 2.711876 -5.550024 0
M  V30 30 S -2.426772 3.274977 -7.152919 0
M  V30 31 C -3.420777 2.106548 -8.017177 0
M  V30 32 O -3.078782 4.616037 -7.006024 0
M  V30 33 O -1.122384 3.506825 -7.903960 0
M  V30 34 C 1.053873 0.267573 -3.214212 0 CFG=1
M  V30 35 C 2.248930 0.643036 -3.988118 0
M  V30 36 C 0.533506 1.358637 -2.286602 0
M  V30 37 C 2.464790 1.495659 2.962959 0
M  V30 38 C 3.486835 1.014920 3.754150 0
M  V30 39 C 3.335565 -0.225025 4.384615 0
M  V30 40 F 4.257107 -0.789817 5.174973 0
M  V30 41 C 2.096431 -3.400169 4.126052 0
M  V30 42 F 2.684084 -3.404088 2.909901 0
M  V30 43 C 1.745629 -4.558073 4.788771 0
M  V30 44 H -1.235770 -7.027447 6.943502 0
M  V30 45 H -0.369093 -8.645399 7.020524 0
M  V30 46 H -0.804261 -7.886651 5.464782 0
M  V30 47 H 1.329854 -7.151113 5.430332 0
M  V30 48 H 1.512448 -7.412287 8.468002 0
M  V30 49 H 1.666940 -8.787232 7.299242 0
M  V30 50 H 2.870047 -7.459552 7.229241 0
M  V30 51 H 0.412784 -3.222993 7.628734 0
M  V30 52 H -1.232174 0.007057 1.921389 0
M  V30 53 H -2.435371 2.946526 2.312823 0
M  V30 54 H -3.110383 4.672021 -1.508159 0
M  V30 55 H -1.788911 2.919719 -2.483302 0
M  V30 56 H 0.150037 0.438718 -0.467580 0
M  V30 57 H -2.369044 -0.094425 -1.659154 0
M  V30 58 H -1.159277 -1.216944 -1.090101 0
M  V30 59 H -0.412548 -1.874693 -3.112459 0
M  V30 60 H -1.974040 -1.930422 -4.673705 0
M  V30 61 H -2.746697 -1.954056 -3.195063 0
M  V30 62 H 0.101578 -0.610662 -4.974460 0
M  V30 63 H -1.727978 0.635063 -6.193346 0
M  V30 64 H -0.281941 1.665358 -6.224386 0
M  V30 65 H -1.288558 3.448327 -5.089788 0
M  V30 66 H -2.842239 2.628974 -4.855253 0
M  V30 67 H -3.636613 1.195435 -7.415043 0
M  V30 68 H -4.350971 2.644176 -8.326660 0
M  V30 69 H -2.915299 1.846412 -8.984619 0
M  V30 70 H 1.312397 -0.605282 -2.556017 0
M  V30 71 H 2.903120 -0.260914 -4.116599 0
M  V30 72 H 2.893738 1.360945 -3.436172 0
M  V30 73 H 2.071555 1.004033 -5.018597 0
M  V30 74 H 0.012436 2.082917 -2.943080 0
M  V30 75 H 1.404155 1.808105 -1.778168 0
M  V30 76 H 2.658532 2.471347 2.504643 0
M  V30 77 H 4.407244 1.554782 3.912247 0
M  V30 78 H 1.932343 -5.529203 4.348062 0
M  V30 END ATOM
M  V30 BEGIN BOND
M  V30 1 1 1 2
M  V30 2 1 2 3
M  V30 3 1 2 4
M  V30 4 1 4 5
M  V30 5 2 5 6
M  V30 6 1 6 7
M  V30 7 1 7 8
M  V30 8 2 7 9
M  V30 9 1 9 10
M  V30 10 2 10 11
M  V30 11 1 11 12
M  V30 12 1 12 13
M  V30 13 2 13 14
M  V30 14 1 13 15
M  V30 15 1 15 16
M  V30 16 2 16 17
M  V30 17 1 17 18
M  V30 18 2 18 19
M  V30 19 1 19 20
M  V30 20 2 20 21
M  V30 21 1 21 22
M  V30 22 1 22 23
M  V30 23 1 23 24
M  V30 24 1 24 25
M  V30 25 1 24 26
M  V30 26 1 26 27
M  V30 27 1 27 28
M  V30 28 1 28 29
M  V30 29 1 29 30
M  V30 30 1 30 31
M  V30 31 2 30 32
M  V30 32 2 30 33
M  V30 33 1 26 34
M  V30 34 1 34 35
M  V30 35 1 34 36
M  V30 36 2 12 37
M  V30 37 1 37 38
M  V30 38 2 38 39
M  V30 39 1 39 40
M  V30 40 1 9 41
M  V30 41 1 41 42
M  V30 42 2 41 43
M  V30 43 1 43 5
M  V30 44 1 39 10
M  V30 45 1 21 16
M  V30 46 1 36 22
M  V30 47 1 1 44
M  V30 48 1 1 45
M  V30 49 1 1 46
M  V30 50 1 2 47
M  V30 51 1 3 48
M  V30 52 1 3 49
M  V30 53 1 3 50
M  V30 54 1 6 51
M  V30 55 1 15 52
M  V30 56 1 17 53
M  V30 57 1 19 54
M  V30 58 1 20 55
M  V30 59 1 22 56 CFG=1
M  V30 60 1 23 57
M  V30 61 1 23 58
M  V30 62 1 24 59 CFG=1
M  V30 63 1 25 60
M  V30 64 1 25 61
M  V30 65 1 26 62 CFG=3
M  V30 66 1 28 63
M  V30 67 1 28 64
M  V30 68 1 29 65
M  V30 69 1 29 66
M  V30 70 1 31 67
M  V30 71 1 31 68
M  V30 72 1 31 69
M  V30 73 1 34 70 CFG=1
M  V30 74 1 35 71
M  V30 75 1 35 72
M  V30 76 1 35 73
M  V30 77 1 36 74
M  V30 78 1 36 75
M  V30 79 1 37 76
M  V30 80 1 38 77
M  V30 81 1 43 78
M  V30 END BOND
M  V30 END CTAB
M  END
>  <Dataset>  (350) 
ChEMBL_Kinases

>  <Ligand_Instance>  (350) 
nan

>  <PDB_ID>  (350) 
nan

>  <Standardized_SMILES>  (350) 
CC(C)Oc1cc(F)c(-c2nc(C(=O)Nc3cnccc3[C@H]3C[C@@H](N)[C@@H](OCCS(C)(=O)=O)[C@@H](C)C3)ccc2F)c(F)c1

>  <Name>  (350) 
nan

>  <Pocket>  (350) 
nan

>  <ATP_Site>  (350) 
nan

>  <Peripheral>  (350) 
nan

>  <Num_H_Atoms_ProtBoundConf>  (350) 
nan

>  <Num_Resolved_Atoms>  (350) 
nan

>  <Num_Not_Resolved_Atoms>  (350) 
nan

$$$$
CHEMBL2420703
     RDKit          3D

  0  0  0  0  0  0  0  0  0  0999 V3000
M  V30 BEGIN CTAB
M  V30 COUNTS 41 44 0 0 0
M  V30 BEGIN ATOM
M  V30 1 C -0.112690 -5.698367 0.856438 0
M  V30 2 N -0.037511 -4.281589 1.035779 0
M  V30 3 C 1.146275 -3.635291 1.127803 0
M  V30 4 C 0.900627 -2.287985 1.296461 0
M  V30 5 C 1.756929 -1.114692 1.451691 0
M  V30 6 C 2.609678 -0.972237 2.527467 0
M  V30 7 C 3.393212 0.154032 2.616480 0
M  V30 8 N 3.336096 1.106015 1.676314 0
M  V30 9 C 2.522734 1.041924 0.586139 0
M  V30 10 C 1.745294 -0.095218 0.515148 0
M  V30 11 O 0.843955 -0.377679 -0.501717 0
M  V30 12 C 0.465574 0.454495 -1.607319 0
M  V30 13 C 0.516507 1.916879 -1.196329 0
M  V30 14 N 1.813457 2.491321 -1.269813 0
M  V30 15 C 2.720445 2.239864 -0.217308 0
M  V30 16 C -0.486479 -2.166924 1.299575 0
M  V30 17 C -1.384006 -1.006713 1.443493 0
M  V30 18 C -1.324750 -0.319184 2.648809 0
M  V30 19 C -2.106129 0.776556 2.910542 0
M  V30 20 C -2.984715 1.206551 1.929511 0
M  V30 21 F -3.774633 2.278839 2.133814 0
M  V30 22 C -3.018178 0.511096 0.759957 0
M  V30 23 C -2.256033 -0.593337 0.448104 0
M  V30 24 N -1.010773 -3.381188 1.140933 0
M  V30 25 H 0.395082 -5.958838 -0.097304 0
M  V30 26 H 0.332854 -6.269042 1.691253 0
M  V30 27 H -1.182420 -6.006595 0.752529 0
M  V30 28 H 2.178145 -3.957282 1.096685 0
M  V30 29 H 2.668600 -1.729836 3.293961 0
M  V30 30 H 4.081973 0.293450 3.462971 0
M  V30 31 H -0.599091 0.224743 -1.818766 0
M  V30 32 H 1.074800 0.262621 -2.493730 0
M  V30 33 H -0.119203 2.456224 -1.955118 0
M  V30 34 H -0.019295 2.050100 -0.249059 0
M  V30 35 H 1.663284 3.544172 -1.327782 0
M  V30 36 H 3.752208 2.193241 -0.673809 0
M  V30 37 H 2.795181 3.124513 0.479758 0
M  V30 38 H -0.652290 -0.603869 3.470213 0
M  V30 39 H -2.105770 1.349953 3.822576 0
M  V30 40 H -3.704386 0.826836 -0.037335 0
M  V30 41 H -2.281723 -1.143611 -0.473936 0
M  V30 END ATOM
M  V30 BEGIN BOND
M  V30 1 1 1 2
M  V30 2 1 2 3
M  V30 3 2 3 4
M  V30 4 1 4 5
M  V30 5 2 5 6
M  V30 6 1 6 7
M  V30 7 2 7 8
M  V30 8 1 8 9
M  V30 9 2 9 10
M  V30 10 1 10 11
M  V30 11 1 11 12
M  V30 12 1 12 13
M  V30 13 1 13 14
M  V30 14 1 14 15
M  V30 15 1 4 16
M  V30 16 1 16 17
M  V30 17 2 17 18
M  V30 18 1 18 19
M  V30 19 2 19 20
M  V30 20 1 20 21
M  V30 21 1 20 22
M  V30 22 2 22 23
M  V30 23 2 16 24
M  V30 24 1 24 2
M  V30 25 1 10 5
M  V30 26 1 23 17
M  V30 27 1 15 9
M  V30 28 1 1 25
M  V30 29 1 1 26
M  V30 30 1 1 27
M  V30 31 1 3 28
M  V30 32 1 6 29
M  V30 33 1 7 30
M  V30 34 1 12 31
M  V30 35 1 12 32
M  V30 36 1 13 33
M  V30 37 1 13 34
M  V30 38 1 14 35
M  V30 39 1 15 36
M  V30 40 1 15 37
M  V30 41 1 18 38
M  V30 42 1 19 39
M  V30 43 1 22 40
M  V30 44 1 23 41
M  V30 END BOND
M  V30 END CTAB
M  END
>  <Dataset>  (351) 
ChEMBL_Kinases

>  <Ligand_Instance>  (351) 
nan

>  <PDB_ID>  (351) 
nan

>  <Standardized_SMILES>  (351) 
Cn1cc(-c2ccnc3c2OCCNC3)c(-c2ccc(F)cc2)n1

>  <Name>  (351) 
nan

>  <Pocket>  (351) 
nan

>  <ATP_Site>  (351) 
nan

>  <Peripheral>  (351) 
nan

>  <Num_H_Atoms_ProtBoundConf>  (351) 
nan

>  <Num_Resolved_Atoms>  (351) 
nan

>  <Num_Not_Resolved_Atoms>  (351) 
nan

$$$$
CHEMBL2420704
     RDKit          3D

  0  0  0  0  0  0  0  0  0  0999 V3000
M  V30 BEGIN CTAB
M  V30 COUNTS 44 47 0 0 0
M  V30 BEGIN ATOM
M  V30 1 C 0.305981 -4.892236 4.022709 0
M  V30 2 N 0.232243 -3.918386 2.945777 0
M  V30 3 C 1.243013 -3.183222 2.414511 0
M  V30 4 C 0.676725 -2.417893 1.434526 0
M  V30 5 C 1.346728 -1.455484 0.567166 0
M  V30 6 C 2.359561 -1.751008 -0.326858 0
M  V30 7 C 2.922282 -0.749888 -1.100754 0
M  V30 8 N 2.487980 0.521726 -0.989770 0
M  V30 9 C 1.503638 0.871749 -0.135853 0
M  V30 10 C 1.003016 2.280868 0.005882 0
M  V30 11 C 1.775614 3.214349 -0.823997 0
M  V30 12 O 2.399863 4.247120 -0.155410 0
M  V30 13 C 2.835167 3.904065 1.108961 0
M  V30 14 C 1.627554 3.614098 1.942782 0
M  V30 15 N 0.888071 2.543679 1.389223 0
M  V30 16 C 0.926169 -0.123388 0.650696 0
M  V30 17 C -0.686714 -2.729368 1.412987 0
M  V30 18 C -1.704937 -2.167205 0.535070 0
M  V30 19 C -1.904483 -2.959715 -0.588977 0
M  V30 20 C -2.839221 -2.590315 -1.549207 0
M  V30 21 C -3.582877 -1.439452 -1.409023 0
M  V30 22 F -4.503235 -1.060890 -2.338453 0
M  V30 23 C -3.368176 -0.676672 -0.294254 0
M  V30 24 C -2.448498 -1.014669 0.677197 0
M  V30 25 N -0.922245 -3.660582 2.361496 0
M  V30 26 H -0.434469 -4.657587 4.837610 0
M  V30 27 H 0.011201 -5.874902 3.599690 0
M  V30 28 H 1.311567 -4.896617 4.475117 0
M  V30 29 H 2.277314 -3.215988 2.723015 0
M  V30 30 H 2.676574 -2.788109 -0.381499 0
M  V30 31 H 3.722963 -1.011368 -1.801065 0
M  V30 32 H -0.049189 2.222389 -0.403947 0
M  V30 33 H 2.587170 2.656056 -1.362833 0
M  V30 34 H 1.159528 3.681833 -1.631040 0
M  V30 35 H 3.378035 4.798848 1.512653 0
M  V30 36 H 3.532402 3.048848 1.128008 0
M  V30 37 H 2.009892 3.303825 2.958256 0
M  V30 38 H 1.026762 4.543860 2.083085 0
M  V30 39 H 0.008915 2.295074 1.850164 0
M  V30 40 H 0.137265 0.144126 1.337570 0
M  V30 41 H -1.379244 -3.894848 -0.816879 0
M  V30 42 H -3.017308 -3.189891 -2.438169 0
M  V30 43 H -3.920160 0.231430 -0.132951 0
M  V30 44 H -2.214551 -0.475079 1.584379 0
M  V30 END ATOM
M  V30 BEGIN BOND
M  V30 1 1 1 2
M  V30 2 1 2 3
M  V30 3 2 3 4
M  V30 4 1 4 5
M  V30 5 2 5 6
M  V30 6 1 6 7
M  V30 7 2 7 8
M  V30 8 1 8 9
M  V30 9 1 9 10
M  V30 10 1 10 11
M  V30 11 1 11 12
M  V30 12 1 12 13
M  V30 13 1 13 14
M  V30 14 1 14 15
M  V30 15 2 9 16
M  V30 16 1 4 17
M  V30 17 1 17 18
M  V30 18 2 18 19
M  V30 19 1 19 20
M  V30 20 2 20 21
M  V30 21 1 21 22
M  V30 22 1 21 23
M  V30 23 2 23 24
M  V30 24 2 17 25
M  V30 25 1 25 2
M  V30 26 1 16 5
M  V30 27 1 24 18
M  V30 28 1 15 10
M  V30 29 1 1 26
M  V30 30 1 1 27
M  V30 31 1 1 28
M  V30 32 1 3 29
M  V30 33 1 6 30
M  V30 34 1 7 31
M  V30 35 1 10 32
M  V30 36 1 11 33
M  V30 37 1 11 34
M  V30 38 1 13 35
M  V30 39 1 13 36
M  V30 40 1 14 37
M  V30 41 1 14 38
M  V30 42 1 15 39
M  V30 43 1 16 40
M  V30 44 1 19 41
M  V30 45 1 20 42
M  V30 46 1 23 43
M  V30 47 1 24 44
M  V30 END BOND
M  V30 END CTAB
M  END
>  <Dataset>  (352) 
ChEMBL_Kinases

>  <Ligand_Instance>  (352) 
nan

>  <PDB_ID>  (352) 
nan

>  <Standardized_SMILES>  (352) 
Cn1cc(-c2ccnc(C3COCCN3)c2)c(-c2ccc(F)cc2)n1

>  <Name>  (352) 
nan

>  <Pocket>  (352) 
nan

>  <ATP_Site>  (352) 
nan

>  <Peripheral>  (352) 
nan

>  <Num_H_Atoms_ProtBoundConf>  (352) 
nan

>  <Num_Resolved_Atoms>  (352) 
nan

>  <Num_Not_Resolved_Atoms>  (352) 
nan

$$$$
CHEMBL272265
     RDKit          3D

  0  0  0  0  0  0  0  0  0  0999 V3000
M  V30 BEGIN CTAB
M  V30 COUNTS 45 49 0 0 0
M  V30 BEGIN ATOM
M  V30 1 N -2.451449 -4.302339 0.745083 0
M  V30 2 C -2.660677 -3.751441 -0.246759 0
M  V30 3 C -2.928917 -3.043088 -1.484917 0
M  V30 4 C -2.111669 -1.805846 -1.563651 0
M  V30 5 C -0.855481 -1.816361 -2.134462 0
M  V30 6 C -0.120691 -0.650002 -2.192553 0
M  V30 7 C -0.587631 0.575538 -1.693023 0
M  V30 8 N 0.103358 1.788189 -1.733981 0
M  V30 9 C -0.086300 2.561288 -2.818863 0
M  V30 10 N 0.637602 3.700402 -2.731670 0
M  V30 11 C 1.295722 3.622287 -1.548558 0
M  V30 12 C 2.175848 4.501712 -0.941523 0
M  V30 13 N 2.676203 4.143315 0.254319 0
M  V30 14 C 2.347153 2.979066 0.855423 0
M  V30 15 C 2.910767 2.696016 2.082860 0
M  V30 16 C 2.549790 1.498237 2.663559 0
M  V30 17 C 1.666189 0.585002 2.084199 0
M  V30 18 C 1.364991 -0.634655 2.787032 0
M  V30 19 C 1.126043 -1.663718 3.376498 0
M  V30 20 C 0.852010 -2.890102 4.104024 0
M  V30 21 C 1.949904 -3.507221 4.672280 0
M  V30 22 C 1.725585 -4.682546 5.375780 0
M  V30 23 C 0.411617 -5.109704 5.429844 0
M  V30 24 N -0.658842 -4.518295 4.882268 0
M  V30 25 C -0.441887 -3.366582 4.192433 0
M  V30 26 C 1.114633 0.890383 0.854883 0
M  V30 27 C 1.475402 2.083760 0.278201 0
M  V30 28 C 0.955098 2.433362 -0.942445 0
M  V30 29 C -1.871452 0.475035 -1.135824 0
M  V30 30 C -2.660373 -0.652210 -1.044044 0
M  V30 31 H -2.800974 -3.700949 -2.369740 0
M  V30 32 H -4.024159 -2.772958 -1.476125 0
M  V30 33 H -0.425944 -2.723170 -2.542095 0
M  V30 34 H 0.865164 -0.633329 -2.634665 0
M  V30 35 H -0.689334 2.456725 -3.728375 0
M  V30 36 H 2.403262 5.418504 -1.468113 0
M  V30 37 H 3.599123 3.376508 2.564874 0
M  V30 38 H 2.984242 1.264941 3.624683 0
M  V30 39 H 2.952284 -3.119299 4.591956 0
M  V30 40 H 2.511016 -5.249202 5.861141 0
M  V30 41 H 0.242175 -6.039015 5.987386 0
M  V30 42 H -1.262854 -2.830234 3.720350 0
M  V30 43 H 0.462720 0.163523 0.480052 0
M  V30 44 H -2.260097 1.422541 -0.737122 0
M  V30 45 H -3.630336 -0.547071 -0.580474 0
M  V30 END ATOM
M  V30 BEGIN BOND
M  V30 1 3 1 2
M  V30 2 1 2 3
M  V30 3 1 3 4
M  V30 4 2 4 5
M  V30 5 1 5 6
M  V30 6 2 6 7
M  V30 7 1 7 8
M  V30 8 1 8 9
M  V30 9 2 9 10
M  V30 10 1 10 11
M  V30 11 2 11 12
M  V30 12 1 12 13
M  V30 13 2 13 14
M  V30 14 1 14 15
M  V30 15 2 15 16
M  V30 16 1 16 17
M  V30 17 1 17 18
M  V30 18 3 18 19
M  V30 19 1 19 20
M  V30 20 2 20 21
M  V30 21 1 21 22
M  V30 22 2 22 23
M  V30 23 1 23 24
M  V30 24 2 24 25
M  V30 25 2 17 26
M  V30 26 1 26 27
M  V30 27 2 27 28
M  V30 28 1 7 29
M  V30 29 2 29 30
M  V30 30 1 30 4
M  V30 31 1 28 8
M  V30 32 1 28 11
M  V30 33 1 27 14
M  V30 34 1 25 20
M  V30 35 1 3 31
M  V30 36 1 3 32
M  V30 37 1 5 33
M  V30 38 1 6 34
M  V30 39 1 9 35
M  V30 40 1 12 36
M  V30 41 1 15 37
M  V30 42 1 16 38
M  V30 43 1 21 39
M  V30 44 1 22 40
M  V30 45 1 23 41
M  V30 46 1 25 42
M  V30 47 1 26 43
M  V30 48 1 29 44
M  V30 49 1 30 45
M  V30 END BOND
M  V30 END CTAB
M  END
>  <Dataset>  (353) 
ChEMBL_Kinases

>  <Ligand_Instance>  (353) 
nan

>  <PDB_ID>  (353) 
nan

>  <Standardized_SMILES>  (353) 
N#CCc1ccc(-n2cnc3cnc4ccc(C#Cc5cccnc5)cc4c32)cc1

>  <Name>  (353) 
nan

>  <Pocket>  (353) 
nan

>  <ATP_Site>  (353) 
nan

>  <Peripheral>  (353) 
nan

>  <Num_H_Atoms_ProtBoundConf>  (353) 
nan

>  <Num_Resolved_Atoms>  (353) 
nan

>  <Num_Not_Resolved_Atoms>  (353) 
nan

$$$$
CHEMBL3691923
     RDKit          3D

  0  0  0  0  0  0  0  0  0  0999 V3000
M  V30 BEGIN CTAB
M  V30 COUNTS 79 83 0 0 0
M  V30 BEGIN ATOM
M  V30 1 C 4.554127 -2.408563 -2.763323 0
M  V30 2 C 3.747105 -1.267731 -2.181648 0 CFG=1
M  V30 3 C 2.318158 -1.274357 -2.615161 0
M  V30 4 C 1.398153 -2.111889 -1.758895 0 CFG=1
M  V30 5 C 0.526326 -2.946752 -2.631258 0
M  V30 6 C 0.982744 -4.169176 -3.076126 0
M  V30 7 C 0.104188 -4.855883 -3.887753 0
M  V30 8 N -1.111291 -4.396504 -4.236856 0
M  V30 9 C -1.563407 -3.187701 -3.796654 0
M  V30 10 C -0.720524 -2.436577 -2.967452 0
M  V30 11 N -1.126329 -1.177334 -2.470220 0
M  V30 12 C -1.105181 0.211041 -2.758520 0
M  V30 13 O -0.561445 0.637589 -3.808693 0
M  V30 14 C -1.751732 1.046747 -1.751640 0
M  V30 15 C -1.737527 2.397632 -2.028529 0
M  V30 16 C -2.326242 3.260346 -1.131442 0
M  V30 17 C -2.923665 2.809314 0.026419 0
M  V30 18 F -3.542890 3.496439 1.012131 0
M  V30 19 C -2.916042 1.448811 0.266888 0
M  V30 20 C -3.455945 0.667456 1.386204 0
M  V30 21 C -4.749684 0.196036 1.351842 0
M  V30 22 F -5.580188 0.434202 0.296125 0
M  V30 23 C -5.263521 -0.545122 2.394757 0
M  V30 24 C -4.467808 -0.821433 3.496766 0
M  V30 25 C -4.785636 -1.585200 4.718847 0
M  V30 26 O -3.770912 -2.526357 4.992042 0
M  V30 27 C -6.160748 -2.158638 4.835536 0
M  V30 28 C -6.274662 -1.645112 6.267174 0
M  V30 29 C -5.066641 -0.766456 5.961983 0
M  V30 30 C -3.175324 -0.339261 3.510621 0
M  V30 31 C -2.642220 0.407838 2.469642 0
M  V30 32 F -1.366910 0.895285 2.460586 0
M  V30 33 N -2.341611 0.592793 -0.606597 0
M  V30 34 C 2.237551 -2.917533 -0.807309 0
M  V30 35 C 2.921589 -1.911277 0.107562 0 CFG=1
M  V30 36 N 3.503582 -2.540756 1.277083 0
M  V30 37 C 3.924709 -1.115572 -0.697740 0 CFG=2
M  V30 38 O 3.773713 0.239893 -0.388943 0
M  V30 39 C 4.987818 0.679837 0.127923 0
M  V30 40 C 4.990890 2.135150 0.513161 0
M  V30 41 S 4.654283 3.184902 -0.853483 0
M  V30 42 C 3.058351 2.793308 -1.512440 0
M  V30 43 O 4.729512 4.612207 -0.411706 0
M  V30 44 O 5.715147 2.939062 -1.902628 0
M  V30 45 H 3.930667 -3.072198 -3.415042 0
M  V30 46 H 5.356209 -2.048404 -3.469422 0
M  V30 47 H 5.122996 -2.963342 -1.987592 0
M  V30 48 H 4.200833 -0.331270 -2.627820 0
M  V30 49 H 2.277192 -1.587923 -3.684106 0
M  V30 50 H 1.922876 -0.226018 -2.603817 0
M  V30 51 H 0.779285 -1.430146 -1.119393 0
M  V30 52 H 1.951045 -4.584457 -2.823506 0
M  V30 53 H 0.383408 -5.826453 -4.282767 0
M  V30 54 H -2.528135 -2.759376 -4.037988 0
M  V30 55 H -1.580413 -1.567342 -1.589994 0
M  V30 56 H -1.284127 2.789339 -2.918342 0
M  V30 57 H -2.374900 4.331819 -1.244290 0
M  V30 58 H -6.255649 -0.960761 2.471328 0
M  V30 59 H -4.207899 -3.424189 5.009639 0
M  V30 60 H -6.239404 -3.271821 4.829177 0
M  V30 61 H -6.956650 -1.748473 4.208790 0
M  V30 62 H -6.122924 -2.409227 7.049656 0
M  V30 63 H -7.204757 -1.075848 6.481476 0
M  V30 64 H -5.318365 0.268565 5.698237 0
M  V30 65 H -4.254773 -0.834651 6.727357 0
M  V30 66 H -2.438201 -0.480409 4.315296 0
M  V30 67 H 2.914262 -3.597468 -1.316139 0
M  V30 68 H 1.609661 -3.561353 -0.137406 0
M  V30 69 H 2.124342 -1.237177 0.479158 0
M  V30 70 H 3.289026 -2.030930 2.170700 0
M  V30 71 H 4.552897 -2.461104 1.169408 0
M  V30 72 H 4.973893 -1.401449 -0.431954 0
M  V30 73 H 5.762557 0.516940 -0.654153 0
M  V30 74 H 5.180606 0.022449 1.014222 0
M  V30 75 H 4.322504 2.342522 1.378841 0
M  V30 76 H 6.019451 2.363386 0.854070 0
M  V30 77 H 3.030324 1.796815 -1.956906 0
M  V30 78 H 2.834412 3.522803 -2.342393 0
M  V30 79 H 2.308346 2.980162 -0.738795 0
M  V30 END ATOM
M  V30 BEGIN BOND
M  V30 1 1 1 2
M  V30 2 1 2 3
M  V30 3 1 3 4
M  V30 4 1 4 5
M  V30 5 2 5 6
M  V30 6 1 6 7
M  V30 7 2 7 8
M  V30 8 1 8 9
M  V30 9 2 9 10
M  V30 10 1 10 11
M  V30 11 1 11 12
M  V30 12 2 12 13
M  V30 13 1 12 14
M  V30 14 2 14 15
M  V30 15 1 15 16
M  V30 16 2 16 17
M  V30 17 1 17 18
M  V30 18 1 17 19
M  V30 19 1 19 20
M  V30 20 2 20 21
M  V30 21 1 21 22
M  V30 22 1 21 23
M  V30 23 2 23 24
M  V30 24 1 24 25
M  V30 25 1 25 26
M  V30 26 1 25 27
M  V30 27 1 27 28
M  V30 28 1 28 29
M  V30 29 1 24 30
M  V30 30 2 30 31
M  V30 31 1 31 32
M  V30 32 2 19 33
M  V30 33 1 4 34
M  V30 34 1 34 35
M  V30 35 1 35 36
M  V30 36 1 35 37
M  V30 37 1 37 38
M  V30 38 1 38 39
M  V30 39 1 39 40
M  V30 40 1 40 41
M  V30 41 1 41 42
M  V30 42 2 41 43
M  V30 43 2 41 44
M  V30 44 1 37 2
M  V30 45 1 10 5
M  V30 46 1 33 14
M  V30 47 1 31 20
M  V30 48 1 29 25
M  V30 49 1 1 45
M  V30 50 1 1 46
M  V30 51 1 1 47
M  V30 52 1 2 48 CFG=3
M  V30 53 1 3 49
M  V30 54 1 3 50
M  V30 55 1 4 51 CFG=1
M  V30 56 1 6 52
M  V30 57 1 7 53
M  V30 58 1 9 54
M  V30 59 1 11 55
M  V30 60 1 15 56
M  V30 61 1 16 57
M  V30 62 1 23 58
M  V30 63 1 26 59
M  V30 64 1 27 60
M  V30 65 1 27 61
M  V30 66 1 28 62
M  V30 67 1 28 63
M  V30 68 1 29 64
M  V30 69 1 29 65
M  V30 70 1 30 66
M  V30 71 1 34 67
M  V30 72 1 34 68
M  V30 73 1 35 69 CFG=1
M  V30 74 1 36 70
M  V30 75 1 36 71
M  V30 76 1 37 72 CFG=1
M  V30 77 1 39 73
M  V30 78 1 39 74
M  V30 79 1 40 75
M  V30 80 1 40 76
M  V30 81 1 42 77
M  V30 82 1 42 78
M  V30 83 1 42 79
M  V30 END BOND
M  V30 END CTAB
M  END
>  <Dataset>  (354) 
ChEMBL_Kinases

>  <Ligand_Instance>  (354) 
nan

>  <PDB_ID>  (354) 
nan

>  <Standardized_SMILES>  (354) 
C[C@H]1C[C@@H](c2ccncc2NC(=O)c2ccc(F)c(-c3c(F)cc(C4(O)CCC4)cc3F)n2)C[C@@H](N)[C@@H]1OCCS(C)(=O)=O

>  <Name>  (354) 
nan

>  <Pocket>  (354) 
nan

>  <ATP_Site>  (354) 
nan

>  <Peripheral>  (354) 
nan

>  <Num_H_Atoms_ProtBoundConf>  (354) 
nan

>  <Num_Resolved_Atoms>  (354) 
nan

>  <Num_Not_Resolved_Atoms>  (354) 
nan

$$$$
CHEMBL3691922
     RDKit          3D

  0  0  0  0  0  0  0  0  0  0999 V3000
M  V30 BEGIN CTAB
M  V30 COUNTS 70 74 0 0 0
M  V30 BEGIN ATOM
M  V30 1 C 1.919210 -2.987847 3.334877 0
M  V30 2 O 2.941088 -2.172548 2.848861 0
M  V30 3 C 2.453027 -1.066302 2.172036 0 CFG=1
M  V30 4 C 2.850858 0.173793 2.888172 0 CFG=2
M  V30 5 N 2.187920 0.214933 4.191885 0
M  V30 6 C 2.419021 1.427933 2.147493 0
M  V30 7 C 2.843872 1.328084 0.682954 0 CFG=2
M  V30 8 C 2.863948 2.615575 0.067349 0
M  V30 9 C 4.056169 3.351597 0.262514 0
M  V30 10 C 4.392107 4.609231 -0.183437 0
M  V30 11 N 3.425567 5.227715 -0.921544 0
M  V30 12 C 2.260247 4.607908 -1.160048 0
M  V30 13 C 1.983924 3.349557 -0.686103 0
M  V30 14 N 0.747924 2.730874 -0.961880 0
M  V30 15 C -0.354396 3.198269 -1.714457 0
M  V30 16 O -0.330055 4.330288 -2.264613 0
M  V30 17 C -1.597023 2.474332 -1.942552 0
M  V30 18 C -2.644471 2.961856 -2.679883 0
M  V30 19 C -3.810215 2.253314 -2.881486 0
M  V30 20 C -3.982738 0.995578 -2.340698 0
M  V30 21 F -5.122707 0.305158 -2.539392 0
M  V30 22 C -2.915729 0.527494 -1.603768 0
M  V30 23 C -3.009724 -0.796156 -0.995166 0
M  V30 24 C -3.508476 -1.066399 0.261934 0
M  V30 25 F -3.952379 -0.025153 0.997949 0
M  V30 26 C -3.537547 -2.366322 0.716287 0
M  V30 27 C -3.084253 -3.424810 -0.038891 0
M  V30 28 C -3.063729 -4.842722 0.333475 0
M  V30 29 O -1.826425 -5.457616 0.112840 0
M  V30 30 C -3.588260 -5.226715 1.676964 0
M  V30 31 C -4.960154 -5.571324 1.081614 0
M  V30 32 C -4.249637 -5.611628 -0.267719 0
M  V30 33 C -2.579668 -3.155555 -1.309257 0
M  V30 34 C -2.541450 -1.845276 -1.788010 0
M  V30 35 F -2.040295 -1.619312 -3.034548 0
M  V30 36 N -1.772066 1.233934 -1.411512 0
M  V30 37 C 2.144952 0.170393 0.090622 0
M  V30 38 C 2.849309 -1.071856 0.729606 0 CFG=2
M  V30 39 C 2.342425 -2.306744 0.030026 0
M  V30 40 H 1.253098 -3.388261 2.551344 0
M  V30 41 H 2.377310 -3.880320 3.815529 0
M  V30 42 H 1.399000 -2.423560 4.126393 0
M  V30 43 H 1.335312 -1.141959 2.210774 0
M  V30 44 H 3.941965 0.227870 3.108493 0
M  V30 45 H 2.380165 1.187241 4.563287 0
M  V30 46 H 2.620294 -0.450654 4.867168 0
M  V30 47 H 1.331147 1.572612 2.213643 0
M  V30 48 H 2.928739 2.296676 2.576628 0
M  V30 49 H 3.940901 0.982373 0.768012 0
M  V30 50 H 4.889457 2.930583 0.847094 0
M  V30 51 H 5.329672 5.096884 0.012719 0
M  V30 52 H 1.621741 5.229916 -1.749677 0
M  V30 53 H 0.460958 1.798124 -0.629732 0
M  V30 54 H -2.518115 3.938279 -3.102549 0
M  V30 55 H -4.585301 2.717243 -3.478825 0
M  V30 56 H -3.918039 -2.599176 1.683270 0
M  V30 57 H -1.790194 -5.961417 -0.733296 0
M  V30 58 H -3.138442 -6.148365 2.113827 0
M  V30 59 H -3.698707 -4.468848 2.449093 0
M  V30 60 H -5.367597 -6.528370 1.432620 0
M  V30 61 H -5.693927 -4.748750 1.188739 0
M  V30 62 H -4.817946 -5.042736 -1.009274 0
M  V30 63 H -3.996411 -6.634671 -0.600690 0
M  V30 64 H -2.197807 -3.932792 -1.979391 0
M  V30 65 H 1.096718 -0.003926 0.441113 0
M  V30 66 H 2.301066 0.044287 -0.988544 0
M  V30 67 H 3.919990 -0.894317 0.569035 0
M  V30 68 H 1.272791 -2.498117 0.254356 0
M  V30 69 H 2.415182 -2.206539 -1.082422 0
M  V30 70 H 2.978580 -3.177166 0.277275 0
M  V30 END ATOM
M  V30 BEGIN BOND
M  V30 1 1 1 2
M  V30 2 1 2 3
M  V30 3 1 3 4
M  V30 4 1 4 5
M  V30 5 1 4 6
M  V30 6 1 6 7
M  V30 7 1 7 8
M  V30 8 2 8 9
M  V30 9 1 9 10
M  V30 10 2 10 11
M  V30 11 1 11 12
M  V30 12 2 12 13
M  V30 13 1 13 14
M  V30 14 1 14 15
M  V30 15 2 15 16
M  V30 16 1 15 17
M  V30 17 2 17 18
M  V30 18 1 18 19
M  V30 19 2 19 20
M  V30 20 1 20 21
M  V30 21 1 20 22
M  V30 22 1 22 23
M  V30 23 2 23 24
M  V30 24 1 24 25
M  V30 25 1 24 26
M  V30 26 2 26 27
M  V30 27 1 27 28
M  V30 28 1 28 29
M  V30 29 1 28 30
M  V30 30 1 30 31
M  V30 31 1 31 32
M  V30 32 1 27 33
M  V30 33 2 33 34
M  V30 34 1 34 35
M  V30 35 2 22 36
M  V30 36 1 7 37
M  V30 37 1 37 38
M  V30 38 1 38 39
M  V30 39 1 38 3
M  V30 40 1 13 8
M  V30 41 1 36 17
M  V30 42 1 34 23
M  V30 43 1 32 28
M  V30 44 1 1 40
M  V30 45 1 1 41
M  V30 46 1 1 42
M  V30 47 1 3 43 CFG=3
M  V30 48 1 4 44 CFG=1
M  V30 49 1 5 45
M  V30 50 1 5 46
M  V30 51 1 6 47
M  V30 52 1 6 48
M  V30 53 1 7 49 CFG=1
M  V30 54 1 9 50
M  V30 55 1 10 51
M  V30 56 1 12 52
M  V30 57 1 14 53
M  V30 58 1 18 54
M  V30 59 1 19 55
M  V30 60 1 26 56
M  V30 61 1 29 57
M  V30 62 1 30 58
M  V30 63 1 30 59
M  V30 64 1 31 60
M  V30 65 1 31 61
M  V30 66 1 32 62
M  V30 67 1 32 63
M  V30 68 1 33 64
M  V30 69 1 37 65
M  V30 70 1 37 66
M  V30 71 1 38 67 CFG=1
M  V30 72 1 39 68
M  V30 73 1 39 69
M  V30 74 1 39 70
M  V30 END BOND
M  V30 END CTAB
M  END
>  <Dataset>  (355) 
ChEMBL_Kinases

>  <Ligand_Instance>  (355) 
nan

>  <PDB_ID>  (355) 
nan

>  <Standardized_SMILES>  (355) 
CO[C@H]1[C@H](N)C[C@H](c2ccncc2NC(=O)c2ccc(F)c(-c3c(F)cc(C4(O)CCC4)cc3F)n2)C[C@@H]1C

>  <Name>  (355) 
nan

>  <Pocket>  (355) 
nan

>  <ATP_Site>  (355) 
nan

>  <Peripheral>  (355) 
nan

>  <Num_H_Atoms_ProtBoundConf>  (355) 
nan

>  <Num_Resolved_Atoms>  (355) 
nan

>  <Num_Not_Resolved_Atoms>  (355) 
nan

$$$$
CHEMBL3691921
     RDKit          3D

  0  0  0  0  0  0  0  0  0  0999 V3000
M  V30 BEGIN CTAB
M  V30 COUNTS 74 78 0 0 0
M  V30 BEGIN ATOM
M  V30 1 C 2.903796 -2.140962 4.342020 0
M  V30 2 O 3.030746 -1.208698 3.317123 0
M  V30 3 C 3.861896 -1.631433 2.305143 0 CFG=1
M  V30 4 C 3.187432 -1.748368 0.956536 0 CFG=2
M  V30 5 N 3.988040 -2.658761 0.123533 0
M  V30 6 C 3.110863 -0.437598 0.216986 0
M  V30 7 C 3.389764 0.761396 1.075296 0 CFG=2
M  V30 8 C 3.253514 1.974419 0.265857 0
M  V30 9 C 4.260432 2.574434 -0.459646 0
M  V30 10 C 4.112480 3.718597 -1.216845 0
M  V30 11 N 2.903841 4.307004 -1.263274 0
M  V30 12 C 1.850139 3.780555 -0.575197 0
M  V30 13 C 2.022498 2.635342 0.175323 0
M  V30 14 N 0.924576 2.093300 0.888435 0
M  V30 15 C 0.444387 2.314465 2.203609 0
M  V30 16 O 1.008829 3.124167 2.999953 0
M  V30 17 C -0.736724 1.554815 2.583986 0
M  V30 18 C -1.245828 1.731270 3.852526 0
M  V30 19 C -2.359665 1.037478 4.260856 0
M  V30 20 C -2.985763 0.160840 3.423624 0
M  V30 21 F -4.082744 -0.608249 3.638392 0
M  V30 22 C -2.467378 -0.013961 2.142526 0
M  V30 23 C -2.921184 -0.868627 1.052983 0
M  V30 24 C -3.831011 -0.288021 0.195801 0
M  V30 25 F -4.320998 0.988897 0.293141 0
M  V30 26 C -4.367058 -0.945424 -0.888295 0
M  V30 27 C -4.013423 -2.245811 -1.177738 0
M  V30 28 O -4.354627 -3.154670 -2.152294 0
M  V30 29 C -5.252812 -2.845364 -3.153366 0
M  V30 30 C -6.477725 -3.733623 -3.170647 0
M  V30 31 C -7.295782 -3.287842 -4.365215 0
M  V30 32 O -6.867982 -2.059834 -4.875910 0
M  V30 33 C -5.596478 -2.122812 -5.438866 0
M  V30 34 C -4.654368 -2.920463 -4.545007 0
M  V30 35 C -3.088212 -2.838863 -0.307655 0
M  V30 36 C -2.546548 -2.175548 0.787236 0
M  V30 37 F -1.654761 -2.695773 1.656419 0
M  V30 38 N -1.376485 0.675221 1.763836 0
M  V30 39 C 4.681340 0.684287 1.844509 0
M  V30 40 C 5.054068 -0.704489 2.257258 0 CFG=2
M  V30 41 C 6.175965 -1.278689 1.418361 0
M  V30 42 H 3.840966 -2.395767 4.835851 0
M  V30 43 H 2.213072 -1.710887 5.095796 0
M  V30 44 H 2.354155 -3.020445 3.925444 0
M  V30 45 H 4.222039 -2.642780 2.589790 0
M  V30 46 H 2.196336 -2.234510 1.056691 0
M  V30 47 H 4.331632 -3.455723 0.704132 0
M  V30 48 H 3.423850 -2.928691 -0.698961 0
M  V30 49 H 2.050607 -0.324703 -0.130982 0
M  V30 50 H 3.704378 -0.441814 -0.721567 0
M  V30 51 H 2.580274 0.748832 1.865178 0
M  V30 52 H 5.240510 2.118831 -0.437439 0
M  V30 53 H 4.971848 4.109599 -1.751118 0
M  V30 54 H 0.868118 4.243741 -0.602696 0
M  V30 55 H 0.471228 1.441203 0.245570 0
M  V30 56 H -0.776090 2.416032 4.539152 0
M  V30 57 H -2.820319 1.117495 5.234242 0
M  V30 58 H -5.079520 -0.560987 -1.599929 0
M  V30 59 H -5.626023 -1.815113 -3.040426 0
M  V30 60 H -6.225156 -4.797147 -3.346054 0
M  V30 61 H -7.042657 -3.631895 -2.221797 0
M  V30 62 H -8.347824 -3.127984 -4.040095 0
M  V30 63 H -7.359013 -4.061080 -5.161071 0
M  V30 64 H -5.571006 -2.504262 -6.463117 0
M  V30 65 H -5.233472 -1.052685 -5.441223 0
M  V30 66 H -4.603391 -3.960573 -4.923060 0
M  V30 67 H -3.662903 -2.424029 -4.582924 0
M  V30 68 H -2.681407 -3.844991 -0.356743 0
M  V30 69 H 5.558688 1.099845 1.297785 0
M  V30 70 H 4.614526 1.311026 2.765217 0
M  V30 71 H 5.453512 -0.695858 3.308076 0
M  V30 72 H 7.169783 -0.861265 1.752922 0
M  V30 73 H 6.236678 -2.355202 1.693148 0
M  V30 74 H 6.095741 -1.076025 0.350358 0
M  V30 END ATOM
M  V30 BEGIN BOND
M  V30 1 1 1 2
M  V30 2 1 2 3
M  V30 3 1 3 4
M  V30 4 1 4 5
M  V30 5 1 4 6
M  V30 6 1 6 7
M  V30 7 1 7 8
M  V30 8 2 8 9
M  V30 9 1 9 10
M  V30 10 2 10 11
M  V30 11 1 11 12
M  V30 12 2 12 13
M  V30 13 1 13 14
M  V30 14 1 14 15
M  V30 15 2 15 16
M  V30 16 1 15 17
M  V30 17 2 17 18
M  V30 18 1 18 19
M  V30 19 2 19 20
M  V30 20 1 20 21
M  V30 21 1 20 22
M  V30 22 1 22 23
M  V30 23 2 23 24
M  V30 24 1 24 25
M  V30 25 1 24 26
M  V30 26 2 26 27
M  V30 27 1 27 28
M  V30 28 1 28 29
M  V30 29 1 29 30
M  V30 30 1 30 31
M  V30 31 1 31 32
M  V30 32 1 32 33
M  V30 33 1 33 34
M  V30 34 1 27 35
M  V30 35 2 35 36
M  V30 36 1 36 37
M  V30 37 2 22 38
M  V30 38 1 7 39
M  V30 39 1 39 40
M  V30 40 1 40 41
M  V30 41 1 40 3
M  V30 42 1 13 8
M  V30 43 1 38 17
M  V30 44 1 36 23
M  V30 45 1 34 29
M  V30 46 1 1 42
M  V30 47 1 1 43
M  V30 48 1 1 44
M  V30 49 1 3 45 CFG=1
M  V30 50 1 4 46 CFG=1
M  V30 51 1 5 47
M  V30 52 1 5 48
M  V30 53 1 6 49
M  V30 54 1 6 50
M  V30 55 1 7 51 CFG=1
M  V30 56 1 9 52
M  V30 57 1 10 53
M  V30 58 1 12 54
M  V30 59 1 14 55
M  V30 60 1 18 56
M  V30 61 1 19 57
M  V30 62 1 26 58
M  V30 63 1 29 59
M  V30 64 1 30 60
M  V30 65 1 30 61
M  V30 66 1 31 62
M  V30 67 1 31 63
M  V30 68 1 33 64
M  V30 69 1 33 65
M  V30 70 1 34 66
M  V30 71 1 34 67
M  V30 72 1 35 68
M  V30 73 1 39 69
M  V30 74 1 39 70
M  V30 75 1 40 71 CFG=1
M  V30 76 1 41 72
M  V30 77 1 41 73
M  V30 78 1 41 74
M  V30 END BOND
M  V30 END CTAB
M  END
>  <Dataset>  (356) 
ChEMBL_Kinases

>  <Ligand_Instance>  (356) 
nan

>  <PDB_ID>  (356) 
nan

>  <Standardized_SMILES>  (356) 
CO[C@H]1[C@H](N)C[C@H](c2ccncc2NC(=O)c2ccc(F)c(-c3c(F)cc(OC4CCOCC4)cc3F)n2)C[C@@H]1C

>  <Name>  (356) 
nan

>  <Pocket>  (356) 
nan

>  <ATP_Site>  (356) 
nan

>  <Peripheral>  (356) 
nan

>  <Num_H_Atoms_ProtBoundConf>  (356) 
nan

>  <Num_Resolved_Atoms>  (356) 
nan

>  <Num_Not_Resolved_Atoms>  (356) 
nan

$$$$
CHEMBL3691920
     RDKit          3D

  0  0  0  0  0  0  0  0  0  0999 V3000
M  V30 BEGIN CTAB
M  V30 COUNTS 69 72 0 0 0
M  V30 BEGIN ATOM
M  V30 1 C 2.554651 -1.132771 6.379374 0
M  V30 2 C 3.203109 -1.433638 5.072970 0
M  V30 3 O 4.442005 -0.885930 4.866627 0
M  V30 4 C 4.504972 0.495569 4.880962 0
M  V30 5 C 3.635213 1.056862 3.794931 0
M  V30 6 C 4.254614 1.220468 2.571618 0
M  V30 7 C 3.620616 1.724760 1.452133 0
M  V30 8 F 4.219837 1.889392 0.246891 0
M  V30 9 C 2.293347 2.072184 1.607445 0
M  V30 10 C 1.499005 2.619462 0.507288 0
M  V30 11 N 0.868432 1.679932 -0.257137 0
M  V30 12 C 0.099283 2.022861 -1.301734 0
M  V30 13 C -0.596147 1.027420 -2.151508 0
M  V30 14 O -1.334450 1.394641 -3.133342 0
M  V30 15 N -0.569545 -0.396024 -2.037150 0
M  V30 16 C -1.426246 -0.768008 -3.128871 0
M  V30 17 C -0.920961 -0.838513 -4.400123 0
M  V30 18 N -1.739203 -1.161016 -5.404789 0
M  V30 19 C -3.027549 -1.401857 -5.115742 0
M  V30 20 C -3.542027 -1.330189 -3.815915 0
M  V30 21 C -2.709973 -0.994795 -2.730431 0
M  V30 22 C -3.516726 -1.072601 -1.535585 0 CFG=1
M  V30 23 C -4.147147 -2.478703 -1.427173 0
M  V30 24 C -3.139552 -3.572510 -1.350040 0 CFG=1
M  V30 25 N -2.607639 -4.034179 -2.590207 0
M  V30 26 C -1.965338 -3.190470 -0.443619 0 CFG=2
M  V30 27 O -1.630003 -4.303617 0.321950 0
M  V30 28 C -0.374810 -4.803228 0.102415 0
M  V30 29 C -2.344982 -2.076359 0.475429 0 CFG=1
M  V30 30 C -1.171780 -1.753247 1.371254 0
M  V30 31 C -2.888535 -0.845127 -0.218692 0
M  V30 32 C -0.082717 3.344261 -1.642226 0
M  V30 33 C 0.556480 4.297669 -0.866869 0
M  V30 34 C 1.353911 3.956679 0.214678 0
M  V30 35 F 2.002500 4.846076 1.005736 0
M  V30 36 C 1.616690 1.927232 2.824218 0
M  V30 37 F 0.316154 2.257196 3.010681 0
M  V30 38 C 2.313369 1.417596 3.898170 0
M  V30 39 H 2.290728 -2.112480 6.880219 0
M  V30 40 H 1.574707 -0.606043 6.309615 0
M  V30 41 H 3.231586 -0.540398 7.040521 0
M  V30 42 H 3.332188 -2.549084 4.975013 0
M  V30 43 H 2.487370 -1.192031 4.233615 0
M  V30 44 H 5.567225 0.782163 4.713109 0
M  V30 45 H 4.137165 0.839009 5.870780 0
M  V30 46 H 5.310442 0.949756 2.426045 0
M  V30 47 H 0.036354 -0.737477 -1.233208 0
M  V30 48 H 0.132339 -0.622602 -4.500967 0
M  V30 49 H -3.590248 -1.652778 -6.013028 0
M  V30 50 H -4.613468 -1.567775 -3.855421 0
M  V30 51 H -4.417309 -0.406169 -1.630164 0
M  V30 52 H -4.940372 -2.640278 -2.154279 0
M  V30 53 H -4.669393 -2.460883 -0.427167 0
M  V30 54 H -3.606086 -4.477932 -0.862855 0
M  V30 55 H -3.265478 -4.207699 -3.353381 0
M  V30 56 H -1.728571 -3.622879 -2.907712 0
M  V30 57 H -1.087836 -2.938127 -1.058039 0
M  V30 58 H -0.236844 -5.688051 0.783033 0
M  V30 59 H 0.471353 -4.147131 0.300667 0
M  V30 60 H -0.378413 -5.216930 -0.941501 0
M  V30 61 H -3.118713 -2.516660 1.179483 0
M  V30 62 H -1.186319 -2.381839 2.281652 0
M  V30 63 H -0.248662 -1.938518 0.801253 0
M  V30 64 H -1.254376 -0.690955 1.706437 0
M  V30 65 H -2.143538 -0.069898 -0.114762 0
M  V30 66 H -3.735810 -0.504140 0.467048 0
M  V30 67 H -0.693717 3.711718 -2.477608 0
M  V30 68 H 0.470333 5.345865 -1.057869 0
M  V30 69 H 1.863343 1.276989 4.870175 0
M  V30 END ATOM
M  V30 BEGIN BOND
M  V30 1 1 1 2
M  V30 2 1 2 3
M  V30 3 1 3 4
M  V30 4 1 4 5
M  V30 5 2 5 6
M  V30 6 1 6 7
M  V30 7 1 7 8
M  V30 8 2 7 9
M  V30 9 1 9 10
M  V30 10 2 10 11
M  V30 11 1 11 12
M  V30 12 1 12 13
M  V30 13 2 13 14
M  V30 14 1 13 15
M  V30 15 1 15 16
M  V30 16 2 16 17
M  V30 17 1 17 18
M  V30 18 2 18 19
M  V30 19 1 19 20
M  V30 20 2 20 21
M  V30 21 1 21 22
M  V30 22 1 22 23
M  V30 23 1 23 24
M  V30 24 1 24 25
M  V30 25 1 24 26
M  V30 26 1 26 27
M  V30 27 1 27 28
M  V30 28 1 26 29
M  V30 29 1 29 30
M  V30 30 1 29 31
M  V30 31 2 12 32
M  V30 32 1 32 33
M  V30 33 2 33 34
M  V30 34 1 34 35
M  V30 35 1 9 36
M  V30 36 1 36 37
M  V30 37 2 36 38
M  V30 38 1 38 5
M  V30 39 1 34 10
M  V30 40 1 21 16
M  V30 41 1 31 22
M  V30 42 1 1 39
M  V30 43 1 1 40
M  V30 44 1 1 41
M  V30 45 1 2 42
M  V30 46 1 2 43
M  V30 47 1 4 44
M  V30 48 1 4 45
M  V30 49 1 6 46
M  V30 50 1 15 47
M  V30 51 1 17 48
M  V30 52 1 19 49
M  V30 53 1 20 50
M  V30 54 1 22 51 CFG=3
M  V30 55 1 23 52
M  V30 56 1 23 53
M  V30 57 1 24 54 CFG=1
M  V30 58 1 25 55
M  V30 59 1 25 56
M  V30 60 1 26 57 CFG=3
M  V30 61 1 28 58
M  V30 62 1 28 59
M  V30 63 1 28 60
M  V30 64 1 29 61 CFG=1
M  V30 65 1 30 62
M  V30 66 1 30 63
M  V30 67 1 30 64
M  V30 68 1 31 65
M  V30 69 1 31 66
M  V30 70 1 32 67
M  V30 71 1 33 68
M  V30 72 1 38 69
M  V30 END BOND
M  V30 END CTAB
M  END
>  <Dataset>  (357) 
ChEMBL_Kinases

>  <Ligand_Instance>  (357) 
nan

>  <PDB_ID>  (357) 
nan

>  <Standardized_SMILES>  (357) 
CCOCc1cc(F)c(-c2nc(C(=O)Nc3cnccc3[C@H]3C[C@@H](N)[C@H](OC)[C@@H](C)C3)ccc2F)c(F)c1

>  <Name>  (357) 
nan

>  <Pocket>  (357) 
nan

>  <ATP_Site>  (357) 
nan

>  <Peripheral>  (357) 
nan

>  <Num_H_Atoms_ProtBoundConf>  (357) 
nan

>  <Num_Resolved_Atoms>  (357) 
nan

>  <Num_Not_Resolved_Atoms>  (357) 
nan

$$$$
CHEMBL3691919
     RDKit          3D

  0  0  0  0  0  0  0  0  0  0999 V3000
M  V30 BEGIN CTAB
M  V30 COUNTS 67 70 0 0 0
M  V30 BEGIN ATOM
M  V30 1 C 4.062683 -1.064241 2.212490 0
M  V30 2 C 2.730115 -0.566674 1.629460 0 CFG=1
M  V30 3 C 2.714440 -0.866856 0.147434 0
M  V30 4 C 1.810812 -2.038886 -0.145707 0 CFG=1
M  V30 5 C 2.027367 -2.410135 -1.547298 0
M  V30 6 C 2.999303 -3.271173 -2.015229 0
M  V30 7 C 3.186189 -3.603086 -3.340636 0
M  V30 8 N 2.378179 -3.064745 -4.270026 0
M  V30 9 C 1.401699 -2.208382 -3.864423 0
M  V30 10 C 1.215332 -1.876454 -2.534950 0
M  V30 11 N 0.165522 -0.988672 -2.302467 0
M  V30 12 C -0.174675 0.365954 -2.205052 0
M  V30 13 O 0.741886 1.205275 -2.374002 0
M  V30 14 C -1.547798 0.750024 -1.917911 0
M  V30 15 N -2.629388 0.023782 -1.706746 0
M  V30 16 C -3.685003 0.339075 -1.486076 0
M  V30 17 C -4.979530 -0.432063 -1.232222 0
M  V30 18 C -4.885973 -1.799687 -1.267407 0
M  V30 19 F -3.665315 -2.362076 -1.521263 0
M  V30 20 C -6.042834 -2.478023 -1.040704 0
M  V30 21 C -7.241747 -1.858545 -0.790139 0
M  V30 22 C -7.274340 -0.479820 -0.767076 0
M  V30 23 C -6.128634 0.291888 -0.990375 0
M  V30 24 F -6.158353 1.637559 -0.969168 0
M  V30 25 S -3.642236 2.229453 -1.467813 0
M  V30 26 C -1.786126 2.166703 -1.848694 0
M  V30 27 N -0.947312 3.308188 -2.004565 0
M  V30 28 C 2.088749 -3.151386 0.814829 0
M  V30 29 C 1.892146 -2.760549 2.228567 0 CFG=1
M  V30 30 N 2.954533 -3.235388 3.087114 0
M  V30 31 C 1.655814 -1.245084 2.407215 0 CFG=1
M  V30 32 O 1.799408 -0.923164 3.748989 0
M  V30 33 C 0.680291 -0.569985 4.419489 0
M  V30 34 C -0.073709 0.639472 4.070270 0
M  V30 35 S 0.750770 2.177953 4.278373 0
M  V30 36 C -0.317732 3.545148 3.798107 0
M  V30 37 O 2.049732 2.306588 3.583656 0
M  V30 38 O 1.052332 2.437337 5.755876 0
M  V30 39 H 4.002008 -1.116001 3.310753 0
M  V30 40 H 4.429113 -1.969740 1.723876 0
M  V30 41 H 4.849870 -0.285684 2.006201 0
M  V30 42 H 2.779635 0.534118 1.750300 0
M  V30 43 H 2.373698 0.026207 -0.427483 0
M  V30 44 H 3.731787 -1.081890 -0.178291 0
M  V30 45 H 0.751353 -1.747298 0.007129 0
M  V30 46 H 3.663863 -3.721784 -1.317672 0
M  V30 47 H 3.973094 -4.290772 -3.650259 0
M  V30 48 H 0.804594 -1.829605 -4.692513 0
M  V30 49 H -0.612040 -1.700273 -2.158919 0
M  V30 50 H -5.959792 -3.567984 -1.069962 0
M  V30 51 H -8.095085 -2.494767 -0.624514 0
M  V30 52 H -8.218281 0.006439 -0.569342 0
M  V30 53 H -0.086965 3.254874 -1.415840 0
M  V30 54 H -1.208214 4.072034 -2.640025 0
M  V30 55 H 3.090231 -3.624162 0.621585 0
M  V30 56 H 1.369822 -3.980484 0.538589 0
M  V30 57 H 0.956845 -3.241555 2.629310 0
M  V30 58 H 2.606631 -3.389612 4.073425 0
M  V30 59 H 3.211168 -4.189968 2.729149 0
M  V30 60 H 0.627719 -1.098320 2.097463 0
M  V30 61 H 1.002074 -0.442950 5.504703 0
M  V30 62 H -0.020225 -1.462138 4.508373 0
M  V30 63 H -0.977485 0.671365 4.751982 0
M  V30 64 H -0.517369 0.652209 3.053980 0
M  V30 65 H -0.914446 3.163102 2.933814 0
M  V30 66 H -1.036452 3.780105 4.599494 0
M  V30 67 H 0.257017 4.404994 3.437550 0
M  V30 END ATOM
M  V30 BEGIN BOND
M  V30 1 1 1 2
M  V30 2 1 2 3
M  V30 3 1 3 4
M  V30 4 1 4 5
M  V30 5 2 5 6
M  V30 6 1 6 7
M  V30 7 2 7 8
M  V30 8 1 8 9
M  V30 9 2 9 10
M  V30 10 1 10 11
M  V30 11 1 11 12
M  V30 12 2 12 13
M  V30 13 1 12 14
M  V30 14 1 14 15
M  V30 15 2 15 16
M  V30 16 1 16 17
M  V30 17 2 17 18
M  V30 18 1 18 19
M  V30 19 1 18 20
M  V30 20 2 20 21
M  V30 21 1 21 22
M  V30 22 2 22 23
M  V30 23 1 23 24
M  V30 24 1 16 25
M  V30 25 1 25 26
M  V30 26 1 26 27
M  V30 27 1 4 28
M  V30 28 1 28 29
M  V30 29 1 29 30
M  V30 30 1 29 31
M  V30 31 1 31 32
M  V30 32 1 32 33
M  V30 33 1 33 34
M  V30 34 1 34 35
M  V30 35 1 35 36
M  V30 36 2 35 37
M  V30 37 2 35 38
M  V30 38 1 31 2
M  V30 39 1 10 5
M  V30 40 2 26 14
M  V30 41 1 23 17
M  V30 42 1 1 39
M  V30 43 1 1 40
M  V30 44 1 1 41
M  V30 45 1 2 42 CFG=3
M  V30 46 1 3 43
M  V30 47 1 3 44
M  V30 48 1 4 45 CFG=3
M  V30 49 1 6 46
M  V30 50 1 7 47
M  V30 51 1 9 48
M  V30 52 1 11 49
M  V30 53 1 20 50
M  V30 54 1 21 51
M  V30 55 1 22 52
M  V30 56 1 27 53
M  V30 57 1 27 54
M  V30 58 1 28 55
M  V30 59 1 28 56
M  V30 60 1 29 57 CFG=1
M  V30 61 1 30 58
M  V30 62 1 30 59
M  V30 63 1 31 60 CFG=3
M  V30 64 1 33 61
M  V30 65 1 33 62
M  V30 66 1 34 63
M  V30 67 1 34 64
M  V30 68 1 36 65
M  V30 69 1 36 66
M  V30 70 1 36 67
M  V30 END BOND
M  V30 END CTAB
M  END
>  <Dataset>  (358) 
ChEMBL_Kinases

>  <Ligand_Instance>  (358) 
nan

>  <PDB_ID>  (358) 
nan

>  <Standardized_SMILES>  (358) 
C[C@H]1C[C@@H](c2ccncc2NC(=O)c2nc(-c3c(F)cccc3F)sc2N)C[C@@H](N)[C@H]1OCCS(C)(=O)=O

>  <Name>  (358) 
nan

>  <Pocket>  (358) 
nan

>  <ATP_Site>  (358) 
nan

>  <Peripheral>  (358) 
nan

>  <Num_H_Atoms_ProtBoundConf>  (358) 
nan

>  <Num_Resolved_Atoms>  (358) 
nan

>  <Num_Not_Resolved_Atoms>  (358) 
nan

$$$$
CHEMBL3702106
     RDKit          3D

  0  0  0  0  0  0  0  0  0  0999 V3000
M  V30 BEGIN CTAB
M  V30 COUNTS 60 65 0 0 0
M  V30 BEGIN ATOM
M  V30 1 C 1.479161 -4.327240 8.170285 0
M  V30 2 O 1.914690 -3.896151 6.919605 0
M  V30 3 C 1.173680 -3.706315 5.788314 0
M  V30 4 C 1.883336 -3.264230 4.666295 0
M  V30 5 C 1.232230 -3.035792 3.458253 0
M  V30 6 C 1.711525 -2.598760 2.226168 0
M  V30 7 C 2.985812 -2.266234 1.873493 0
M  V30 8 N 3.162398 -1.864873 0.601967 0
M  V30 9 C 2.148789 -1.791558 -0.280891 0
M  V30 10 N 2.215156 -1.367351 -1.636691 0
M  V30 11 C 1.678653 -0.070208 -1.937105 0
M  V30 12 C 1.695728 0.458980 -3.211098 0
M  V30 13 C 1.170622 1.686070 -3.553667 0
M  V30 14 C 0.589914 2.433256 -2.556471 0
M  V30 15 N -0.017535 3.705183 -2.741448 0
M  V30 16 C -0.609294 4.630105 -1.798985 0
M  V30 17 C -2.112645 4.627958 -1.842312 0
M  V30 18 N -2.523419 4.323166 -3.175094 0
M  V30 19 C -1.636695 4.819942 -4.205870 0
M  V30 20 C -0.213527 4.401326 -3.998425 0
M  V30 21 C 0.570183 1.911766 -1.279338 0
M  V30 22 N 1.098916 0.704493 -0.997756 0
M  V30 23 N 0.904844 -2.126344 0.099691 0
M  V30 24 C 0.623264 -2.537148 1.341032 0
M  V30 25 N -0.477477 -2.932484 2.045418 0
M  V30 26 C -1.794916 -3.003316 1.508921 0
M  V30 27 C -1.899383 -3.162357 0.028481 0
M  V30 28 C -1.677845 -4.633462 -0.204281 0
M  V30 29 C -1.916857 -5.316430 1.140235 0
M  V30 30 C -2.566496 -4.223156 1.972006 0
M  V30 31 C -0.125873 -3.233985 3.317042 0
M  V30 32 N -0.752395 -3.658503 4.427495 0
M  V30 33 N -0.135163 -3.872233 5.565157 0
M  V30 34 H 0.362841 -4.433747 8.255336 0
M  V30 35 H 1.922313 -5.313314 8.443764 0
M  V30 36 H 1.852555 -3.602270 8.939612 0
M  V30 37 H 2.955359 -3.094719 4.731350 0
M  V30 38 H 3.835959 -2.303033 2.524658 0
M  V30 39 H 2.616466 -1.897704 -2.450201 0
M  V30 40 H 2.150664 -0.107164 -4.035591 0
M  V30 41 H 1.204033 2.063541 -4.554854 0
M  V30 42 H -0.309851 4.265628 -0.775083 0
M  V30 43 H -0.203522 5.659865 -1.846340 0
M  V30 44 H -2.558730 5.550267 -1.437389 0
M  V30 45 H -2.468494 3.794873 -1.189404 0
M  V30 46 H -2.713720 3.301085 -3.277809 0
M  V30 47 H -1.713329 5.915313 -4.278366 0
M  V30 48 H -1.985877 4.394887 -5.167990 0
M  V30 49 H 0.440988 5.290389 -4.007950 0
M  V30 50 H 0.128384 3.731639 -4.808955 0
M  V30 51 H 0.167093 2.344667 -0.388647 0
M  V30 52 H -2.417930 -2.131161 1.814659 0
M  V30 53 H -1.323830 -2.487680 -0.589911 0
M  V30 54 H -2.990186 -2.984820 -0.214501 0
M  V30 55 H -0.668879 -4.794052 -0.602671 0
M  V30 56 H -2.447065 -5.056387 -0.909546 0
M  V30 57 H -0.963247 -5.571809 1.645108 0
M  V30 58 H -2.581556 -6.190126 1.034866 0
M  V30 59 H -2.483909 -4.443304 3.034318 0
M  V30 60 H -3.629238 -4.059944 1.645983 0
M  V30 END ATOM
M  V30 BEGIN BOND
M  V30 1 1 1 2
M  V30 2 1 2 3
M  V30 3 2 3 4
M  V30 4 1 4 5
M  V30 5 1 5 6
M  V30 6 2 6 7
M  V30 7 1 7 8
M  V30 8 2 8 9
M  V30 9 1 9 10
M  V30 10 1 10 11
M  V30 11 2 11 12
M  V30 12 1 12 13
M  V30 13 2 13 14
M  V30 14 1 14 15
M  V30 15 1 15 16
M  V30 16 1 16 17
M  V30 17 1 17 18
M  V30 18 1 18 19
M  V30 19 1 19 20
M  V30 20 1 14 21
M  V30 21 2 21 22
M  V30 22 1 9 23
M  V30 23 2 23 24
M  V30 24 1 24 25
M  V30 25 1 25 26
M  V30 26 1 26 27
M  V30 27 1 27 28
M  V30 28 1 28 29
M  V30 29 1 29 30
M  V30 30 1 25 31
M  V30 31 1 31 32
M  V30 32 2 32 33
M  V30 33 1 33 3
M  V30 34 2 31 5
M  V30 35 1 24 6
M  V30 36 1 30 26
M  V30 37 1 22 11
M  V30 38 1 20 15
M  V30 39 1 1 34
M  V30 40 1 1 35
M  V30 41 1 1 36
M  V30 42 1 4 37
M  V30 43 1 7 38
M  V30 44 1 10 39
M  V30 45 1 12 40
M  V30 46 1 13 41
M  V30 47 1 16 42
M  V30 48 1 16 43
M  V30 49 1 17 44
M  V30 50 1 17 45
M  V30 51 1 18 46
M  V30 52 1 19 47
M  V30 53 1 19 48
M  V30 54 1 20 49
M  V30 55 1 20 50
M  V30 56 1 21 51
M  V30 57 1 26 52
M  V30 58 1 27 53
M  V30 59 1 27 54
M  V30 60 1 28 55
M  V30 61 1 28 56
M  V30 62 1 29 57
M  V30 63 1 29 58
M  V30 64 1 30 59
M  V30 65 1 30 60
M  V30 END BOND
M  V30 END CTAB
M  END
>  <Dataset>  (359) 
ChEMBL_Kinases

>  <Ligand_Instance>  (359) 
nan

>  <PDB_ID>  (359) 
nan

>  <Standardized_SMILES>  (359) 
COc1cc2c3cnc(Nc4ccc(N5CCNCC5)cn4)nc3n(C3CCCC3)c2nn1

>  <Name>  (359) 
nan

>  <Pocket>  (359) 
nan

>  <ATP_Site>  (359) 
nan

>  <Peripheral>  (359) 
nan

>  <Num_H_Atoms_ProtBoundConf>  (359) 
nan

>  <Num_Resolved_Atoms>  (359) 
nan

>  <Num_Not_Resolved_Atoms>  (359) 
nan

$$$$
CHEMBL3691918
     RDKit          3D

  0  0  0  0  0  0  0  0  0  0999 V3000
M  V30 BEGIN CTAB
M  V30 COUNTS 56 59 0 0 0
M  V30 BEGIN ATOM
M  V30 1 C 1.218982 -2.206621 2.784198 0
M  V30 2 O 2.166747 -2.214722 1.769694 0
M  V30 3 C 1.932917 -1.115948 0.953558 0 CFG=1
M  V30 4 C 3.108732 -0.127306 1.030974 0 CFG=2
M  V30 5 N 3.568962 0.064832 2.369541 0
M  V30 6 C 2.512385 1.146539 0.444372 0
M  V30 7 C 2.169803 0.955406 -0.981800 0 CFG=2
M  V30 8 C 1.225898 2.003598 -1.425940 0
M  V30 9 C 1.665174 3.187376 -2.040814 0
M  V30 10 C 0.899133 4.213557 -2.520228 0
M  V30 11 N -0.417143 4.095836 -2.399586 0
M  V30 12 C -0.949143 3.004602 -1.826085 0
M  V30 13 C -0.148265 1.988392 -1.352565 0
M  V30 14 N -0.847217 0.893748 -0.773480 0
M  V30 15 C -1.193397 1.196227 0.579332 0
M  V30 16 O -0.848551 2.322750 1.009166 0
M  V30 17 C -1.909214 0.233820 1.398590 0
M  V30 18 C -2.244068 0.564454 2.803841 0
M  V30 19 S -3.145295 -0.985506 3.376974 0
M  V30 20 C -2.907971 -1.741309 1.695168 0
M  V30 21 C -3.450910 -3.122504 1.452042 0
M  V30 22 C -3.251011 -3.629319 0.203819 0
M  V30 23 F -2.606972 -2.920936 -0.734110 0
M  V30 24 C -3.701243 -4.885211 -0.142797 0
M  V30 25 C -4.363304 -5.593529 0.847137 0
M  V30 26 C -4.575847 -5.092590 2.124332 0
M  V30 27 C -4.099246 -3.815924 2.421734 0
M  V30 28 F -4.281389 -3.290065 3.643436 0
M  V30 29 N -2.340237 -0.955171 1.083891 0
M  V30 30 C 1.879623 -0.420921 -1.459733 0
M  V30 31 C 1.876348 -1.524656 -0.478071 0 CFG=2
M  V30 32 C 0.671866 -2.419979 -0.672166 0
M  V30 33 H 1.359252 -3.068709 3.470731 0
M  V30 34 H 0.180699 -2.198062 2.454574 0
M  V30 35 H 1.334518 -1.307370 3.446849 0
M  V30 36 H 1.073666 -0.571276 1.336035 0
M  V30 37 H 3.905672 -0.550416 0.401320 0
M  V30 38 H 4.295565 -0.630245 2.592196 0
M  V30 39 H 3.835835 1.046931 2.595320 0
M  V30 40 H 1.656791 1.421423 1.046631 0
M  V30 41 H 3.290476 1.925143 0.609427 0
M  V30 42 H 3.142877 1.242575 -1.522173 0
M  V30 43 H 2.748941 3.312606 -2.154353 0
M  V30 44 H 1.353330 5.076588 -2.974777 0
M  V30 45 H -2.025389 2.964696 -1.755783 0
M  V30 46 H -1.183875 -0.074614 -1.071775 0
M  V30 47 H -1.934357 1.653386 3.337707 0
M  V30 48 H -3.536160 -5.265213 -1.122840 0
M  V30 49 H -4.713683 -6.587848 0.555105 0
M  V30 50 H -5.094280 -5.671808 2.867134 0
M  V30 51 H 2.617485 -0.733728 -2.265039 0
M  V30 52 H 0.923986 -0.424089 -2.021643 0
M  V30 53 H 2.761130 -2.216341 -0.624560 0
M  V30 54 H 0.209918 -2.160625 -1.655598 0
M  V30 55 H -0.111094 -2.297896 0.084347 0
M  V30 56 H 0.916056 -3.499887 -0.690412 0
M  V30 END ATOM
M  V30 BEGIN BOND
M  V30 1 1 1 2
M  V30 2 1 2 3
M  V30 3 1 3 4
M  V30 4 1 4 5
M  V30 5 1 4 6
M  V30 6 1 6 7
M  V30 7 1 7 8
M  V30 8 2 8 9
M  V30 9 1 9 10
M  V30 10 2 10 11
M  V30 11 1 11 12
M  V30 12 2 12 13
M  V30 13 1 13 14
M  V30 14 1 14 15
M  V30 15 2 15 16
M  V30 16 1 15 17
M  V30 17 2 17 18
M  V30 18 1 18 19
M  V30 19 1 19 20
M  V30 20 1 20 21
M  V30 21 2 21 22
M  V30 22 1 22 23
M  V30 23 1 22 24
M  V30 24 2 24 25
M  V30 25 1 25 26
M  V30 26 2 26 27
M  V30 27 1 27 28
M  V30 28 2 20 29
M  V30 29 1 7 30
M  V30 30 1 30 31
M  V30 31 1 31 32
M  V30 32 1 31 3
M  V30 33 1 13 8
M  V30 34 1 29 17
M  V30 35 1 27 21
M  V30 36 1 1 33
M  V30 37 1 1 34
M  V30 38 1 1 35
M  V30 39 1 3 36 CFG=1
M  V30 40 1 4 37 CFG=3
M  V30 41 1 5 38
M  V30 42 1 5 39
M  V30 43 1 6 40
M  V30 44 1 6 41
M  V30 45 1 7 42 CFG=3
M  V30 46 1 9 43
M  V30 47 1 10 44
M  V30 48 1 12 45
M  V30 49 1 14 46
M  V30 50 1 18 47
M  V30 51 1 24 48
M  V30 52 1 25 49
M  V30 53 1 26 50
M  V30 54 1 30 51
M  V30 55 1 30 52
M  V30 56 1 31 53 CFG=3
M  V30 57 1 32 54
M  V30 58 1 32 55
M  V30 59 1 32 56
M  V30 END BOND
M  V30 END CTAB
M  END
>  <Dataset>  (360) 
ChEMBL_Kinases

>  <Ligand_Instance>  (360) 
nan

>  <PDB_ID>  (360) 
nan

>  <Standardized_SMILES>  (360) 
CO[C@H]1[C@H](N)C[C@H](c2ccncc2NC(=O)c2csc(-c3c(F)cccc3F)n2)C[C@@H]1C

>  <Name>  (360) 
nan

>  <Pocket>  (360) 
nan

>  <ATP_Site>  (360) 
nan

>  <Peripheral>  (360) 
nan

>  <Num_H_Atoms_ProtBoundConf>  (360) 
nan

>  <Num_Resolved_Atoms>  (360) 
nan

>  <Num_Not_Resolved_Atoms>  (360) 
nan

$$$$
CHEMBL4452380
     RDKit          3D

  0  0  0  0  0  0  0  0  0  0999 V3000
M  V30 BEGIN CTAB
M  V30 COUNTS 27 28 0 0 0
M  V30 BEGIN ATOM
M  V30 1 N 0.474868 -4.372919 3.994979 0
M  V30 2 C 1.170700 -4.016087 2.806788 0
M  V30 3 O 1.986260 -4.954798 2.664993 0
M  V30 4 C 0.847267 -2.801265 2.086834 0
M  V30 5 C -0.151334 -1.974983 2.568605 0
M  V30 6 C -0.384506 -0.839989 1.806331 0
M  V30 7 C 0.308482 -0.526727 0.649080 0
M  V30 8 C -0.037911 0.709072 -0.064668 0
M  V30 9 C -0.489156 1.839060 0.613150 0
M  V30 10 C -0.826619 3.022642 -0.016195 0
M  V30 11 N -0.696397 3.039798 -1.365916 0
M  V30 12 C -0.261480 1.954211 -2.032618 0
M  V30 13 N -0.186457 2.148917 -3.439860 0
M  V30 14 C 0.085513 0.753953 -1.440792 0
M  V30 15 C 1.296560 -1.386044 0.211520 0
M  V30 16 C 1.563144 -2.527843 0.937776 0
M  V30 17 H 0.003418 -4.051623 4.870017 0
M  V30 18 H 0.166817 -3.590884 4.637413 0
M  V30 19 H -0.725153 -2.165114 3.463875 0
M  V30 20 H -1.167821 -0.168181 2.161459 0
M  V30 21 H -0.579704 1.779688 1.708501 0
M  V30 22 H -1.166942 3.841611 0.614190 0
M  V30 23 H 0.810468 2.470854 -3.524475 0
M  V30 24 H -0.766810 2.074901 -4.326311 0
M  V30 25 H 0.427990 -0.080373 -2.028604 0
M  V30 26 H 1.820607 -1.113741 -0.694059 0
M  V30 27 H 2.323856 -3.208498 0.616222 0
M  V30 END ATOM
M  V30 BEGIN BOND
M  V30 1 1 1 2
M  V30 2 2 2 3
M  V30 3 1 2 4
M  V30 4 2 4 5
M  V30 5 1 5 6
M  V30 6 2 6 7
M  V30 7 1 7 8
M  V30 8 2 8 9
M  V30 9 1 9 10
M  V30 10 2 10 11
M  V30 11 1 11 12
M  V30 12 1 12 13
M  V30 13 2 12 14
M  V30 14 1 7 15
M  V30 15 2 15 16
M  V30 16 1 16 4
M  V30 17 1 14 8
M  V30 18 1 1 17
M  V30 19 1 1 18
M  V30 20 1 5 19
M  V30 21 1 6 20
M  V30 22 1 9 21
M  V30 23 1 10 22
M  V30 24 1 13 23
M  V30 25 1 13 24
M  V30 26 1 14 25
M  V30 27 1 15 26
M  V30 28 1 16 27
M  V30 END BOND
M  V30 END CTAB
M  END
>  <Dataset>  (361) 
ChEMBL_Kinases

>  <Ligand_Instance>  (361) 
nan

>  <PDB_ID>  (361) 
nan

>  <Standardized_SMILES>  (361) 
NC(=O)c1ccc(-c2ccnc(N)c2)cc1

>  <Name>  (361) 
nan

>  <Pocket>  (361) 
nan

>  <ATP_Site>  (361) 
nan

>  <Peripheral>  (361) 
nan

>  <Num_H_Atoms_ProtBoundConf>  (361) 
nan

>  <Num_Resolved_Atoms>  (361) 
nan

>  <Num_Not_Resolved_Atoms>  (361) 
nan

$$$$
CHEMBL3691917
     RDKit          3D

  0  0  0  0  0  0  0  0  0  0999 V3000
M  V30 BEGIN CTAB
M  V30 COUNTS 65 68 0 0 0
M  V30 BEGIN ATOM
M  V30 1 C 1.462221 -0.773023 2.919555 0
M  V30 2 C 2.050522 -0.507558 1.549920 0 CFG=1
M  V30 3 C 1.703255 -1.697874 0.688996 0
M  V30 4 C 1.873840 -1.361551 -0.809078 0 CFG=1
M  V30 5 C 1.911307 -2.603777 -1.532403 0
M  V30 6 C 3.100656 -3.313839 -1.779862 0
M  V30 7 C 3.177543 -4.503500 -2.467491 0
M  V30 8 N 2.077750 -5.091115 -2.969197 0
M  V30 9 C 0.901233 -4.470548 -2.772406 0
M  V30 10 C 0.842425 -3.278149 -2.080537 0
M  V30 11 N -0.476179 -2.772871 -1.975567 0
M  V30 12 C -1.575329 -2.893952 -1.073757 0
M  V30 13 O -1.284656 -3.660848 -0.118077 0
M  V30 14 C -2.805740 -2.144553 -1.386927 0
M  V30 15 C -3.023243 -1.320213 -2.479335 0
M  V30 16 S -4.805603 -0.786741 -2.105361 0
M  V30 17 C -4.880091 -1.737192 -0.631572 0
M  V30 18 C -6.107585 -1.751329 0.197173 0
M  V30 19 C -7.192135 -1.003425 -0.211888 0
M  V30 20 F -7.207435 -0.248194 -1.336268 0
M  V30 21 C -8.311654 -1.066062 0.619879 0
M  V30 22 C -8.320821 -1.835023 1.781294 0
M  V30 23 C -7.207991 -2.566126 2.146566 0
M  V30 24 C -6.081052 -2.523512 1.339914 0
M  V30 25 F -5.000185 -3.247480 1.715256 0
M  V30 26 N -3.744766 -2.338371 -0.477916 0
M  V30 27 C 1.112060 -0.200556 -1.172458 0
M  V30 28 C 0.405194 0.516373 -0.013511 0 CFG=1
M  V30 29 N -0.729292 -0.139776 0.508386 0
M  V30 30 C 1.489104 0.782982 1.010507 0 CFG=1
M  V30 31 O 1.085201 1.603076 2.031189 0
M  V30 32 C 1.743246 2.793900 2.158830 0
M  V30 33 C 3.228548 2.678999 2.403574 0
M  V30 34 S 3.920316 4.325275 2.544155 0
M  V30 35 C 5.658128 4.271855 2.831855 0
M  V30 36 O 3.285175 4.994375 3.748191 0
M  V30 37 O 3.652963 5.139241 1.315764 0
M  V30 38 H 0.772609 -1.638242 2.919817 0
M  V30 39 H 0.818283 0.093940 3.236039 0
M  V30 40 H 2.247307 -0.841859 3.705475 0
M  V30 41 H 3.154769 -0.481480 1.673703 0
M  V30 42 H 2.419636 -2.494181 0.983913 0
M  V30 43 H 0.700109 -2.105190 0.911039 0
M  V30 44 H 2.974270 -1.042072 -0.793041 0
M  V30 45 H 4.057371 -2.911734 -1.407548 0
M  V30 46 H 4.132805 -4.985458 -2.614774 0
M  V30 47 H 0.052524 -4.980819 -3.192403 0
M  V30 48 H -0.525190 -2.189206 -2.843122 0
M  V30 49 H -2.219497 -1.154198 -3.257213 0
M  V30 50 H -9.217673 -0.507849 0.378262 0
M  V30 51 H -9.220113 -1.845766 2.389823 0
M  V30 52 H -7.300406 -3.132202 3.057559 0
M  V30 53 H 1.806763 0.637580 -1.514150 0
M  V30 54 H 0.394581 -0.200124 -1.990765 0
M  V30 55 H 0.105805 1.506165 -0.415266 0
M  V30 56 H -1.599384 0.380430 0.255524 0
M  V30 57 H -0.785486 -0.322368 1.507557 0
M  V30 58 H 2.314522 1.289694 0.467534 0
M  V30 59 H 1.587404 3.515456 1.326183 0
M  V30 60 H 1.315468 3.298872 3.058965 0
M  V30 61 H 3.769744 2.142995 1.624654 0
M  V30 62 H 3.443746 2.171924 3.371382 0
M  V30 63 H 6.142391 5.122351 2.291467 0
M  V30 64 H 6.147384 3.355939 2.440156 0
M  V30 65 H 5.902264 4.440677 3.916624 0
M  V30 END ATOM
M  V30 BEGIN BOND
M  V30 1 1 1 2
M  V30 2 1 2 3
M  V30 3 1 3 4
M  V30 4 1 4 5
M  V30 5 2 5 6
M  V30 6 1 6 7
M  V30 7 2 7 8
M  V30 8 1 8 9
M  V30 9 2 9 10
M  V30 10 1 10 11
M  V30 11 1 11 12
M  V30 12 2 12 13
M  V30 13 1 12 14
M  V30 14 2 14 15
M  V30 15 1 15 16
M  V30 16 1 16 17
M  V30 17 1 17 18
M  V30 18 2 18 19
M  V30 19 1 19 20
M  V30 20 1 19 21
M  V30 21 2 21 22
M  V30 22 1 22 23
M  V30 23 2 23 24
M  V30 24 1 24 25
M  V30 25 2 17 26
M  V30 26 1 4 27
M  V30 27 1 27 28
M  V30 28 1 28 29
M  V30 29 1 28 30
M  V30 30 1 30 31
M  V30 31 1 31 32
M  V30 32 1 32 33
M  V30 33 1 33 34
M  V30 34 1 34 35
M  V30 35 2 34 36
M  V30 36 2 34 37
M  V30 37 1 30 2
M  V30 38 1 10 5
M  V30 39 1 26 14
M  V30 40 1 24 18
M  V30 41 1 1 38
M  V30 42 1 1 39
M  V30 43 1 1 40
M  V30 44 1 2 41 CFG=1
M  V30 45 1 3 42
M  V30 46 1 3 43
M  V30 47 1 4 44 CFG=1
M  V30 48 1 6 45
M  V30 49 1 7 46
M  V30 50 1 9 47
M  V30 51 1 11 48
M  V30 52 1 15 49
M  V30 53 1 21 50
M  V30 54 1 22 51
M  V30 55 1 23 52
M  V30 56 1 27 53
M  V30 57 1 27 54
M  V30 58 1 28 55 CFG=3
M  V30 59 1 29 56
M  V30 60 1 29 57
M  V30 61 1 30 58 CFG=3
M  V30 62 1 32 59
M  V30 63 1 32 60
M  V30 64 1 33 61
M  V30 65 1 33 62
M  V30 66 1 35 63
M  V30 67 1 35 64
M  V30 68 1 35 65
M  V30 END BOND
M  V30 END CTAB
M  END
>  <Dataset>  (362) 
ChEMBL_Kinases

>  <Ligand_Instance>  (362) 
nan

>  <PDB_ID>  (362) 
nan

>  <Standardized_SMILES>  (362) 
C[C@H]1C[C@@H](c2ccncc2NC(=O)c2csc(-c3c(F)cccc3F)n2)C[C@@H](N)[C@H]1OCCS(C)(=O)=O

>  <Name>  (362) 
nan

>  <Pocket>  (362) 
nan

>  <ATP_Site>  (362) 
nan

>  <Peripheral>  (362) 
nan

>  <Num_H_Atoms_ProtBoundConf>  (362) 
nan

>  <Num_Resolved_Atoms>  (362) 
nan

>  <Num_Not_Resolved_Atoms>  (362) 
nan

$$$$
CHEMBL3691924
     RDKit          3D

  0  0  0  0  0  0  0  0  0  0999 V3000
M  V30 BEGIN CTAB
M  V30 COUNTS 83 87 0 0 0
M  V30 BEGIN ATOM
M  V30 1 C 5.702707 -3.944127 0.260908 0
M  V30 2 C 5.180231 -2.549610 0.422331 0 CFG=1
M  V30 3 C 5.035249 -1.926933 -0.971685 0
M  V30 4 C 4.159970 -0.675132 -0.845820 0 CFG=1
M  V30 5 C 4.254166 0.114473 -2.056994 0
M  V30 6 C 5.586476 0.352000 -2.392873 0
M  V30 7 C 5.895809 1.059912 -3.565708 0
M  V30 8 N 4.955769 1.545678 -4.423167 0
M  V30 9 C 3.643358 1.327091 -4.113637 0
M  V30 10 C 3.365101 0.633414 -2.961312 0
M  V30 11 N 1.963183 0.491566 -2.674385 0
M  V30 12 C 1.753620 1.703728 -1.907609 0
M  V30 13 O 2.856886 2.319924 -1.842145 0
M  V30 14 C 0.513859 2.196370 -1.286414 0
M  V30 15 C 0.675428 3.400956 -0.617067 0
M  V30 16 C -0.407971 3.964316 0.015301 0
M  V30 17 C -1.670847 3.389093 0.023129 0
M  V30 18 F -2.715414 3.980318 0.659835 0
M  V30 19 C -1.755781 2.198503 -0.659176 0
M  V30 20 C -3.039761 1.514952 -0.703774 0
M  V30 21 C -3.146546 0.579502 0.326454 0
M  V30 22 F -2.195719 0.316624 1.262016 0
M  V30 23 C -4.342464 -0.148856 0.397508 0
M  V30 24 C -5.369875 0.033547 -0.492511 0
M  V30 25 O -6.484350 -0.736769 -0.319602 0
M  V30 26 C -7.662168 -0.744555 -1.055696 0
M  V30 27 C -8.806264 -0.495364 -0.060547 0
M  V30 28 C -8.699546 -1.596059 0.957477 0
M  V30 29 O -8.846289 -2.808811 0.357527 0
M  V30 30 C -8.973322 -2.836460 -0.999897 0
M  V30 31 C -7.901248 -2.074137 -1.755430 0
M  V30 32 C -5.250582 0.971935 -1.518716 0
M  V30 33 C -4.077502 1.690237 -1.592652 0
M  V30 34 F -3.843687 2.625988 -2.543608 0
M  V30 35 N -0.722608 1.616996 -1.289160 0
M  V30 36 C 2.761763 -1.244311 -0.644043 0
M  V30 37 C 2.747486 -2.506422 0.183924 0 CFG=1
M  V30 38 N 2.763954 -3.704731 -0.648951 0
M  V30 39 C 3.883200 -2.517197 1.170570 0 CFG=2
M  V30 40 O 3.770742 -1.378886 1.964174 0
M  V30 41 C 3.593174 -1.719765 3.312112 0
M  V30 42 C 3.460256 -0.452542 4.132947 0
M  V30 43 S 3.219783 -0.885789 5.853826 0
M  V30 44 C 3.053801 0.561580 6.865783 0
M  V30 45 O 4.309520 -1.759807 6.372731 0
M  V30 46 O 1.928016 -1.668431 5.944232 0
M  V30 47 H 6.623536 -4.120618 0.864030 0
M  V30 48 H 4.949161 -4.712754 0.539864 0
M  V30 49 H 6.007893 -4.182951 -0.789160 0
M  V30 50 H 5.979961 -1.961382 0.958913 0
M  V30 51 H 4.590805 -2.600264 -1.702623 0
M  V30 52 H 6.069192 -1.700884 -1.278943 0
M  V30 53 H 4.425716 -0.158102 0.095559 0
M  V30 54 H 6.542762 0.119922 -1.949893 0
M  V30 55 H 6.877524 1.325540 -3.966544 0
M  V30 56 H 2.855760 1.684047 -4.748258 0
M  V30 57 H 1.057028 -0.065747 -2.771234 0
M  V30 58 H 1.635949 3.937248 -0.563197 0
M  V30 59 H -0.265333 4.908540 0.535375 0
M  V30 60 H -4.440962 -0.894112 1.206433 0
M  V30 61 H -7.685460 0.038634 -1.812504 0
M  V30 62 H -9.789368 -0.613620 -0.564851 0
M  V30 63 H -8.707141 0.506897 0.390854 0
M  V30 64 H -7.670778 -1.544714 1.386694 0
M  V30 65 H -9.469211 -1.504188 1.758661 0
M  V30 66 H -8.834867 -3.917513 -1.307708 0
M  V30 67 H -9.986487 -2.554509 -1.349287 0
M  V30 68 H -8.308487 -1.859776 -2.759704 0
M  V30 69 H -6.988533 -2.667555 -1.874514 0
M  V30 70 H -6.036987 1.137144 -2.228523 0
M  V30 71 H 2.096795 -0.522318 -0.157771 0
M  V30 72 H 2.396183 -1.569505 -1.652926 0
M  V30 73 H 1.790657 -2.562864 0.741752 0
M  V30 74 H 2.290730 -3.503551 -1.536432 0
M  V30 75 H 2.316133 -4.497292 -0.135242 0
M  V30 76 H 3.822058 -3.429921 1.819493 0
M  V30 77 H 2.648485 -2.306643 3.396164 0
M  V30 78 H 4.435164 -2.338133 3.639215 0
M  V30 79 H 4.429540 0.113866 4.063454 0
M  V30 80 H 2.590202 0.151584 3.828958 0
M  V30 81 H 3.933441 0.675984 7.537120 0
M  V30 82 H 2.163939 0.465625 7.518052 0
M  V30 83 H 3.009890 1.491208 6.237921 0
M  V30 END ATOM
M  V30 BEGIN BOND
M  V30 1 1 1 2
M  V30 2 1 2 3
M  V30 3 1 3 4
M  V30 4 1 4 5
M  V30 5 2 5 6
M  V30 6 1 6 7
M  V30 7 2 7 8
M  V30 8 1 8 9
M  V30 9 2 9 10
M  V30 10 1 10 11
M  V30 11 1 11 12
M  V30 12 2 12 13
M  V30 13 1 12 14
M  V30 14 2 14 15
M  V30 15 1 15 16
M  V30 16 2 16 17
M  V30 17 1 17 18
M  V30 18 1 17 19
M  V30 19 1 19 20
M  V30 20 2 20 21
M  V30 21 1 21 22
M  V30 22 1 21 23
M  V30 23 2 23 24
M  V30 24 1 24 25
M  V30 25 1 25 26
M  V30 26 1 26 27
M  V30 27 1 27 28
M  V30 28 1 28 29
M  V30 29 1 29 30
M  V30 30 1 30 31
M  V30 31 1 24 32
M  V30 32 2 32 33
M  V30 33 1 33 34
M  V30 34 2 19 35
M  V30 35 1 4 36
M  V30 36 1 36 37
M  V30 37 1 37 38
M  V30 38 1 37 39
M  V30 39 1 39 40
M  V30 40 1 40 41
M  V30 41 1 41 42
M  V30 42 1 42 43
M  V30 43 1 43 44
M  V30 44 2 43 45
M  V30 45 2 43 46
M  V30 46 1 39 2
M  V30 47 1 10 5
M  V30 48 1 35 14
M  V30 49 1 33 20
M  V30 50 1 31 26
M  V30 51 1 1 47
M  V30 52 1 1 48
M  V30 53 1 1 49
M  V30 54 1 2 50 CFG=1
M  V30 55 1 3 51
M  V30 56 1 3 52
M  V30 57 1 4 53 CFG=1
M  V30 58 1 6 54
M  V30 59 1 7 55
M  V30 60 1 9 56
M  V30 61 1 11 57
M  V30 62 1 15 58
M  V30 63 1 16 59
M  V30 64 1 23 60
M  V30 65 1 26 61
M  V30 66 1 27 62
M  V30 67 1 27 63
M  V30 68 1 28 64
M  V30 69 1 28 65
M  V30 70 1 30 66
M  V30 71 1 30 67
M  V30 72 1 31 68
M  V30 73 1 31 69
M  V30 74 1 32 70
M  V30 75 1 36 71
M  V30 76 1 36 72
M  V30 77 1 37 73 CFG=1
M  V30 78 1 38 74
M  V30 79 1 38 75
M  V30 80 1 39 76 CFG=1
M  V30 81 1 41 77
M  V30 82 1 41 78
M  V30 83 1 42 79
M  V30 84 1 42 80
M  V30 85 1 44 81
M  V30 86 1 44 82
M  V30 87 1 44 83
M  V30 END BOND
M  V30 END CTAB
M  END
>  <Dataset>  (363) 
ChEMBL_Kinases

>  <Ligand_Instance>  (363) 
nan

>  <PDB_ID>  (363) 
nan

>  <Standardized_SMILES>  (363) 
C[C@H]1C[C@@H](c2ccncc2NC(=O)c2ccc(F)c(-c3c(F)cc(OC4CCOCC4)cc3F)n2)C[C@@H](N)[C@@H]1OCCS(C)(=O)=O

>  <Name>  (363) 
nan

>  <Pocket>  (363) 
nan

>  <ATP_Site>  (363) 
nan

>  <Peripheral>  (363) 
nan

>  <Num_H_Atoms_ProtBoundConf>  (363) 
nan

>  <Num_Resolved_Atoms>  (363) 
nan

>  <Num_Not_Resolved_Atoms>  (363) 
nan

$$$$
CHEMBL3691937
     RDKit          3D

  0  0  0  0  0  0  0  0  0  0999 V3000
M  V30 BEGIN CTAB
M  V30 COUNTS 77 81 0 0 0
M  V30 BEGIN ATOM
M  V30 1 C 2.125409 -2.463739 1.061926 0
M  V30 2 C 1.676794 -2.586168 -0.378152 0 CFG=1
M  V30 3 C 2.052517 -1.282654 -1.087393 0
M  V30 4 C 1.427226 -1.193584 -2.439017 0 CFG=1
M  V30 5 C 2.083731 -0.171552 -3.298684 0
M  V30 6 C 3.014783 -0.653680 -4.200388 0
M  V30 7 C 3.712835 0.164731 -5.095389 0
M  V30 8 N 3.447124 1.503055 -5.060469 0
M  V30 9 C 2.543371 1.935651 -4.177839 0
M  V30 10 C 1.829302 1.182547 -3.277509 0
M  V30 11 N 0.884607 1.672133 -2.350284 0
M  V30 12 C 0.430115 2.978732 -2.147611 0
M  V30 13 O 0.882321 3.917016 -2.858337 0
M  V30 14 C -0.557995 3.380742 -1.152298 0
M  V30 15 C -0.973775 4.681574 -0.988515 0
M  V30 16 C -1.903046 5.080623 -0.056062 0
M  V30 17 C -2.426062 4.073301 0.746942 0
M  V30 18 F -3.346687 4.466524 1.671474 0
M  V30 19 C -2.022666 2.762528 0.598861 0
M  V30 20 C -2.645144 1.798954 1.499086 0
M  V30 21 C -3.821367 1.236133 1.026963 0
M  V30 22 F -4.343616 1.567870 -0.186228 0
M  V30 23 C -4.506986 0.301647 1.798375 0
M  V30 24 C -4.044935 -0.099879 3.058034 0
M  V30 25 C -4.812154 -1.107096 3.851068 0
M  V30 26 F -5.450515 -1.900614 2.883271 0
M  V30 27 C -5.847739 -0.486627 4.718540 0
M  V30 28 C -5.587677 -0.653629 6.210983 0
M  V30 29 O -4.221034 -0.488622 6.420816 0
M  V30 30 C -3.620885 -1.673195 6.007202 0
M  V30 31 C -3.894284 -2.041344 4.589957 0
M  V30 32 C -2.880823 0.476390 3.491689 0
M  V30 33 C -2.190916 1.403684 2.738194 0
M  V30 34 F -1.036458 1.982547 3.154189 0
M  V30 35 N -1.101550 2.433189 -0.340369 0
M  V30 36 C 1.253548 -2.512912 -3.073387 0
M  V30 37 C 1.910080 -3.702930 -2.523453 0 CFG=1
M  V30 38 N 2.960145 -4.250116 -3.376684 0
M  V30 39 C 2.478273 -3.624180 -1.131682 0 CFG=1
M  V30 40 O 3.778459 -3.144604 -1.277131 0
M  V30 41 C 4.723950 -4.010394 -0.744123 0
M  V30 42 C 6.093484 -3.358655 -0.974554 0
M  V30 43 C 6.172431 -2.066026 -0.319059 0
M  V30 44 N 6.248166 -1.054617 0.207967 0
M  V30 45 H 1.296388 -2.129523 1.720537 0
M  V30 46 H 2.477185 -3.435601 1.470881 0
M  V30 47 H 2.905791 -1.658813 1.171933 0
M  V30 48 H 0.602410 -2.773093 -0.346490 0
M  V30 49 H 1.731182 -0.483692 -0.389033 0
M  V30 50 H 3.159653 -1.308811 -1.157720 0
M  V30 51 H 0.395920 -0.783062 -2.262467 0
M  V30 52 H 3.313160 -1.674218 -4.326671 0
M  V30 53 H 4.449475 -0.197443 -5.812554 0
M  V30 54 H 2.406568 2.995480 -4.228222 0
M  V30 55 H 0.405744 1.049906 -1.669091 0
M  V30 56 H -0.556842 5.462998 -1.624192 0
M  V30 57 H -2.185454 6.126573 0.018851 0
M  V30 58 H -5.423748 -0.163261 1.476854 0
M  V30 59 H -6.821434 -0.988658 4.535893 0
M  V30 60 H -6.023875 0.578261 4.459471 0
M  V30 61 H -6.185641 0.058233 6.799757 0
M  V30 62 H -5.818992 -1.717262 6.498826 0
M  V30 63 H -2.529516 -1.640340 6.253100 0
M  V30 64 H -4.003872 -2.517382 6.650166 0
M  V30 65 H -2.895015 -2.027152 4.063520 0
M  V30 66 H -4.214148 -3.116678 4.479909 0
M  V30 67 H -2.463307 0.214017 4.452446 0
M  V30 68 H 0.135999 -2.736300 -3.100185 0
M  V30 69 H 1.468116 -2.503046 -4.179931 0
M  V30 70 H 1.163595 -4.565700 -2.465184 0
M  V30 71 H 2.552084 -4.284845 -4.349041 0
M  V30 72 H 3.132802 -5.218933 -3.093247 0
M  V30 73 H 2.455037 -4.607545 -0.614784 0
M  V30 74 H 4.635145 -4.122851 0.356375 0
M  V30 75 H 4.688934 -4.993560 -1.233287 0
M  V30 76 H 6.865079 -4.056377 -0.597919 0
M  V30 77 H 6.250960 -3.167063 -2.073750 0
M  V30 END ATOM
M  V30 BEGIN BOND
M  V30 1 1 1 2
M  V30 2 1 2 3
M  V30 3 1 3 4
M  V30 4 1 4 5
M  V30 5 2 5 6
M  V30 6 1 6 7
M  V30 7 2 7 8
M  V30 8 1 8 9
M  V30 9 2 9 10
M  V30 10 1 10 11
M  V30 11 1 11 12
M  V30 12 2 12 13
M  V30 13 1 12 14
M  V30 14 2 14 15
M  V30 15 1 15 16
M  V30 16 2 16 17
M  V30 17 1 17 18
M  V30 18 1 17 19
M  V30 19 1 19 20
M  V30 20 2 20 21
M  V30 21 1 21 22
M  V30 22 1 21 23
M  V30 23 2 23 24
M  V30 24 1 24 25
M  V30 25 1 25 26
M  V30 26 1 25 27
M  V30 27 1 27 28
M  V30 28 1 28 29
M  V30 29 1 29 30
M  V30 30 1 30 31
M  V30 31 1 24 32
M  V30 32 2 32 33
M  V30 33 1 33 34
M  V30 34 2 19 35
M  V30 35 1 4 36
M  V30 36 1 36 37
M  V30 37 1 37 38
M  V30 38 1 37 39
M  V30 39 1 39 40
M  V30 40 1 40 41
M  V30 41 1 41 42
M  V30 42 1 42 43
M  V30 43 3 43 44
M  V30 44 1 39 2
M  V30 45 1 10 5
M  V30 46 1 35 14
M  V30 47 1 33 20
M  V30 48 1 31 25
M  V30 49 1 1 45
M  V30 50 1 1 46
M  V30 51 1 1 47
M  V30 52 1 2 48 CFG=1
M  V30 53 1 3 49
M  V30 54 1 3 50
M  V30 55 1 4 51 CFG=1
M  V30 56 1 6 52
M  V30 57 1 7 53
M  V30 58 1 9 54
M  V30 59 1 11 55
M  V30 60 1 15 56
M  V30 61 1 16 57
M  V30 62 1 23 58
M  V30 63 1 27 59
M  V30 64 1 27 60
M  V30 65 1 28 61
M  V30 66 1 28 62
M  V30 67 1 30 63
M  V30 68 1 30 64
M  V30 69 1 31 65
M  V30 70 1 31 66
M  V30 71 1 32 67
M  V30 72 1 36 68
M  V30 73 1 36 69
M  V30 74 1 37 70 CFG=1
M  V30 75 1 38 71
M  V30 76 1 38 72
M  V30 77 1 39 73 CFG=1
M  V30 78 1 41 74
M  V30 79 1 41 75
M  V30 80 1 42 76
M  V30 81 1 42 77
M  V30 END BOND
M  V30 END CTAB
M  END
>  <Dataset>  (364) 
ChEMBL_Kinases

>  <Ligand_Instance>  (364) 
nan

>  <PDB_ID>  (364) 
nan

>  <Standardized_SMILES>  (364) 
C[C@H]1C[C@@H](c2ccncc2NC(=O)c2ccc(F)c(-c3c(F)cc(C4(F)CCOCC4)cc3F)n2)C[C@@H](N)[C@H]1OCCC#N

>  <Name>  (364) 
nan

>  <Pocket>  (364) 
nan

>  <ATP_Site>  (364) 
nan

>  <Peripheral>  (364) 
nan

>  <Num_H_Atoms_ProtBoundConf>  (364) 
nan

>  <Num_Resolved_Atoms>  (364) 
nan

>  <Num_Not_Resolved_Atoms>  (364) 
nan

$$$$
CHEMBL3691936
     RDKit          3D

  0  0  0  0  0  0  0  0  0  0999 V3000
M  V30 BEGIN CTAB
M  V30 COUNTS 65 69 0 0 0
M  V30 BEGIN ATOM
M  V30 1 C 3.291074 -1.098631 3.282089 0
M  V30 2 C 2.196974 -0.400549 2.558111 0 CFG=1
M  V30 3 C 2.447050 -0.637525 1.059856 0
M  V30 4 C 1.524762 -1.670237 0.473067 0 CFG=1
M  V30 5 C 2.132087 -2.164175 -0.788307 0
M  V30 6 C 3.018031 -3.204030 -0.903080 0
M  V30 7 C 3.555186 -3.626555 -2.094126 0
M  V30 8 N 3.216262 -3.006752 -3.247857 0
M  V30 9 C 2.339642 -1.966526 -3.195047 0
M  V30 10 C 1.809983 -1.552528 -2.006086 0
M  V30 11 N 0.906551 -0.458628 -2.097751 0
M  V30 12 C 0.939722 0.958967 -2.067992 0
M  V30 13 O 2.022847 1.593360 -1.923390 0
M  V30 14 C -0.367971 1.585504 -2.217434 0
M  V30 15 C -0.384222 2.943716 -2.195663 0
M  V30 16 C -1.559149 3.653055 -2.327824 0
M  V30 17 C -2.755923 2.987890 -2.486683 0
M  V30 18 F -3.993713 3.515534 -2.629742 0
M  V30 19 C -2.706367 1.608633 -2.504711 0
M  V30 20 C -3.827945 0.672328 -2.659053 0
M  V30 21 C -4.564986 0.154046 -1.613793 0
M  V30 22 F -4.219940 0.544594 -0.356548 0
M  V30 23 C -5.605342 -0.720809 -1.829228 0
M  V30 24 C -5.928357 -1.096327 -3.122035 0
M  V30 25 C -5.183361 -0.571763 -4.170348 0
M  V30 26 C -4.124079 0.316810 -3.977175 0
M  V30 27 F -3.466097 0.766008 -5.068804 0
M  V30 28 N -1.542151 0.948325 -2.373037 0
M  V30 29 C 1.319327 -2.800813 1.420037 0
M  V30 30 C 0.598808 -2.294647 2.654995 0 CFG=1
M  V30 31 N 1.066417 -3.074438 3.765287 0
M  V30 32 C 0.814850 -0.794385 2.841894 0 CFG=1
M  V30 33 N 0.158937 -0.334464 4.008274 0
M  V30 34 C -1.152403 -0.658351 4.065382 0
M  V30 35 C -1.903472 -0.256761 5.172294 0
M  V30 36 C -1.377967 0.461010 6.225270 0
M  V30 37 C -0.051308 0.776543 6.145292 0
M  V30 38 C 0.659331 0.364911 5.039977 0
M  V30 39 O 1.880978 0.649492 4.955336 0
M  V30 40 H 4.060322 -0.351179 3.622858 0
M  V30 41 H 3.895329 -1.786887 2.618995 0
M  V30 42 H 3.021825 -1.714679 4.139431 0
M  V30 43 H 2.262744 0.723993 2.653585 0
M  V30 44 H 3.487354 -1.010560 0.872446 0
M  V30 45 H 2.360347 0.272341 0.455543 0
M  V30 46 H 0.541068 -1.221966 0.171886 0
M  V30 47 H 3.311119 -3.718321 -0.018936 0
M  V30 48 H 4.258874 -4.462969 -2.128976 0
M  V30 49 H 2.099974 -1.502501 -4.149581 0
M  V30 50 H 0.011733 -1.020823 -2.218390 0
M  V30 51 H 0.524230 3.526712 -2.073676 0
M  V30 52 H -1.639018 4.733531 -2.318724 0
M  V30 53 H -6.179139 -1.124878 -1.021455 0
M  V30 54 H -6.748721 -1.788604 -3.320588 0
M  V30 55 H -5.463665 -0.887486 -5.172554 0
M  V30 56 H 0.719474 -3.575656 0.871771 0
M  V30 57 H 2.275656 -3.268724 1.664107 0
M  V30 58 H -0.464317 -2.560181 2.499514 0
M  V30 59 H 1.274447 -4.028818 3.432248 0
M  V30 60 H 0.534311 -2.981783 4.633130 0
M  V30 61 H 0.205249 -0.362843 1.987283 0
M  V30 62 H -1.744717 -1.215093 3.339760 0
M  V30 63 H -2.975329 -0.494051 5.269333 0
M  V30 64 H -1.970128 0.766071 7.076878 0
M  V30 65 H 0.475850 1.335714 6.907454 0
M  V30 END ATOM
M  V30 BEGIN BOND
M  V30 1 1 1 2
M  V30 2 1 2 3
M  V30 3 1 3 4
M  V30 4 1 4 5
M  V30 5 2 5 6
M  V30 6 1 6 7
M  V30 7 2 7 8
M  V30 8 1 8 9
M  V30 9 2 9 10
M  V30 10 1 10 11
M  V30 11 1 11 12
M  V30 12 2 12 13
M  V30 13 1 12 14
M  V30 14 2 14 15
M  V30 15 1 15 16
M  V30 16 2 16 17
M  V30 17 1 17 18
M  V30 18 1 17 19
M  V30 19 1 19 20
M  V30 20 2 20 21
M  V30 21 1 21 22
M  V30 22 1 21 23
M  V30 23 2 23 24
M  V30 24 1 24 25
M  V30 25 2 25 26
M  V30 26 1 26 27
M  V30 27 2 19 28
M  V30 28 1 4 29
M  V30 29 1 29 30
M  V30 30 1 30 31
M  V30 31 1 30 32
M  V30 32 1 32 33
M  V30 33 1 33 34
M  V30 34 2 34 35
M  V30 35 1 35 36
M  V30 36 2 36 37
M  V30 37 1 37 38
M  V30 38 2 38 39
M  V30 39 1 32 2
M  V30 40 1 38 33
M  V30 41 1 10 5
M  V30 42 1 28 14
M  V30 43 1 26 20
M  V30 44 1 1 40
M  V30 45 1 1 41
M  V30 46 1 1 42
M  V30 47 1 2 43 CFG=3
M  V30 48 1 3 44
M  V30 49 1 3 45
M  V30 50 1 4 46 CFG=3
M  V30 51 1 6 47
M  V30 52 1 7 48
M  V30 53 1 9 49
M  V30 54 1 11 50
M  V30 55 1 15 51
M  V30 56 1 16 52
M  V30 57 1 23 53
M  V30 58 1 24 54
M  V30 59 1 25 55
M  V30 60 1 29 56
M  V30 61 1 29 57
M  V30 62 1 30 58 CFG=3
M  V30 63 1 31 59
M  V30 64 1 31 60
M  V30 65 1 32 61 CFG=3
M  V30 66 1 34 62
M  V30 67 1 35 63
M  V30 68 1 36 64
M  V30 69 1 37 65
M  V30 END BOND
M  V30 END CTAB
M  END
>  <Dataset>  (365) 
ChEMBL_Kinases

>  <Ligand_Instance>  (365) 
nan

>  <PDB_ID>  (365) 
nan

>  <Standardized_SMILES>  (365) 
C[C@H]1C[C@@H](c2ccncc2NC(=O)c2ccc(F)c(-c3c(F)cccc3F)n2)C[C@@H](N)[C@H]1n1ccccc1=O

>  <Name>  (365) 
nan

>  <Pocket>  (365) 
nan

>  <ATP_Site>  (365) 
nan

>  <Peripheral>  (365) 
nan

>  <Num_H_Atoms_ProtBoundConf>  (365) 
nan

>  <Num_Resolved_Atoms>  (365) 
nan

>  <Num_Not_Resolved_Atoms>  (365) 
nan

$$$$
CHEMBL4452978
     RDKit          3D

  0  0  0  0  0  0  0  0  0  0999 V3000
M  V30 BEGIN CTAB
M  V30 COUNTS 32 34 0 0 0
M  V30 BEGIN ATOM
M  V30 1 O 2.490939 -0.934837 1.741961 0
M  V30 2 C 3.081365 -2.041763 1.768753 0
M  V30 3 N 3.936790 -2.513019 2.791118 0
M  V30 4 C 4.397262 -3.794595 2.450094 0
M  V30 5 S 5.412092 -4.727642 3.345464 0
M  V30 6 N 3.867549 -4.228018 1.185480 0
M  V30 7 C 3.060428 -3.138922 0.779665 0
M  V30 8 C 2.331229 -3.023324 -0.323310 0
M  V30 9 C 1.480005 -1.936435 -0.779103 0
M  V30 10 C 1.387822 -1.268916 -2.003300 0
M  V30 11 C 0.370284 -0.335210 -1.790697 0
M  V30 12 C -0.086365 -0.476451 -0.503249 0
M  V30 13 C -1.155383 0.304126 0.127200 0
M  V30 14 C -1.597801 0.006587 1.398161 0
M  V30 15 C -2.613745 0.758117 1.998444 0
M  V30 16 C -3.126961 1.791831 1.250284 0
M  V30 17 C -4.188996 2.554963 1.897023 0
M  V30 18 O -4.574870 2.231007 3.043272 0
M  V30 19 O -4.954325 3.636853 1.556533 0
M  V30 20 C -2.719907 2.129018 -0.019214 0
M  V30 21 C -1.718070 1.356926 -0.563437 0
M  V30 22 O 0.597006 -1.441432 0.080572 0
M  V30 23 H 4.182751 -1.969564 3.672653 0
M  V30 24 H 3.982672 -5.095573 0.623640 0
M  V30 25 H 2.329468 -3.850784 -1.038459 0
M  V30 26 H 2.025374 -1.519849 -2.848713 0
M  V30 27 H 0.064037 0.349094 -2.576295 0
M  V30 28 H -1.157104 -0.819353 1.933721 0
M  V30 29 H -2.926987 0.495343 2.977611 0
M  V30 30 H -5.942041 3.620873 1.317057 0
M  V30 31 H -3.176035 2.958491 -0.540254 0
M  V30 32 H -1.360597 1.578159 -1.545299 0
M  V30 END ATOM
M  V30 BEGIN BOND
M  V30 1 2 1 2
M  V30 2 1 2 3
M  V30 3 1 3 4
M  V30 4 2 4 5
M  V30 5 1 4 6
M  V30 6 1 6 7
M  V30 7 2 7 8
M  V30 8 1 8 9
M  V30 9 2 9 10
M  V30 10 1 10 11
M  V30 11 2 11 12
M  V30 12 1 12 13
M  V30 13 2 13 14
M  V30 14 1 14 15
M  V30 15 2 15 16
M  V30 16 1 16 17
M  V30 17 2 17 18
M  V30 18 1 17 19
M  V30 19 1 16 20
M  V30 20 2 20 21
M  V30 21 1 12 22
M  V30 22 1 7 2
M  V30 23 1 22 9
M  V30 24 1 21 13
M  V30 25 1 3 23
M  V30 26 1 6 24
M  V30 27 1 8 25
M  V30 28 1 10 26
M  V30 29 1 11 27
M  V30 30 1 14 28
M  V30 31 1 15 29
M  V30 32 1 19 30
M  V30 33 1 20 31
M  V30 34 1 21 32
M  V30 END BOND
M  V30 END CTAB
M  END
>  <Dataset>  (366) 
ChEMBL_Kinases

>  <Ligand_Instance>  (366) 
nan

>  <PDB_ID>  (366) 
nan

>  <Standardized_SMILES>  (366) 
O=C1NC(=S)N/C1=C/c1ccc(-c2ccc(C(=O)O)cc2)o1

>  <Name>  (366) 
nan

>  <Pocket>  (366) 
nan

>  <ATP_Site>  (366) 
nan

>  <Peripheral>  (366) 
nan

>  <Num_H_Atoms_ProtBoundConf>  (366) 
nan

>  <Num_Resolved_Atoms>  (366) 
nan

>  <Num_Not_Resolved_Atoms>  (366) 
nan

$$$$
CHEMBL3691935
     RDKit          3D

  0  0  0  0  0  0  0  0  0  0999 V3000
M  V30 BEGIN CTAB
M  V30 COUNTS 74 79 0 0 0
M  V30 BEGIN ATOM
M  V30 1 C 2.764433 -3.819972 0.420783 0
M  V30 2 C 2.134548 -2.571472 -0.153300 0 CFG=1
M  V30 3 C 2.616053 -2.296984 -1.528977 0
M  V30 4 N 1.765436 -2.846193 -2.589058 0
M  V30 5 C 1.911381 -2.394791 -3.928600 0
M  V30 6 C 2.500410 -3.390887 -4.719221 0
M  V30 7 C 2.779951 -3.179121 -6.053552 0
M  V30 8 N 2.468110 -1.977196 -6.579318 0
M  V30 9 C 1.909876 -1.062135 -5.792195 0
M  V30 10 C 1.597303 -1.185673 -4.461685 0
M  V30 11 N 0.997315 -0.228003 -3.623179 0
M  V30 12 C 0.622469 1.106742 -3.925860 0
M  V30 13 O 0.831158 1.554170 -5.079871 0
M  V30 14 C -0.001654 2.002822 -2.957354 0
M  V30 15 C -0.334780 3.292815 -3.309510 0
M  V30 16 C -0.927000 4.217549 -2.478493 0
M  V30 17 C -1.220785 3.848560 -1.184138 0
M  V30 18 F -1.799894 4.647620 -0.258994 0
M  V30 19 C -0.886443 2.562009 -0.840879 0
M  V30 20 C -1.115676 1.980692 0.472152 0
M  V30 21 C -2.368420 1.359269 0.537963 0
M  V30 22 F -3.267425 1.299151 -0.483940 0
M  V30 23 C -2.790343 0.741641 1.697408 0
M  V30 24 C -1.982985 0.718335 2.835123 0
M  V30 25 C -2.455206 0.057130 4.051302 0
M  V30 26 F -2.721929 -1.268306 3.712510 0
M  V30 27 C -1.484965 0.086257 5.204166 0
M  V30 28 C -1.673913 1.305247 6.092769 0
M  V30 29 O -2.293580 2.347388 5.384537 0
M  V30 30 C -3.617679 2.028402 5.111887 0
M  V30 31 C -3.767081 0.650929 4.516724 0
M  V30 32 C -0.756713 1.340888 2.730954 0
M  V30 33 C -0.324624 1.960734 1.578824 0
M  V30 34 F 0.859176 2.583835 1.413698 0
M  V30 35 N -0.308066 1.680628 -1.675110 0
M  V30 36 C 0.819842 -3.842454 -2.133182 0
M  V30 37 C -0.085142 -3.372149 -1.028765 0 CFG=1
M  V30 38 N -0.673411 -4.561621 -0.439046 0
M  V30 39 C 0.651254 -2.531563 -0.042680 0 CFG=1
M  V30 40 N 0.199219 -2.886539 1.291926 0
M  V30 41 C 0.866377 -2.191517 2.260073 0
M  V30 42 C 0.357026 -2.606701 3.496286 0
M  V30 43 N -0.586990 -3.526725 3.200280 0
M  V30 44 N -0.676734 -3.689258 1.889511 0
M  V30 45 H 3.551107 -3.611091 1.172742 0
M  V30 46 H 2.043083 -4.511198 0.861051 0
M  V30 47 H 3.310165 -4.330571 -0.419300 0
M  V30 48 H 2.517654 -1.727945 0.494434 0
M  V30 49 H 2.792449 -1.237934 -1.772892 0
M  V30 50 H 3.631899 -2.801726 -1.610390 0
M  V30 51 H 2.781089 -4.372764 -4.385692 0
M  V30 52 H 3.237870 -3.934931 -6.696747 0
M  V30 53 H 1.695960 -0.135738 -6.296921 0
M  V30 54 H 0.758487 -0.456486 -2.637870 0
M  V30 55 H -0.138348 3.674401 -4.319986 0
M  V30 56 H -1.173014 5.221569 -2.792080 0
M  V30 57 H -3.769029 0.245692 1.770343 0
M  V30 58 H -0.440122 -0.103488 4.931056 0
M  V30 59 H -1.770849 -0.797090 5.850409 0
M  V30 60 H -0.753780 1.652164 6.562656 0
M  V30 61 H -2.403054 1.076787 6.925877 0
M  V30 62 H -3.996669 2.809474 4.414446 0
M  V30 63 H -4.193713 2.133416 6.055297 0
M  V30 64 H -4.428751 0.726275 3.629184 0
M  V30 65 H -4.305342 -0.054248 5.204085 0
M  V30 66 H -0.084288 1.362061 3.569626 0
M  V30 67 H 0.174566 -4.159620 -2.979204 0
M  V30 68 H 1.408892 -4.730903 -1.831955 0
M  V30 69 H -0.942267 -2.785678 -1.427394 0
M  V30 70 H -0.737431 -5.308959 -1.196179 0
M  V30 71 H -1.660187 -4.379550 -0.155018 0
M  V30 72 H 0.353163 -1.464933 -0.205411 0
M  V30 73 H 1.648836 -1.440239 2.319878 0
M  V30 74 H 0.597942 -2.315505 4.525449 0
M  V30 END ATOM
M  V30 BEGIN BOND
M  V30 1 1 1 2
M  V30 2 1 2 3
M  V30 3 1 3 4
M  V30 4 1 4 5
M  V30 5 2 5 6
M  V30 6 1 6 7
M  V30 7 2 7 8
M  V30 8 1 8 9
M  V30 9 2 9 10
M  V30 10 1 10 11
M  V30 11 1 11 12
M  V30 12 2 12 13
M  V30 13 1 12 14
M  V30 14 2 14 15
M  V30 15 1 15 16
M  V30 16 2 16 17
M  V30 17 1 17 18
M  V30 18 1 17 19
M  V30 19 1 19 20
M  V30 20 2 20 21
M  V30 21 1 21 22
M  V30 22 1 21 23
M  V30 23 2 23 24
M  V30 24 1 24 25
M  V30 25 1 25 26
M  V30 26 1 25 27
M  V30 27 1 27 28
M  V30 28 1 28 29
M  V30 29 1 29 30
M  V30 30 1 30 31
M  V30 31 1 24 32
M  V30 32 2 32 33
M  V30 33 1 33 34
M  V30 34 2 19 35
M  V30 35 1 4 36
M  V30 36 1 36 37
M  V30 37 1 37 38
M  V30 38 1 37 39
M  V30 39 1 39 40
M  V30 40 1 40 41
M  V30 41 2 41 42
M  V30 42 1 42 43
M  V30 43 2 43 44
M  V30 44 1 39 2
M  V30 45 1 44 40
M  V30 46 1 10 5
M  V30 47 1 35 14
M  V30 48 1 33 20
M  V30 49 1 31 25
M  V30 50 1 1 45
M  V30 51 1 1 46
M  V30 52 1 1 47
M  V30 53 1 2 48 CFG=1
M  V30 54 1 3 49
M  V30 55 1 3 50
M  V30 56 1 6 51
M  V30 57 1 7 52
M  V30 58 1 9 53
M  V30 59 1 11 54
M  V30 60 1 15 55
M  V30 61 1 16 56
M  V30 62 1 23 57
M  V30 63 1 27 58
M  V30 64 1 27 59
M  V30 65 1 28 60
M  V30 66 1 28 61
M  V30 67 1 30 62
M  V30 68 1 30 63
M  V30 69 1 31 64
M  V30 70 1 31 65
M  V30 71 1 32 66
M  V30 72 1 36 67
M  V30 73 1 36 68
M  V30 74 1 37 69 CFG=3
M  V30 75 1 38 70
M  V30 76 1 38 71
M  V30 77 1 39 72 CFG=3
M  V30 78 1 41 73
M  V30 79 1 42 74
M  V30 END BOND
M  V30 END CTAB
M  END
>  <Dataset>  (367) 
ChEMBL_Kinases

>  <Ligand_Instance>  (367) 
nan

>  <PDB_ID>  (367) 
nan

>  <Standardized_SMILES>  (367) 
C[C@H]1CN(c2ccncc2NC(=O)c2ccc(F)c(-c3c(F)cc(C4(F)CCOCC4)cc3F)n2)C[C@@H](N)[C@H]1n1ccnn1

>  <Name>  (367) 
nan

>  <Pocket>  (367) 
nan

>  <ATP_Site>  (367) 
nan

>  <Peripheral>  (367) 
nan

>  <Num_H_Atoms_ProtBoundConf>  (367) 
nan

>  <Num_Resolved_Atoms>  (367) 
nan

>  <Num_Not_Resolved_Atoms>  (367) 
nan

$$$$
CHEMBL3702114
     RDKit          3D

  0  0  0  0  0  0  0  0  0  0999 V3000
M  V30 BEGIN CTAB
M  V30 COUNTS 60 65 0 0 0
M  V30 BEGIN ATOM
M  V30 1 C 1.056059 -2.787918 7.066098 0
M  V30 2 C 1.801839 -2.163040 6.092025 0
M  V30 3 C 1.514868 -2.361726 4.749070 0
M  V30 4 C 2.028848 -1.918624 3.572607 0
M  V30 5 C 3.078747 -1.066359 3.303767 0
M  V30 6 N 3.354597 -0.812592 2.012617 0
M  V30 7 C 2.627685 -1.373408 1.012759 0
M  V30 8 N 2.844601 -1.164365 -0.375017 0
M  V30 9 C 2.159154 -0.005812 -0.894998 0
M  V30 10 C 1.382914 0.795665 -0.082350 0
M  V30 11 C 0.721523 1.912379 -0.558580 0
M  V30 12 C 0.826741 2.264395 -1.909662 0
M  V30 13 C 0.116581 3.471990 -2.402025 0
M  V30 14 N -1.183616 3.113068 -2.821598 0
M  V30 15 C -1.954921 2.515791 -1.765460 0
M  V30 16 C -3.339997 2.272578 -2.381052 0
M  V30 17 N -3.217882 1.132936 -3.234824 0
M  V30 18 C -1.957057 1.130258 -3.904301 0
M  V30 19 C -1.362504 2.529814 -4.092015 0
M  V30 20 C 1.611788 1.436240 -2.685367 0
M  V30 21 N 2.251517 0.350723 -2.210490 0
M  V30 22 N 1.614714 -2.196727 1.305672 0
M  V30 23 C 1.270050 -2.505421 2.567215 0
M  V30 24 N 0.304515 -3.296381 3.060841 0
M  V30 25 C -0.691692 -4.091891 2.403095 0
M  V30 26 C -1.830927 -3.351535 1.809627 0
M  V30 27 C -1.463264 -3.054669 0.399054 0
M  V30 28 C -0.614707 -4.235876 -0.005303 0
M  V30 29 C -0.147712 -4.899225 1.259645 0
M  V30 30 C 0.460276 -3.203681 4.413230 0
M  V30 31 C -0.279887 -3.825001 5.427303 0
M  V30 32 N 0.025578 -3.610869 6.742118 0
M  V30 33 H 1.373766 -2.555961 8.076599 0
M  V30 34 H 2.629875 -1.500227 6.270641 0
M  V30 35 H 3.662950 -0.614768 4.080111 0
M  V30 36 H 3.412157 -1.712668 -1.051981 0
M  V30 37 H 1.266600 0.568235 0.977573 0
M  V30 38 H 0.122573 2.521349 0.094106 0
M  V30 39 H 0.711636 4.025627 -3.154902 0
M  V30 40 H 0.017874 4.162170 -1.517992 0
M  V30 41 H -2.046942 3.144870 -0.874791 0
M  V30 42 H -1.490385 1.516705 -1.545030 0
M  V30 43 H -3.607824 3.153988 -3.031291 0
M  V30 44 H -4.102792 2.188471 -1.584984 0
M  V30 45 H -4.035026 1.001137 -3.872685 0
M  V30 46 H -1.231699 0.553041 -3.319554 0
M  V30 47 H -2.098052 0.718218 -4.925180 0
M  V30 48 H -1.980122 3.123863 -4.797810 0
M  V30 49 H -0.383321 2.380150 -4.586333 0
M  V30 50 H 1.724277 1.667268 -3.729768 0
M  V30 51 H -1.142825 -4.828644 3.136304 0
M  V30 52 H -2.732234 -4.024581 1.778413 0
M  V30 53 H -2.148829 -2.460443 2.387127 0
M  V30 54 H -2.400261 -3.021923 -0.238101 0
M  V30 55 H -0.964010 -2.075601 0.262931 0
M  V30 56 H -1.202884 -4.964387 -0.618092 0
M  V30 57 H 0.242094 -3.944571 -0.652933 0
M  V30 58 H -0.511099 -5.943562 1.293173 0
M  V30 59 H 0.977609 -4.929655 1.279818 0
M  V30 60 H -1.114862 -4.493788 5.255802 0
M  V30 END ATOM
M  V30 BEGIN BOND
M  V30 1 2 1 2
M  V30 2 1 2 3
M  V30 3 1 3 4
M  V30 4 2 4 5
M  V30 5 1 5 6
M  V30 6 2 6 7
M  V30 7 1 7 8
M  V30 8 1 8 9
M  V30 9 2 9 10
M  V30 10 1 10 11
M  V30 11 2 11 12
M  V30 12 1 12 13
M  V30 13 1 13 14
M  V30 14 1 14 15
M  V30 15 1 15 16
M  V30 16 1 16 17
M  V30 17 1 17 18
M  V30 18 1 18 19
M  V30 19 1 12 20
M  V30 20 2 20 21
M  V30 21 1 7 22
M  V30 22 2 22 23
M  V30 23 1 23 24
M  V30 24 1 24 25
M  V30 25 1 25 26
M  V30 26 1 26 27
M  V30 27 1 27 28
M  V30 28 1 28 29
M  V30 29 1 24 30
M  V30 30 1 30 31
M  V30 31 2 31 32
M  V30 32 1 32 1
M  V30 33 2 30 3
M  V30 34 1 23 4
M  V30 35 1 29 25
M  V30 36 1 21 9
M  V30 37 1 19 14
M  V30 38 1 1 33
M  V30 39 1 2 34
M  V30 40 1 5 35
M  V30 41 1 8 36
M  V30 42 1 10 37
M  V30 43 1 11 38
M  V30 44 1 13 39
M  V30 45 1 13 40
M  V30 46 1 15 41
M  V30 47 1 15 42
M  V30 48 1 16 43
M  V30 49 1 16 44
M  V30 50 1 17 45
M  V30 51 1 18 46
M  V30 52 1 18 47
M  V30 53 1 19 48
M  V30 54 1 19 49
M  V30 55 1 20 50
M  V30 56 1 25 51
M  V30 57 1 26 52
M  V30 58 1 26 53
M  V30 59 1 27 54
M  V30 60 1 27 55
M  V30 61 1 28 56
M  V30 62 1 28 57
M  V30 63 1 29 58
M  V30 64 1 29 59
M  V30 65 1 31 60
M  V30 END BOND
M  V30 END CTAB
M  END
>  <Dataset>  (368) 
ChEMBL_Kinases

>  <Ligand_Instance>  (368) 
nan

>  <PDB_ID>  (368) 
nan

>  <Standardized_SMILES>  (368) 
c1cc2c3cnc(Nc4ccc(CN5CCNCC5)cn4)nc3n(C3CCCC3)c2cn1

>  <Name>  (368) 
nan

>  <Pocket>  (368) 
nan

>  <ATP_Site>  (368) 
nan

>  <Peripheral>  (368) 
nan

>  <Num_H_Atoms_ProtBoundConf>  (368) 
nan

>  <Num_Resolved_Atoms>  (368) 
nan

>  <Num_Not_Resolved_Atoms>  (368) 
nan

$$$$
CHEMBL2420565
     RDKit          3D

  0  0  0  0  0  0  0  0  0  0999 V3000
M  V30 BEGIN CTAB
M  V30 COUNTS 65 69 0 0 0
M  V30 BEGIN ATOM
M  V30 1 C 2.579283 -0.625981 4.501305 0
M  V30 2 C 3.889962 -0.006437 4.830807 0
M  V30 3 C 4.836574 0.206070 3.713957 0
M  V30 4 C 4.427026 1.101970 2.601091 0 CFG=1
M  V30 5 N 3.259089 0.687742 1.912220 0
M  V30 6 C 3.355367 0.274555 0.532024 0
M  V30 7 O 4.481145 0.296026 -0.018652 0
M  V30 8 C 2.224600 -0.171933 -0.277064 0
M  V30 9 C 2.478267 -0.490808 -1.592339 0
M  V30 10 C 1.440980 -0.925418 -2.427098 0
M  V30 11 C 0.145166 -1.051041 -1.975219 0
M  V30 12 N -0.882855 -1.464721 -2.745782 0
M  V30 13 C -2.148032 -1.576596 -2.268166 0
M  V30 14 N -3.222197 -1.990139 -3.119782 0
M  V30 15 C -4.559806 -2.171532 -2.655801 0 CFG=1
M  V30 16 C -5.535370 -2.359352 -3.825235 0
M  V30 17 C -6.781522 -3.043386 -3.288639 0
M  V30 18 C -6.494210 -4.508516 -2.999594 0 CFG=2
M  V30 19 O -7.302478 -5.029866 -1.995428 0
M  V30 20 C -5.027290 -4.640776 -2.617104 0
M  V30 21 C -4.569793 -3.436956 -1.816137 0
M  V30 22 C -2.394304 -1.253988 -0.939212 0
M  V30 23 N -3.474903 -1.236768 -0.148638 0
M  V30 24 C -3.164909 -0.826922 1.091515 0
M  V30 25 C -1.808165 -0.572100 1.075890 0
M  V30 26 N -1.362542 -0.841866 -0.179104 0
M  V30 27 C -0.104442 -0.728670 -0.648378 0
M  V30 28 C 0.926179 -0.300527 0.165761 0
M  V30 29 C 4.351845 2.537085 3.057293 0
M  V30 30 C 3.184099 2.986819 3.642800 0
M  V30 31 C 2.948756 4.279463 4.121125 0
M  V30 32 C 4.006756 5.171198 3.980192 0
M  V30 33 C 5.181842 4.757430 3.401763 0
M  V30 34 C 5.365045 3.468831 2.944883 0
M  V30 35 H 2.606051 -1.264880 3.604017 0
M  V30 36 H 1.723971 0.083620 4.463854 0
M  V30 37 H 2.303032 -1.300125 5.376797 0
M  V30 38 H 4.436403 -0.664661 5.577363 0
M  V30 39 H 3.686467 0.916139 5.426721 0
M  V30 40 H 5.028616 -0.809139 3.251758 0
M  V30 41 H 5.792308 0.609565 4.125128 0
M  V30 42 H 5.328517 1.121548 1.904345 0
M  V30 43 H 2.278379 0.634748 2.243318 0
M  V30 44 H 3.456164 -0.436415 -2.068077 0
M  V30 45 H 1.655374 -1.176445 -3.471665 0
M  V30 46 H -3.007219 -2.164887 -4.125305 0
M  V30 47 H -4.884538 -1.269115 -2.112097 0
M  V30 48 H -5.108975 -2.980793 -4.629509 0
M  V30 49 H -5.840020 -1.361866 -4.176902 0
M  V30 50 H -7.568779 -2.965483 -4.062543 0
M  V30 51 H -7.091430 -2.588178 -2.325557 0
M  V30 52 H -6.650426 -5.090982 -3.929860 0
M  V30 53 H -6.944675 -4.829855 -1.084536 0
M  V30 54 H -4.922855 -5.512143 -1.961764 0
M  V30 55 H -4.427648 -4.666308 -3.539723 0
M  V30 56 H -5.225417 -3.250240 -0.947734 0
M  V30 57 H -3.535190 -3.670781 -1.482181 0
M  V30 58 H -3.865482 -0.729806 1.912995 0
M  V30 59 H -1.322732 -0.222686 1.976434 0
M  V30 60 H 0.705425 -0.056087 1.191532 0
M  V30 61 H 2.385050 2.268892 3.735000 0
M  V30 62 H 1.968375 4.486548 4.561764 0
M  V30 63 H 3.833362 6.185327 4.349746 0
M  V30 64 H 6.000237 5.466479 3.299703 0
M  V30 65 H 6.277428 3.117317 2.486517 0
M  V30 END ATOM
M  V30 BEGIN BOND
M  V30 1 1 1 2
M  V30 2 1 2 3
M  V30 3 1 3 4
M  V30 4 1 4 5
M  V30 5 1 5 6
M  V30 6 2 6 7
M  V30 7 1 6 8
M  V30 8 2 8 9
M  V30 9 1 9 10
M  V30 10 2 10 11
M  V30 11 1 11 12
M  V30 12 2 12 13
M  V30 13 1 13 14
M  V30 14 1 14 15
M  V30 15 1 15 16
M  V30 16 1 16 17
M  V30 17 1 17 18
M  V30 18 1 18 19
M  V30 19 1 18 20
M  V30 20 1 20 21
M  V30 21 1 13 22
M  V30 22 2 22 23
M  V30 23 1 23 24
M  V30 24 2 24 25
M  V30 25 1 25 26
M  V30 26 1 26 27
M  V30 27 2 27 28
M  V30 28 1 4 29
M  V30 29 2 29 30
M  V30 30 1 30 31
M  V30 31 2 31 32
M  V30 32 1 32 33
M  V30 33 2 33 34
M  V30 34 1 28 8
M  V30 35 1 34 29
M  V30 36 1 27 11
M  V30 37 1 21 15
M  V30 38 1 26 22
M  V30 39 1 1 35
M  V30 40 1 1 36
M  V30 41 1 1 37
M  V30 42 1 2 38
M  V30 43 1 2 39
M  V30 44 1 3 40
M  V30 45 1 3 41
M  V30 46 1 4 42 CFG=3
M  V30 47 1 5 43
M  V30 48 1 9 44
M  V30 49 1 10 45
M  V30 50 1 14 46
M  V30 51 1 15 47 CFG=1
M  V30 52 1 16 48
M  V30 53 1 16 49
M  V30 54 1 17 50
M  V30 55 1 17 51
M  V30 56 1 18 52 CFG=3
M  V30 57 1 19 53
M  V30 58 1 20 54
M  V30 59 1 20 55
M  V30 60 1 21 56
M  V30 61 1 21 57
M  V30 62 1 24 58
M  V30 63 1 25 59
M  V30 64 1 28 60
M  V30 65 1 30 61
M  V30 66 1 31 62
M  V30 67 1 32 63
M  V30 68 1 33 64
M  V30 69 1 34 65
M  V30 END BOND
M  V30 END CTAB
M  END
>  <Dataset>  (369) 
ChEMBL_Kinases

>  <Ligand_Instance>  (369) 
nan

>  <PDB_ID>  (369) 
nan

>  <Standardized_SMILES>  (369) 
CCC[C@@H](NC(=O)c1ccc2nc(N[C@H]3CC[C@H](O)CC3)c3nccn3c2c1)c1ccccc1

>  <Name>  (369) 
nan

>  <Pocket>  (369) 
nan

>  <ATP_Site>  (369) 
nan

>  <Peripheral>  (369) 
nan

>  <Num_H_Atoms_ProtBoundConf>  (369) 
nan

>  <Num_Resolved_Atoms>  (369) 
nan

>  <Num_Not_Resolved_Atoms>  (369) 
nan

$$$$
CHEMBL3691933
     RDKit          3D

  0  0  0  0  0  0  0  0  0  0999 V3000
M  V30 BEGIN CTAB
M  V30 COUNTS 73 76 0 0 0
M  V30 BEGIN ATOM
M  V30 1 C 5.734381 -1.143313 1.750060 0
M  V30 2 O 4.526037 -1.193726 1.011305 0
M  V30 3 C 4.430558 -0.911526 -0.324400 0
M  V30 4 O 5.373385 -0.572888 -1.084959 0
M  V30 5 N 3.125279 -1.033358 -0.819918 0
M  V30 6 C 2.685911 -0.800966 -2.204729 0 CFG=2
M  V30 7 C 1.731198 0.344648 -2.177875 0 CFG=2
M  V30 8 N 0.951815 0.464811 -0.973670 0
M  V30 9 C 0.915920 0.402551 -3.427136 0
M  V30 10 C 0.328066 -0.944722 -3.836360 0 CFG=2
M  V30 11 C -1.017996 -0.731007 -4.304905 0
M  V30 12 C -1.255592 -0.439455 -5.658421 0
M  V30 13 C -2.505152 -0.208271 -6.195067 0
M  V30 14 N -3.608006 -0.251810 -5.417506 0
M  V30 15 C -3.454538 -0.528719 -4.097076 0
M  V30 16 C -2.204611 -0.750661 -3.608299 0
M  V30 17 N -2.152774 -1.029265 -2.214031 0
M  V30 18 C -2.344359 -2.444188 -1.984476 0
M  V30 19 O -2.521872 -3.195411 -2.977822 0
M  V30 20 C -2.321810 -2.938979 -0.591839 0
M  V30 21 C -2.505946 -4.290312 -0.388713 0
M  V30 22 C -2.484897 -4.765705 0.905143 0
M  V30 23 C -2.282886 -3.897124 1.966143 0
M  V30 24 F -2.235985 -4.210546 3.286769 0
M  V30 25 C -2.102827 -2.554028 1.722697 0
M  V30 26 C -1.877216 -1.476380 2.674750 0
M  V30 27 C -2.945581 -0.797458 3.221987 0
M  V30 28 F -4.232777 -1.087331 2.914206 0
M  V30 29 C -2.787688 0.229001 4.125125 0
M  V30 30 C -1.538302 0.635677 4.533686 0
M  V30 31 O -1.045460 1.592298 5.390381 0
M  V30 32 C -1.900263 2.442017 6.100274 0
M  V30 33 C -1.710786 2.294180 7.605783 0
M  V30 34 C -1.678218 3.901056 5.762490 0
M  V30 35 C -0.442972 -0.046994 3.984233 0
M  V30 36 C -0.612271 -1.091127 3.065235 0
M  V30 37 F 0.396109 -1.791797 2.496389 0
M  V30 38 N -2.125822 -2.104036 0.454237 0
M  V30 39 C 0.618576 -1.964757 -2.817580 0
M  V30 40 C 2.162043 -2.065222 -2.812461 0 CFG=2
M  V30 41 C 2.611009 -3.292748 -2.065143 0
M  V30 42 H 6.293635 -2.078913 1.774279 0
M  V30 43 H 6.366046 -0.308767 1.335952 0
M  V30 44 H 5.486023 -0.779696 2.790010 0
M  V30 45 H 2.269783 -1.311492 -0.263151 0
M  V30 46 H 3.636379 -0.511015 -2.735611 0
M  V30 47 H 2.377002 1.274632 -2.182542 0
M  V30 48 H 0.008106 0.871565 -1.124219 0
M  V30 49 H 1.468829 0.778249 -0.156043 0
M  V30 50 H 0.078230 1.148459 -3.287001 0
M  V30 51 H 1.539191 0.860406 -4.223523 0
M  V30 52 H 0.953786 -1.239903 -4.738405 0
M  V30 53 H -0.419831 -0.382950 -6.367004 0
M  V30 54 H -2.617838 0.010991 -7.247173 0
M  V30 55 H -4.346541 -0.558463 -3.495432 0
M  V30 56 H -2.009360 -0.436436 -1.360733 0
M  V30 57 H -2.668070 -5.014000 -1.183903 0
M  V30 58 H -2.618005 -5.812026 1.193679 0
M  V30 59 H -3.555951 0.814352 4.603538 0
M  V30 60 H -2.958994 2.223152 5.879819 0
M  V30 61 H -2.285244 1.445474 8.008318 0
M  V30 62 H -0.622765 2.188001 7.844433 0
M  V30 63 H -2.058897 3.214843 8.086786 0
M  V30 64 H -2.632918 4.412785 5.527481 0
M  V30 65 H -1.237046 4.450719 6.619208 0
M  V30 66 H -1.000671 3.970104 4.869332 0
M  V30 67 H 0.631850 0.105431 4.163618 0
M  V30 68 H 0.269654 -2.965086 -3.086893 0
M  V30 69 H 0.408740 -1.705841 -1.762226 0
M  V30 70 H 2.514369 -2.150489 -3.858944 0
M  V30 71 H 1.814988 -3.636683 -1.389845 0
M  V30 72 H 3.542022 -3.034439 -1.492799 0
M  V30 73 H 2.920551 -4.100998 -2.766380 0
M  V30 END ATOM
M  V30 BEGIN BOND
M  V30 1 1 1 2
M  V30 2 1 2 3
M  V30 3 2 3 4
M  V30 4 1 3 5
M  V30 5 1 5 6
M  V30 6 1 6 7
M  V30 7 1 7 8
M  V30 8 1 7 9
M  V30 9 1 9 10
M  V30 10 1 10 11
M  V30 11 2 11 12
M  V30 12 1 12 13
M  V30 13 2 13 14
M  V30 14 1 14 15
M  V30 15 2 15 16
M  V30 16 1 16 17
M  V30 17 1 17 18
M  V30 18 2 18 19
M  V30 19 1 18 20
M  V30 20 2 20 21
M  V30 21 1 21 22
M  V30 22 2 22 23
M  V30 23 1 23 24
M  V30 24 1 23 25
M  V30 25 1 25 26
M  V30 26 2 26 27
M  V30 27 1 27 28
M  V30 28 1 27 29
M  V30 29 2 29 30
M  V30 30 1 30 31
M  V30 31 1 31 32
M  V30 32 1 32 33
M  V30 33 1 32 34
M  V30 34 1 30 35
M  V30 35 2 35 36
M  V30 36 1 36 37
M  V30 37 2 25 38
M  V30 38 1 10 39
M  V30 39 1 39 40
M  V30 40 1 40 41
M  V30 41 1 40 6
M  V30 42 1 16 11
M  V30 43 1 38 20
M  V30 44 1 36 26
M  V30 45 1 1 42
M  V30 46 1 1 43
M  V30 47 1 1 44
M  V30 48 1 5 45
M  V30 49 1 6 46 CFG=3
M  V30 50 1 7 47 CFG=3
M  V30 51 1 8 48
M  V30 52 1 8 49
M  V30 53 1 9 50
M  V30 54 1 9 51
M  V30 55 1 10 52 CFG=3
M  V30 56 1 12 53
M  V30 57 1 13 54
M  V30 58 1 15 55
M  V30 59 1 17 56
M  V30 60 1 21 57
M  V30 61 1 22 58
M  V30 62 1 29 59
M  V30 63 1 32 60
M  V30 64 1 33 61
M  V30 65 1 33 62
M  V30 66 1 33 63
M  V30 67 1 34 64
M  V30 68 1 34 65
M  V30 69 1 34 66
M  V30 70 1 35 67
M  V30 71 1 39 68
M  V30 72 1 39 69
M  V30 73 1 40 70 CFG=3
M  V30 74 1 41 71
M  V30 75 1 41 72
M  V30 76 1 41 73
M  V30 END BOND
M  V30 END CTAB
M  END
>  <Dataset>  (370) 
ChEMBL_Kinases

>  <Ligand_Instance>  (370) 
nan

>  <PDB_ID>  (370) 
nan

>  <Standardized_SMILES>  (370) 
COC(=O)N[C@@H]1[C@H](N)C[C@H](c2ccncc2NC(=O)c2ccc(F)c(-c3c(F)cc(OC(C)C)cc3F)n2)C[C@@H]1C

>  <Name>  (370) 
nan

>  <Pocket>  (370) 
nan

>  <ATP_Site>  (370) 
nan

>  <Peripheral>  (370) 
nan

>  <Num_H_Atoms_ProtBoundConf>  (370) 
nan

>  <Num_Resolved_Atoms>  (370) 
nan

>  <Num_Not_Resolved_Atoms>  (370) 
nan

$$$$
CHEMBL3691932
     RDKit          3D

  0  0  0  0  0  0  0  0  0  0999 V3000
M  V30 BEGIN CTAB
M  V30 COUNTS 72 75 0 0 0
M  V30 BEGIN ATOM
M  V30 1 C 5.167968 1.872493 -0.219592 0
M  V30 2 O 3.875285 1.393483 -0.553071 0
M  V30 3 C 3.738406 0.791810 -1.814699 0
M  V30 4 O 4.616290 0.624371 -2.685282 0
M  V30 5 N 2.392678 0.335324 -2.067002 0
M  V30 6 C 1.847868 -0.322109 -3.221310 0 CFG=2
M  V30 7 C 0.823822 0.499201 -3.979231 0 CFG=2
M  V30 8 N 0.162716 1.470490 -3.167144 0
M  V30 9 C -0.156354 -0.514368 -4.597070 0
M  V30 10 N -0.948053 -1.091851 -3.536684 0
M  V30 11 C -2.335076 -0.882319 -3.412055 0
M  V30 12 C -3.017924 -0.111575 -4.315833 0
M  V30 13 C -4.364586 0.119134 -4.239080 0
M  V30 14 N -5.107471 -0.413115 -3.245775 0
M  V30 15 C -4.485517 -1.183617 -2.323581 0
M  V30 16 C -3.121680 -1.399796 -2.426369 0
M  V30 17 N -2.652505 -2.221670 -1.376513 0
M  V30 18 C -2.462978 -3.628125 -1.111817 0
M  V30 19 O -2.762453 -4.458833 -1.982970 0
M  V30 20 C -1.917340 -3.924600 0.207447 0
M  V30 21 C -1.742851 -5.264717 0.468377 0
M  V30 22 C -1.231172 -5.618434 1.703579 0
M  V30 23 C -0.906136 -4.664234 2.642956 0
M  V30 24 F -0.401057 -4.853649 3.884276 0
M  V30 25 C -1.096650 -3.332376 2.340477 0
M  V30 26 C -0.840938 -2.134747 3.134143 0
M  V30 27 C -1.799773 -1.599331 3.941414 0
M  V30 28 F -3.028433 -2.150756 4.045024 0
M  V30 29 C -1.599851 -0.470239 4.706276 0
M  V30 30 C -0.386972 0.184727 4.687316 0
M  V30 31 O 0.105595 1.295861 5.315373 0
M  V30 32 C -0.619941 2.076757 6.203714 0
M  V30 33 C -0.704834 3.529048 5.779487 0
M  V30 34 C -0.027310 2.076289 7.603894 0
M  V30 35 C 0.610398 -0.352380 3.862629 0
M  V30 36 C 0.383362 -1.500956 3.094328 0
M  V30 37 F 1.314172 -2.057866 2.282123 0
M  V30 38 N -1.595850 -2.996654 1.134394 0
M  V30 39 C -0.092351 -1.880903 -2.681105 0
M  V30 40 C 1.373721 -1.722412 -2.960659 0 CFG=2
M  V30 41 C 2.131210 -2.301878 -1.761651 0
M  V30 42 H 5.973736 1.216718 -0.555539 0
M  V30 43 H 5.275408 2.896999 -0.644170 0
M  V30 44 H 5.142119 2.009964 0.898050 0
M  V30 45 H 1.549169 0.398518 -1.446990 0
M  V30 46 H 2.694615 -0.427870 -3.938974 0
M  V30 47 H 1.249594 1.039564 -4.850802 0
M  V30 48 H 0.068001 2.399105 -3.633604 0
M  V30 49 H -0.794966 1.137361 -2.945787 0
M  V30 50 H 0.524559 -1.295734 -5.041227 0
M  V30 51 H -0.714298 0.008615 -5.371999 0
M  V30 52 H -2.605144 0.384468 -5.155229 0
M  V30 53 H -4.946828 0.724044 -4.934313 0
M  V30 54 H -5.128939 -1.586911 -1.546552 0
M  V30 55 H -2.422121 -1.490025 -0.644700 0
M  V30 56 H -1.988027 -6.032062 -0.246760 0
M  V30 57 H -1.053739 -6.637091 2.014909 0
M  V30 58 H -2.298687 0.017780 5.367254 0
M  V30 59 H -1.644258 1.673163 6.297318 0
M  V30 60 H -0.608722 3.584475 4.676414 0
M  V30 61 H -1.582520 4.055115 6.168150 0
M  V30 62 H 0.205258 4.040960 6.194068 0
M  V30 63 H 0.868985 2.727132 7.653203 0
M  V30 64 H 0.195838 1.049263 7.959241 0
M  V30 65 H -0.808228 2.520194 8.270116 0
M  V30 66 H 1.636203 0.019188 3.709567 0
M  V30 67 H -0.322248 -1.787644 -1.596760 0
M  V30 68 H -0.371109 -2.942577 -2.930487 0
M  V30 69 H 1.628019 -2.418626 -3.782584 0
M  V30 70 H 2.159388 -3.427661 -1.841462 0
M  V30 71 H 3.176832 -1.955781 -1.791486 0
M  V30 72 H 1.686948 -2.034250 -0.796964 0
M  V30 END ATOM
M  V30 BEGIN BOND
M  V30 1 1 1 2
M  V30 2 1 2 3
M  V30 3 2 3 4
M  V30 4 1 3 5
M  V30 5 1 5 6
M  V30 6 1 6 7
M  V30 7 1 7 8
M  V30 8 1 7 9
M  V30 9 1 9 10
M  V30 10 1 10 11
M  V30 11 2 11 12
M  V30 12 1 12 13
M  V30 13 2 13 14
M  V30 14 1 14 15
M  V30 15 2 15 16
M  V30 16 1 16 17
M  V30 17 1 17 18
M  V30 18 2 18 19
M  V30 19 1 18 20
M  V30 20 2 20 21
M  V30 21 1 21 22
M  V30 22 2 22 23
M  V30 23 1 23 24
M  V30 24 1 23 25
M  V30 25 1 25 26
M  V30 26 2 26 27
M  V30 27 1 27 28
M  V30 28 1 27 29
M  V30 29 2 29 30
M  V30 30 1 30 31
M  V30 31 1 31 32
M  V30 32 1 32 33
M  V30 33 1 32 34
M  V30 34 1 30 35
M  V30 35 2 35 36
M  V30 36 1 36 37
M  V30 37 2 25 38
M  V30 38 1 10 39
M  V30 39 1 39 40
M  V30 40 1 40 41
M  V30 41 1 40 6
M  V30 42 1 16 11
M  V30 43 1 38 20
M  V30 44 1 36 26
M  V30 45 1 1 42
M  V30 46 1 1 43
M  V30 47 1 1 44
M  V30 48 1 5 45
M  V30 49 1 6 46 CFG=3
M  V30 50 1 7 47 CFG=3
M  V30 51 1 8 48
M  V30 52 1 8 49
M  V30 53 1 9 50
M  V30 54 1 9 51
M  V30 55 1 12 52
M  V30 56 1 13 53
M  V30 57 1 15 54
M  V30 58 1 17 55
M  V30 59 1 21 56
M  V30 60 1 22 57
M  V30 61 1 29 58
M  V30 62 1 32 59
M  V30 63 1 33 60
M  V30 64 1 33 61
M  V30 65 1 33 62
M  V30 66 1 34 63
M  V30 67 1 34 64
M  V30 68 1 34 65
M  V30 69 1 35 66
M  V30 70 1 39 67
M  V30 71 1 39 68
M  V30 72 1 40 69 CFG=3
M  V30 73 1 41 70
M  V30 74 1 41 71
M  V30 75 1 41 72
M  V30 END BOND
M  V30 END CTAB
M  END
>  <Dataset>  (371) 
ChEMBL_Kinases

>  <Ligand_Instance>  (371) 
nan

>  <PDB_ID>  (371) 
nan

>  <Standardized_SMILES>  (371) 
COC(=O)N[C@@H]1[C@H](N)CN(c2ccncc2NC(=O)c2ccc(F)c(-c3c(F)cc(OC(C)C)cc3F)n2)C[C@@H]1C

>  <Name>  (371) 
nan

>  <Pocket>  (371) 
nan

>  <ATP_Site>  (371) 
nan

>  <Peripheral>  (371) 
nan

>  <Num_H_Atoms_ProtBoundConf>  (371) 
nan

>  <Num_Resolved_Atoms>  (371) 
nan

>  <Num_Not_Resolved_Atoms>  (371) 
nan

$$$$
CHEMBL2420700
     RDKit          3D

  0  0  0  0  0  0  0  0  0  0999 V3000
M  V30 BEGIN CTAB
M  V30 COUNTS 31 33 0 0 0
M  V30 BEGIN ATOM
M  V30 1 C -2.434574 -3.798859 2.269618 0
M  V30 2 N -1.540738 -2.771290 1.778174 0
M  V30 3 C -0.486012 -2.921745 0.949139 0
M  V30 4 C 0.066005 -1.675102 0.757529 0
M  V30 5 C 1.243119 -1.606616 -0.117344 0
M  V30 6 C 2.536047 -1.305891 0.253826 0
M  V30 7 C 3.543816 -1.274221 -0.693132 0
M  V30 8 N 3.272347 -1.538217 -1.997330 0
M  V30 9 C 1.998868 -1.835975 -2.371683 0
M  V30 10 C 0.954022 -1.877475 -1.441797 0
M  V30 11 C -0.716795 -0.793564 1.512610 0
M  V30 12 C -0.352164 0.615522 1.488381 0
M  V30 13 C 0.772360 1.287305 1.952071 0
M  V30 14 C 0.858297 2.637251 1.789665 0
M  V30 15 C -0.121212 3.388156 1.182157 0
M  V30 16 F 0.046166 4.712245 1.065906 0
M  V30 17 C -1.247909 2.736352 0.714816 0
M  V30 18 C -1.352750 1.359538 0.871655 0
M  V30 19 N -1.676453 -1.501091 2.112706 0
M  V30 20 H -3.492935 -3.479458 2.200479 0
M  V30 21 H -2.196590 -3.952234 3.334690 0
M  V30 22 H -2.332753 -4.743695 1.700782 0
M  V30 23 H -0.228419 -3.918746 0.571956 0
M  V30 24 H 2.688828 -1.109731 1.296549 0
M  V30 25 H 4.518396 -1.027735 -0.289394 0
M  V30 26 H 1.901556 -2.030551 -3.445286 0
M  V30 27 H -0.023282 -2.120998 -1.827226 0
M  V30 28 H 1.463852 0.604464 2.408745 0
M  V30 29 H 1.774737 3.054422 2.186774 0
M  V30 30 H -1.992560 3.366198 0.244746 0
M  V30 31 H -2.288633 0.997426 0.455684 0
M  V30 END ATOM
M  V30 BEGIN BOND
M  V30 1 1 1 2
M  V30 2 1 2 3
M  V30 3 2 3 4
M  V30 4 1 4 5
M  V30 5 2 5 6
M  V30 6 1 6 7
M  V30 7 2 7 8
M  V30 8 1 8 9
M  V30 9 2 9 10
M  V30 10 1 4 11
M  V30 11 1 11 12
M  V30 12 2 12 13
M  V30 13 1 13 14
M  V30 14 2 14 15
M  V30 15 1 15 16
M  V30 16 1 15 17
M  V30 17 2 17 18
M  V30 18 2 11 19
M  V30 19 1 19 2
M  V30 20 1 10 5
M  V30 21 1 18 12
M  V30 22 1 1 20
M  V30 23 1 1 21
M  V30 24 1 1 22
M  V30 25 1 3 23
M  V30 26 1 6 24
M  V30 27 1 7 25
M  V30 28 1 9 26
M  V30 29 1 10 27
M  V30 30 1 13 28
M  V30 31 1 14 29
M  V30 32 1 17 30
M  V30 33 1 18 31
M  V30 END BOND
M  V30 END CTAB
M  END
>  <Dataset>  (372) 
ChEMBL_Kinases

>  <Ligand_Instance>  (372) 
nan

>  <PDB_ID>  (372) 
nan

>  <Standardized_SMILES>  (372) 
Cn1cc(-c2ccncc2)c(-c2ccc(F)cc2)n1

>  <Name>  (372) 
nan

>  <Pocket>  (372) 
nan

>  <ATP_Site>  (372) 
nan

>  <Peripheral>  (372) 
nan

>  <Num_H_Atoms_ProtBoundConf>  (372) 
nan

>  <Num_Resolved_Atoms>  (372) 
nan

>  <Num_Not_Resolved_Atoms>  (372) 
nan

$$$$
CHEMBL4452908
     RDKit          3D

  0  0  0  0  0  0  0  0  0  0999 V3000
M  V30 BEGIN CTAB
M  V30 COUNTS 60 62 0 0 0
M  V30 BEGIN ATOM
M  V30 1 C 2.175812 0.495474 5.254947 0
M  V30 2 C 3.639094 0.230258 5.168178 0
M  V30 3 C 3.774417 -1.300327 4.978673 0
M  V30 4 C 4.323221 0.908698 4.040219 0
M  V30 5 C 4.313215 2.377995 3.958885 0
M  V30 6 C 3.023162 3.089301 3.772891 0
M  V30 7 N 2.450469 2.655942 2.489551 0
M  V30 8 C 1.206380 3.157185 2.017125 0
M  V30 9 O 0.651523 3.994099 2.790849 0
M  V30 10 C 0.602271 2.755208 0.752302 0
M  V30 11 C 1.156786 1.858833 -0.135541 0
M  V30 12 C 0.547595 1.506163 -1.321342 0
M  V30 13 C -0.669915 2.045073 -1.681140 0
M  V30 14 C -1.370868 1.702427 -2.935308 0
M  V30 15 N -2.268742 0.593860 -2.836881 0
M  V30 16 C -1.937012 -0.781760 -2.792503 0
M  V30 17 O -0.703873 -1.115620 -2.845127 0
M  V30 18 C -2.898999 -1.872207 -2.689783 0
M  V30 19 C -4.274534 -1.820479 -2.610566 0
M  V30 20 N -4.709271 -3.093594 -2.529259 0
M  V30 21 N -3.680838 -3.925521 -2.553738 0
M  V30 22 C -3.725897 -5.360236 -2.488546 0
M  V30 23 C -3.209938 -5.794719 -1.273869 0
M  V30 24 C -3.143498 -7.157454 -0.964911 0
M  V30 25 C -3.606697 -8.064357 -1.903740 0
M  V30 26 C -4.111450 -7.606514 -3.095979 0
M  V30 27 C -4.181990 -6.279313 -3.410156 0
M  V30 28 C -2.522201 -3.207302 -2.653761 0
M  V30 29 N -1.228749 -3.799235 -2.705309 0
M  V30 30 C -1.234424 2.955917 -0.780509 0
M  V30 31 C -0.613660 3.309062 0.417571 0
M  V30 32 H 1.659652 -0.442345 5.623437 0
M  V30 33 H 1.771134 0.774552 4.287729 0
M  V30 34 H 1.915503 1.284671 5.994706 0
M  V30 35 H 4.169527 0.491010 6.126828 0
M  V30 36 H 4.794637 -1.642965 5.192208 0
M  V30 37 H 3.398608 -1.562640 3.979511 0
M  V30 38 H 3.095028 -1.820175 5.702966 0
M  V30 39 H 5.419599 0.588793 4.054068 0
M  V30 40 H 3.945254 0.413314 3.102385 0
M  V30 41 H 4.857829 2.819835 4.842650 0
M  V30 42 H 4.954245 2.678857 3.064183 0
M  V30 43 H 2.315942 3.085811 4.593201 0
M  V30 44 H 3.267464 4.194240 3.610249 0
M  V30 45 H 2.941530 1.963399 1.882444 0
M  V30 46 H 2.110476 1.415042 0.111470 0
M  V30 47 H 1.041992 0.802988 -1.960637 0
M  V30 48 H -1.822274 2.601491 -3.383957 0
M  V30 49 H -0.573326 1.389928 -3.666028 0
M  V30 50 H -3.322749 0.724567 -2.786689 0
M  V30 51 H -4.878104 -0.900904 -2.614321 0
M  V30 52 H -2.820219 -5.189324 -0.466553 0
M  V30 53 H -2.754515 -7.555971 -0.041018 0
M  V30 54 H -3.591351 -9.138588 -1.743689 0
M  V30 55 H -4.484951 -8.277817 -3.860933 0
M  V30 56 H -4.553131 -5.798158 -4.304261 0
M  V30 57 H -0.539586 -3.924386 -1.932344 0
M  V30 58 H -0.836560 -4.188113 -3.598605 0
M  V30 59 H -2.195966 3.393578 -1.046821 0
M  V30 60 H -1.100400 4.017488 1.069465 0
M  V30 END ATOM
M  V30 BEGIN BOND
M  V30 1 1 1 2
M  V30 2 1 2 3
M  V30 3 1 2 4
M  V30 4 1 4 5
M  V30 5 1 5 6
M  V30 6 1 6 7
M  V30 7 1 7 8
M  V30 8 2 8 9
M  V30 9 1 8 10
M  V30 10 2 10 11
M  V30 11 1 11 12
M  V30 12 2 12 13
M  V30 13 1 13 14
M  V30 14 1 14 15
M  V30 15 1 15 16
M  V30 16 2 16 17
M  V30 17 1 16 18
M  V30 18 1 18 19
M  V30 19 2 19 20
M  V30 20 1 20 21
M  V30 21 1 21 22
M  V30 22 2 22 23
M  V30 23 1 23 24
M  V30 24 2 24 25
M  V30 25 1 25 26
M  V30 26 2 26 27
M  V30 27 1 21 28
M  V30 28 1 28 29
M  V30 29 1 13 30
M  V30 30 2 30 31
M  V30 31 1 31 10
M  V30 32 2 28 18
M  V30 33 1 27 22
M  V30 34 1 1 32
M  V30 35 1 1 33
M  V30 36 1 1 34
M  V30 37 1 2 35
M  V30 38 1 3 36
M  V30 39 1 3 37
M  V30 40 1 3 38
M  V30 41 1 4 39
M  V30 42 1 4 40
M  V30 43 1 5 41
M  V30 44 1 5 42
M  V30 45 1 6 43
M  V30 46 1 6 44
M  V30 47 1 7 45
M  V30 48 1 11 46
M  V30 49 1 12 47
M  V30 50 1 14 48
M  V30 51 1 14 49
M  V30 52 1 15 50
M  V30 53 1 19 51
M  V30 54 1 23 52
M  V30 55 1 24 53
M  V30 56 1 25 54
M  V30 57 1 26 55
M  V30 58 1 27 56
M  V30 59 1 29 57
M  V30 60 1 29 58
M  V30 61 1 30 59
M  V30 62 1 31 60
M  V30 END BOND
M  V30 END CTAB
M  END
>  <Dataset>  (373) 
ChEMBL_Kinases

>  <Ligand_Instance>  (373) 
nan

>  <PDB_ID>  (373) 
nan

>  <Standardized_SMILES>  (373) 
CC(C)CCCNC(=O)c1ccc(CNC(=O)c2cnn(-c3ccccc3)c2N)cc1

>  <Name>  (373) 
nan

>  <Pocket>  (373) 
nan

>  <ATP_Site>  (373) 
nan

>  <Peripheral>  (373) 
nan

>  <Num_H_Atoms_ProtBoundConf>  (373) 
nan

>  <Num_Resolved_Atoms>  (373) 
nan

>  <Num_Not_Resolved_Atoms>  (373) 
nan

$$$$
CHEMBL4452888
     RDKit          3D

  0  0  0  0  0  0  0  0  0  0999 V3000
M  V30 BEGIN CTAB
M  V30 COUNTS 41 43 0 0 0
M  V30 BEGIN ATOM
M  V30 1 C -1.214884 -5.445796 3.870272 0
M  V30 2 C -0.122357 -4.833124 2.982489 0
M  V30 3 C -0.809744 -3.859901 2.090403 0
M  V30 4 O -0.033169 -3.167503 1.185696 0
M  V30 5 C 0.754295 -3.628431 0.170093 0
M  V30 6 O 0.816248 -4.859686 -0.012172 0
M  V30 7 C 1.493160 -2.671632 -0.663977 0
M  V30 8 C 1.408439 -1.331922 -0.424279 0
M  V30 9 C 2.070596 -0.369973 -1.159519 0
M  V30 10 C 1.916493 1.044971 -0.822436 0
M  V30 11 C 2.510484 2.092651 -1.460989 0
M  V30 12 C 2.044352 3.204663 -0.762570 0
M  V30 13 C 1.191516 2.777667 0.264236 0
M  V30 14 C 0.574478 3.769866 1.140499 0
M  V30 15 C -0.656511 3.710205 1.622688 0
M  V30 16 N -1.338905 4.640946 2.489262 0
M  V30 17 C -2.648831 4.098320 2.701163 0
M  V30 18 S -3.729198 4.876667 3.640256 0
M  V30 19 N -2.819133 2.878575 2.012803 0
M  V30 20 C -1.585459 2.643811 1.348101 0
M  V30 21 O -1.397317 1.627630 0.635710 0
M  V30 22 O 1.166803 1.475860 0.162183 0
M  V30 23 C 2.873080 -0.771499 -2.207133 0
M  V30 24 C 2.966422 -2.140117 -2.460548 0
M  V30 25 C 2.293525 -3.095514 -1.711014 0
M  V30 26 Cl 2.446784 -4.802500 -2.074949 0
M  V30 27 H -2.013363 -5.889858 3.253624 0
M  V30 28 H -0.829488 -6.244117 4.513568 0
M  V30 29 H -1.681344 -4.662103 4.482768 0
M  V30 30 H 0.620002 -4.329212 3.632918 0
M  V30 31 H 0.413883 -5.646099 2.473561 0
M  V30 32 H -1.682089 -4.353327 1.589268 0
M  V30 33 H -1.284840 -3.095327 2.757361 0
M  V30 34 H 0.774077 -1.016252 0.403752 0
M  V30 35 H 3.181658 2.069862 -2.305665 0
M  V30 36 H 2.331589 4.217615 -1.020317 0
M  V30 37 H 1.127930 4.649874 1.453856 0
M  V30 38 H -0.897480 5.519664 2.851705 0
M  V30 39 H -3.696122 2.292016 2.015360 0
M  V30 40 H 3.414081 -0.054921 -2.815558 0
M  V30 41 H 3.603172 -2.418100 -3.287386 0
M  V30 END ATOM
M  V30 BEGIN BOND
M  V30 1 1 1 2
M  V30 2 1 2 3
M  V30 3 1 3 4
M  V30 4 1 4 5
M  V30 5 2 5 6
M  V30 6 1 5 7
M  V30 7 2 7 8
M  V30 8 1 8 9
M  V30 9 1 9 10
M  V30 10 2 10 11
M  V30 11 1 11 12
M  V30 12 2 12 13
M  V30 13 1 13 14
M  V30 14 2 14 15
M  V30 15 1 15 16
M  V30 16 1 16 17
M  V30 17 2 17 18
M  V30 18 1 17 19
M  V30 19 1 19 20
M  V30 20 2 20 21
M  V30 21 1 13 22
M  V30 22 2 9 23
M  V30 23 1 23 24
M  V30 24 2 24 25
M  V30 25 1 25 26
M  V30 26 1 25 7
M  V30 27 1 22 10
M  V30 28 1 20 15
M  V30 29 1 1 27
M  V30 30 1 1 28
M  V30 31 1 1 29
M  V30 32 1 2 30
M  V30 33 1 2 31
M  V30 34 1 3 32
M  V30 35 1 3 33
M  V30 36 1 8 34
M  V30 37 1 11 35
M  V30 38 1 12 36
M  V30 39 1 14 37
M  V30 40 1 16 38
M  V30 41 1 19 39
M  V30 42 1 23 40
M  V30 43 1 24 41
M  V30 END BOND
M  V30 END CTAB
M  END
>  <Dataset>  (374) 
ChEMBL_Kinases

>  <Ligand_Instance>  (374) 
nan

>  <PDB_ID>  (374) 
nan

>  <Standardized_SMILES>  (374) 
CCCOC(=O)c1cc(-c2ccc(/C=C3/NC(=S)NC3=O)o2)ccc1Cl

>  <Name>  (374) 
nan

>  <Pocket>  (374) 
nan

>  <ATP_Site>  (374) 
nan

>  <Peripheral>  (374) 
nan

>  <Num_H_Atoms_ProtBoundConf>  (374) 
nan

>  <Num_Resolved_Atoms>  (374) 
nan

>  <Num_Not_Resolved_Atoms>  (374) 
nan

$$$$
CHEMBL3691930
     RDKit          3D

  0  0  0  0  0  0  0  0  0  0999 V3000
M  V30 BEGIN CTAB
M  V30 COUNTS 70 73 0 0 0
M  V30 BEGIN ATOM
M  V30 1 C -1.781217 -0.002269 3.132958 0
M  V30 2 C -1.351103 0.312597 1.713741 0 CFG=1
M  V30 3 C -2.533642 0.424425 0.772712 0
M  V30 4 C -2.049008 1.138117 -0.457135 0 CFG=1
M  V30 5 C -2.811896 0.867845 -1.669893 0
M  V30 6 C -3.912784 1.555309 -2.143198 0
M  V30 7 C -4.569826 1.218993 -3.310360 0
M  V30 8 N -4.146752 0.171631 -4.056316 0
M  V30 9 C -3.084948 -0.505235 -3.616012 0
M  V30 10 C -2.386320 -0.210698 -2.449784 0
M  V30 11 N -1.275691 -1.018638 -2.106485 0
M  V30 12 C 0.122449 -0.995110 -2.369735 0
M  V30 13 O 0.747041 -0.142004 -3.050856 0
M  V30 14 C 0.896610 -2.084374 -1.778504 0
M  V30 15 N 0.366705 -3.066325 -1.028384 0
M  V30 16 C 1.048684 -4.063936 -0.481818 0
M  V30 17 C 0.243097 -5.009176 0.291479 0
M  V30 18 C 0.092720 -4.712683 1.640949 0
M  V30 19 F 0.675645 -3.595785 2.186851 0
M  V30 20 C -0.640508 -5.523234 2.468215 0
M  V30 21 C -1.264076 -6.664565 2.019212 0
M  V30 22 C -1.104048 -6.941175 0.682227 0
M  V30 23 C -0.374872 -6.151687 -0.182787 0
M  V30 24 F -0.205121 -6.405616 -1.501131 0
M  V30 25 C 2.423817 -4.116983 -0.689259 0
M  V30 26 F 3.059454 -5.160344 -0.104847 0
M  V30 27 C 3.008483 -3.128653 -1.453342 0
M  V30 28 C 2.234245 -2.102891 -2.002378 0
M  V30 29 N 2.899335 -1.129718 -2.770391 0
M  V30 30 C -2.053037 2.618433 -0.052173 0
M  V30 31 C -1.420740 2.738156 1.310938 0 CFG=1
M  V30 32 N -2.384712 2.950978 2.378733 0
M  V30 33 C -0.523810 1.571180 1.660634 0 CFG=1
M  V30 34 O 0.079829 1.871343 2.868852 0
M  V30 35 C 1.463301 2.005552 2.798761 0
M  V30 36 C 2.192649 0.788075 2.348574 0
M  V30 37 S 3.949434 0.983622 2.264421 0
M  V30 38 C 4.457200 2.239618 1.161275 0
M  V30 39 O 4.567527 1.195429 3.596680 0
M  V30 40 O 4.503062 -0.326990 1.727349 0
M  V30 41 H -0.891386 -0.400331 3.679402 0
M  V30 42 H -2.556600 -0.767255 3.159597 0
M  V30 43 H -2.156351 0.875241 3.688425 0
M  V30 44 H -0.654399 -0.511579 1.408702 0
M  V30 45 H -3.017930 -0.534951 0.573753 0
M  V30 46 H -3.298404 1.038346 1.294746 0
M  V30 47 H -0.985951 0.871107 -0.610976 0
M  V30 48 H -4.240062 2.388151 -1.539778 0
M  V30 49 H -5.431116 1.782870 -3.649549 0
M  V30 50 H -2.739793 -1.351770 -4.216005 0
M  V30 51 H -1.724749 -1.753015 -1.536214 0
M  V30 52 H -0.734275 -5.258743 3.513011 0
M  V30 53 H -1.849287 -7.325838 2.645177 0
M  V30 54 H -1.577465 -7.828939 0.285360 0
M  V30 55 H 4.077088 -3.197055 -1.596518 0
M  V30 56 H 3.127237 -0.178835 -2.363880 0
M  V30 57 H 3.078198 -1.558913 -3.726586 0
M  V30 58 H -1.560971 3.237267 -0.827058 0
M  V30 59 H -3.120832 2.887112 0.090991 0
M  V30 60 H -0.792315 3.652739 1.312992 0
M  V30 61 H -3.206593 3.444281 1.937708 0
M  V30 62 H -2.008737 3.521773 3.150900 0
M  V30 63 H 0.283228 1.520437 0.904303 0
M  V30 64 H 1.682200 2.904940 2.162170 0
M  V30 65 H 1.775181 2.328115 3.819992 0
M  V30 66 H 2.029072 0.008323 3.151906 0
M  V30 67 H 1.800176 0.304440 1.436834 0
M  V30 68 H 4.754296 1.869185 0.157638 0
M  V30 69 H 3.709102 3.034489 0.980024 0
M  V30 70 H 5.356034 2.770871 1.581669 0
M  V30 END ATOM
M  V30 BEGIN BOND
M  V30 1 1 1 2
M  V30 2 1 2 3
M  V30 3 1 3 4
M  V30 4 1 4 5
M  V30 5 2 5 6
M  V30 6 1 6 7
M  V30 7 2 7 8
M  V30 8 1 8 9
M  V30 9 2 9 10
M  V30 10 1 10 11
M  V30 11 1 11 12
M  V30 12 2 12 13
M  V30 13 1 12 14
M  V30 14 2 14 15
M  V30 15 1 15 16
M  V30 16 1 16 17
M  V30 17 2 17 18
M  V30 18 1 18 19
M  V30 19 1 18 20
M  V30 20 2 20 21
M  V30 21 1 21 22
M  V30 22 2 22 23
M  V30 23 1 23 24
M  V30 24 2 16 25
M  V30 25 1 25 26
M  V30 26 1 25 27
M  V30 27 2 27 28
M  V30 28 1 28 29
M  V30 29 1 4 30
M  V30 30 1 30 31
M  V30 31 1 31 32
M  V30 32 1 31 33
M  V30 33 1 33 34
M  V30 34 1 34 35
M  V30 35 1 35 36
M  V30 36 1 36 37
M  V30 37 1 37 38
M  V30 38 2 37 39
M  V30 39 2 37 40
M  V30 40 1 33 2
M  V30 41 1 10 5
M  V30 42 1 28 14
M  V30 43 1 23 17
M  V30 44 1 1 41
M  V30 45 1 1 42
M  V30 46 1 1 43
M  V30 47 1 2 44 CFG=3
M  V30 48 1 3 45
M  V30 49 1 3 46
M  V30 50 1 4 47 CFG=3
M  V30 51 1 6 48
M  V30 52 1 7 49
M  V30 53 1 9 50
M  V30 54 1 11 51
M  V30 55 1 20 52
M  V30 56 1 21 53
M  V30 57 1 22 54
M  V30 58 1 27 55
M  V30 59 1 29 56
M  V30 60 1 29 57
M  V30 61 1 30 58
M  V30 62 1 30 59
M  V30 63 1 31 60 CFG=3
M  V30 64 1 32 61
M  V30 65 1 32 62
M  V30 66 1 33 63 CFG=3
M  V30 67 1 35 64
M  V30 68 1 35 65
M  V30 69 1 36 66
M  V30 70 1 36 67
M  V30 71 1 38 68
M  V30 72 1 38 69
M  V30 73 1 38 70
M  V30 END BOND
M  V30 END CTAB
M  END
>  <Dataset>  (375) 
ChEMBL_Kinases

>  <Ligand_Instance>  (375) 
nan

>  <PDB_ID>  (375) 
nan

>  <Standardized_SMILES>  (375) 
C[C@H]1C[C@@H](c2ccncc2NC(=O)c2nc(-c3c(F)cccc3F)c(F)cc2N)C[C@@H](N)[C@H]1OCCS(C)(=O)=O

>  <Name>  (375) 
nan

>  <Pocket>  (375) 
nan

>  <ATP_Site>  (375) 
nan

>  <Peripheral>  (375) 
nan

>  <Num_H_Atoms_ProtBoundConf>  (375) 
nan

>  <Num_Resolved_Atoms>  (375) 
nan

>  <Num_Not_Resolved_Atoms>  (375) 
nan

$$$$
CHEMBL3691929
     RDKit          3D

  0  0  0  0  0  0  0  0  0  0999 V3000
M  V30 BEGIN CTAB
M  V30 COUNTS 61 64 0 0 0
M  V30 BEGIN ATOM
M  V30 1 C -0.420335 -4.101261 2.650059 0
M  V30 2 O 0.247619 -3.118952 1.915976 0
M  V30 3 C 1.541894 -3.519535 1.602190 0 CFG=1
M  V30 4 C 1.680365 -3.656429 0.127639 0 CFG=2
M  V30 5 N 2.895269 -4.305885 -0.299353 0
M  V30 6 C 1.453037 -2.325186 -0.529025 0
M  V30 7 C 2.073572 -1.159610 0.184884 0 CFG=2
M  V30 8 C 2.653955 -0.119689 -0.664772 0
M  V30 9 C 4.019164 -0.149035 -0.972858 0
M  V30 10 C 4.698967 0.785018 -1.764186 0
M  V30 11 N 3.958099 1.813725 -2.278202 0
M  V30 12 C 2.646449 1.842440 -1.982868 0
M  V30 13 C 1.953698 0.937564 -1.208245 0
M  V30 14 N 0.564564 1.040460 -0.950739 0
M  V30 15 C -0.361085 2.025059 -1.372592 0
M  V30 16 O -0.001339 2.978921 -2.075646 0
M  V30 17 C -1.774171 2.029742 -1.044311 0
M  V30 18 N -2.290616 1.051019 -0.282148 0
M  V30 19 C -3.607913 1.020242 0.049181 0
M  V30 20 C -4.227369 -0.013663 0.873771 0
M  V30 21 C -4.189416 0.326519 2.230451 0
M  V30 22 F -3.641774 1.481199 2.731188 0
M  V30 23 C -4.716289 -0.499075 3.204188 0
M  V30 24 C -5.286625 -1.678114 2.806891 0
M  V30 25 C -5.335257 -2.033004 1.478570 0
M  V30 26 C -4.810991 -1.212508 0.504576 0
M  V30 27 F -4.781882 -1.419897 -0.834235 0
M  V30 28 C -4.429849 2.029796 -0.417083 0
M  V30 29 F -5.746212 2.058750 -0.124756 0
M  V30 30 C -3.962452 3.061251 -1.202146 0
M  V30 31 C -2.595870 3.032276 -1.505916 0
M  V30 32 N -2.091788 4.094820 -2.320271 0
M  V30 33 C 3.097160 -1.601915 1.203359 0
M  V30 34 C 2.500653 -2.540428 2.226146 0 CFG=2
M  V30 35 C 3.642733 -3.324644 2.828564 0
M  V30 36 H -0.484809 -5.035993 2.078644 0
M  V30 37 H 0.189476 -4.286009 3.564679 0
M  V30 38 H -1.399260 -3.739688 3.010766 0
M  V30 39 H 1.648205 -4.546937 2.054810 0
M  V30 40 H 0.834631 -4.332381 -0.198737 0
M  V30 41 H 2.701464 -4.997734 -1.084442 0
M  V30 42 H 3.391972 -4.843126 0.419411 0
M  V30 43 H 0.350125 -2.175455 -0.549197 0
M  V30 44 H 1.724515 -2.343018 -1.616079 0
M  V30 45 H 1.275203 -0.657673 0.812707 0
M  V30 46 H 4.710951 -0.898185 -0.637886 0
M  V30 47 H 5.750516 0.741418 -1.987094 0
M  V30 48 H 2.184608 2.698533 -2.448318 0
M  V30 49 H 0.073519 0.333445 -0.384868 0
M  V30 50 H -4.697351 -0.254788 4.263584 0
M  V30 51 H -5.707495 -2.343266 3.555159 0
M  V30 52 H -5.773181 -2.950710 1.111018 0
M  V30 53 H -4.581392 3.854400 -1.574848 0
M  V30 54 H -2.350784 3.869218 -3.328403 0
M  V30 55 H -1.577927 4.889162 -1.867626 0
M  V30 56 H 3.931382 -2.110969 0.689067 0
M  V30 57 H 3.504772 -0.736733 1.743206 0
M  V30 58 H 2.041248 -1.946523 3.038465 0
M  V30 59 H 3.492729 -4.430308 2.775480 0
M  V30 60 H 4.620044 -3.135894 2.295197 0
M  V30 61 H 3.763057 -3.111372 3.912454 0
M  V30 END ATOM
M  V30 BEGIN BOND
M  V30 1 1 1 2
M  V30 2 1 2 3
M  V30 3 1 3 4
M  V30 4 1 4 5
M  V30 5 1 4 6
M  V30 6 1 6 7
M  V30 7 1 7 8
M  V30 8 2 8 9
M  V30 9 1 9 10
M  V30 10 2 10 11
M  V30 11 1 11 12
M  V30 12 2 12 13
M  V30 13 1 13 14
M  V30 14 1 14 15
M  V30 15 2 15 16
M  V30 16 1 15 17
M  V30 17 2 17 18
M  V30 18 1 18 19
M  V30 19 1 19 20
M  V30 20 2 20 21
M  V30 21 1 21 22
M  V30 22 1 21 23
M  V30 23 2 23 24
M  V30 24 1 24 25
M  V30 25 2 25 26
M  V30 26 1 26 27
M  V30 27 2 19 28
M  V30 28 1 28 29
M  V30 29 1 28 30
M  V30 30 2 30 31
M  V30 31 1 31 32
M  V30 32 1 7 33
M  V30 33 1 33 34
M  V30 34 1 34 35
M  V30 35 1 34 3
M  V30 36 1 13 8
M  V30 37 1 31 17
M  V30 38 1 26 20
M  V30 39 1 1 36
M  V30 40 1 1 37
M  V30 41 1 1 38
M  V30 42 1 3 39 CFG=1
M  V30 43 1 4 40 CFG=3
M  V30 44 1 5 41
M  V30 45 1 5 42
M  V30 46 1 6 43
M  V30 47 1 6 44
M  V30 48 1 7 45 CFG=1
M  V30 49 1 9 46
M  V30 50 1 10 47
M  V30 51 1 12 48
M  V30 52 1 14 49
M  V30 53 1 23 50
M  V30 54 1 24 51
M  V30 55 1 25 52
M  V30 56 1 30 53
M  V30 57 1 32 54
M  V30 58 1 32 55
M  V30 59 1 33 56
M  V30 60 1 33 57
M  V30 61 1 34 58 CFG=1
M  V30 62 1 35 59
M  V30 63 1 35 60
M  V30 64 1 35 61
M  V30 END BOND
M  V30 END CTAB
M  END
>  <Dataset>  (376) 
ChEMBL_Kinases

>  <Ligand_Instance>  (376) 
nan

>  <PDB_ID>  (376) 
nan

>  <Standardized_SMILES>  (376) 
CO[C@H]1[C@H](N)C[C@H](c2ccncc2NC(=O)c2nc(-c3c(F)cccc3F)c(F)cc2N)C[C@@H]1C

>  <Name>  (376) 
nan

>  <Pocket>  (376) 
nan

>  <ATP_Site>  (376) 
nan

>  <Peripheral>  (376) 
nan

>  <Num_H_Atoms_ProtBoundConf>  (376) 
nan

>  <Num_Resolved_Atoms>  (376) 
nan

>  <Num_Not_Resolved_Atoms>  (376) 
nan

$$$$
CHEMBL2420572
     RDKit          3D

  0  0  0  0  0  0  0  0  0  0999 V3000
M  V30 BEGIN CTAB
M  V30 COUNTS 60 65 0 0 0
M  V30 BEGIN ATOM
M  V30 1 O 1.507517 3.217586 0.615784 0
M  V30 2 C 1.736296 2.025153 0.986945 0
M  V30 3 N 2.894192 1.777386 1.759390 0
M  V30 4 C 3.923451 2.635466 2.240295 0
M  V30 5 C 4.597827 2.098760 3.482482 0
M  V30 6 C 5.160151 0.856156 3.183338 0
M  V30 7 C 5.845948 0.139996 4.164539 0
M  V30 8 C 5.959693 0.676276 5.430419 0
M  V30 9 C 5.397728 1.897475 5.694754 0
M  V30 10 C 4.716706 2.625722 4.749232 0
M  V30 11 C 4.795667 3.435821 1.378584 0
M  V30 12 C 3.759529 4.118495 2.248991 0
M  V30 13 C 0.761064 1.049010 0.562795 0
M  V30 14 C -0.316554 1.461655 -0.191020 0
M  V30 15 C -1.289870 0.552945 -0.626854 0
M  V30 16 C -1.205986 -0.789904 -0.317553 0
M  V30 17 N -2.116804 -1.696046 -0.714731 0
M  V30 18 C -2.062799 -3.001028 -0.431379 0
M  V30 19 N -3.047672 -3.930585 -0.870448 0
M  V30 20 C -4.155294 -3.411497 -1.663392 0 CFG=1
M  V30 21 C -3.642328 -2.776445 -2.914581 0
M  V30 22 C -4.613094 -2.915990 -4.043103 0
M  V30 23 C -6.056097 -2.771134 -3.579958 0 CFG=2
M  V30 24 O -6.303234 -1.450550 -3.163700 0
M  V30 25 C -6.411584 -3.764507 -2.522809 0
M  V30 26 C -5.183384 -4.461625 -1.950671 0
M  V30 27 C -0.976612 -3.389525 0.323186 0
M  V30 28 N -0.648151 -4.636563 0.767358 0
M  V30 29 C 0.498109 -4.562643 1.471129 0
M  V30 30 C 0.887516 -3.226374 1.459499 0
M  V30 31 N -0.026920 -2.531643 0.753940 0
M  V30 32 C -0.136875 -1.228225 0.435844 0
M  V30 33 C 0.795266 -0.300704 0.842295 0
M  V30 34 H 2.942732 0.737812 1.985495 0
M  V30 35 H 5.150601 0.317134 2.245162 0
M  V30 36 H 6.309918 -0.820042 4.027560 0
M  V30 37 H 6.484147 0.164850 6.241758 0
M  V30 38 H 5.445690 2.384645 6.668130 0
M  V30 39 H 4.230403 3.582121 4.812508 0
M  V30 40 H 5.839369 3.635772 1.694043 0
M  V30 41 H 4.661812 3.568671 0.304200 0
M  V30 42 H 2.937831 4.636762 1.736122 0
M  V30 43 H 4.124503 4.706905 3.128434 0
M  V30 44 H -0.485171 2.469129 -0.489259 0
M  V30 45 H -2.135765 0.875415 -1.218301 0
M  V30 46 H -2.923850 -4.930222 -0.601755 0
M  V30 47 H -4.673416 -2.648150 -1.013109 0
M  V30 48 H -3.330908 -1.718349 -2.761809 0
M  V30 49 H -2.701953 -3.336587 -3.182439 0
M  V30 50 H -4.462035 -2.093158 -4.772545 0
M  V30 51 H -4.514685 -3.875948 -4.555813 0
M  V30 52 H -6.687628 -2.915536 -4.480690 0
M  V30 53 H -5.475834 -0.935930 -3.070025 0
M  V30 54 H -7.031010 -4.568252 -2.986105 0
M  V30 55 H -6.940914 -3.263763 -1.683585 0
M  V30 56 H -4.758783 -5.203924 -2.647856 0
M  V30 57 H -5.467842 -4.940629 -0.977919 0
M  V30 58 H 0.984818 -5.400803 1.936230 0
M  V30 59 H 1.778273 -2.813578 1.938451 0
M  V30 60 H 1.612970 -0.682225 1.427382 0
M  V30 END ATOM
M  V30 BEGIN BOND
M  V30 1 2 1 2
M  V30 2 1 2 3
M  V30 3 1 3 4
M  V30 4 1 4 5
M  V30 5 2 5 6
M  V30 6 1 6 7
M  V30 7 2 7 8
M  V30 8 1 8 9
M  V30 9 2 9 10
M  V30 10 1 4 11
M  V30 11 1 11 12
M  V30 12 1 2 13
M  V30 13 2 13 14
M  V30 14 1 14 15
M  V30 15 2 15 16
M  V30 16 1 16 17
M  V30 17 2 17 18
M  V30 18 1 18 19
M  V30 19 1 19 20
M  V30 20 1 20 21
M  V30 21 1 21 22
M  V30 22 1 22 23
M  V30 23 1 23 24
M  V30 24 1 23 25
M  V30 25 1 25 26
M  V30 26 1 18 27
M  V30 27 2 27 28
M  V30 28 1 28 29
M  V30 29 2 29 30
M  V30 30 1 30 31
M  V30 31 1 31 32
M  V30 32 2 32 33
M  V30 33 1 12 4
M  V30 34 1 33 13
M  V30 35 1 10 5
M  V30 36 1 32 16
M  V30 37 1 26 20
M  V30 38 1 31 27
M  V30 39 1 3 34
M  V30 40 1 6 35
M  V30 41 1 7 36
M  V30 42 1 8 37
M  V30 43 1 9 38
M  V30 44 1 10 39
M  V30 45 1 11 40
M  V30 46 1 11 41
M  V30 47 1 12 42
M  V30 48 1 12 43
M  V30 49 1 14 44
M  V30 50 1 15 45
M  V30 51 1 19 46
M  V30 52 1 20 47 CFG=1
M  V30 53 1 21 48
M  V30 54 1 21 49
M  V30 55 1 22 50
M  V30 56 1 22 51
M  V30 57 1 23 52 CFG=3
M  V30 58 1 24 53
M  V30 59 1 25 54
M  V30 60 1 25 55
M  V30 61 1 26 56
M  V30 62 1 26 57
M  V30 63 1 29 58
M  V30 64 1 30 59
M  V30 65 1 33 60
M  V30 END BOND
M  V30 END CTAB
M  END
>  <Dataset>  (377) 
ChEMBL_Kinases

>  <Ligand_Instance>  (377) 
nan

>  <PDB_ID>  (377) 
nan

>  <Standardized_SMILES>  (377) 
O=C(NC1(c2ccccc2)CC1)c1ccc2nc(N[C@H]3CC[C@H](O)CC3)c3nccn3c2c1

>  <Name>  (377) 
nan

>  <Pocket>  (377) 
nan

>  <ATP_Site>  (377) 
nan

>  <Peripheral>  (377) 
nan

>  <Num_H_Atoms_ProtBoundConf>  (377) 
nan

>  <Num_Resolved_Atoms>  (377) 
nan

>  <Num_Not_Resolved_Atoms>  (377) 
nan

$$$$
CHEMBL4452736
     RDKit          3D

  0  0  0  0  0  0  0  0  0  0999 V3000
M  V30 BEGIN CTAB
M  V30 COUNTS 74 78 0 0 0
M  V30 BEGIN ATOM
M  V30 1 C 6.114810 -3.025914 5.403482 0
M  V30 2 O 4.745602 -2.984580 5.754973 0
M  V30 3 C 3.813738 -3.021670 4.728612 0
M  V30 4 C 4.001331 -3.095719 3.372133 0
M  V30 5 C 2.946079 -3.123854 2.484489 0
M  V30 6 C 3.370132 -3.206770 1.083883 0
M  V30 7 C 3.594194 -1.875270 0.417991 0
M  V30 8 C 2.366202 -1.024772 0.389519 0
M  V30 9 O 1.130452 -0.890539 0.685842 0
M  V30 10 N 2.617415 0.249822 -0.256411 0
M  V30 11 C 1.389887 1.018789 -0.249672 0
M  V30 12 C 0.517667 0.895315 -1.319267 0
M  V30 13 C -0.691754 1.602866 -1.370993 0
M  V30 14 C -1.521427 1.387263 -2.547020 0
M  V30 15 N -1.912922 0.118100 -2.762867 0
M  V30 16 C -2.663808 -0.009906 -3.857597 0
M  V30 17 S -3.556770 -1.126062 -4.879031 0
M  V30 18 C -3.505884 -2.805578 -4.296981 0
M  V30 19 C -4.243095 -2.963835 -3.024153 0
M  V30 20 C -3.830151 -2.943666 -1.713159 0
M  V30 21 C -4.730324 -3.102631 -0.690700 0
M  V30 22 C -6.091510 -3.291144 -0.901862 0
M  V30 23 C -6.496565 -3.310633 -2.220034 0
M  V30 24 C -5.601424 -3.152282 -3.246467 0
M  V30 25 N -2.761009 1.238292 -4.372430 0
M  V30 26 C -2.066509 2.113019 -3.583395 0
M  V30 27 C -1.818194 3.551968 -3.627141 0
M  V30 28 C -2.302199 4.542052 -2.800334 0
M  V30 29 C -1.960743 5.864403 -2.976572 0
M  V30 30 C -1.112337 6.223105 -4.004510 0
M  V30 31 F -0.810052 7.557942 -4.129108 0
M  V30 32 C -0.588600 5.287604 -4.872432 0
M  V30 33 C -0.962909 3.977094 -4.651022 0
M  V30 34 C -0.924101 2.414304 -0.281665 0
M  V30 35 C -0.051140 2.530856 0.776184 0
M  V30 36 N 1.083051 1.827724 0.760809 0
M  V30 37 C 1.658958 -3.074678 3.007579 0
M  V30 38 C 1.432992 -2.999700 4.365246 0
M  V30 39 O 0.129341 -2.952527 4.839255 0
M  V30 40 C -0.903313 -2.985471 3.874202 0
M  V30 41 C 2.517308 -2.972227 5.248636 0
M  V30 42 O 2.182687 -2.896392 6.602875 0
M  V30 43 C 2.059553 -1.600429 7.158469 0
M  V30 44 H 6.489065 -2.025064 5.174703 0
M  V30 45 H 6.712754 -3.398547 6.285548 0
M  V30 46 H 6.347871 -3.753299 4.601081 0
M  V30 47 H 5.056212 -3.127180 3.101866 0
M  V30 48 H 4.222752 -3.884914 0.957189 0
M  V30 49 H 2.509924 -3.687000 0.527427 0
M  V30 50 H 4.375169 -1.310513 0.986428 0
M  V30 51 H 3.915878 -2.012531 -0.627148 0
M  V30 52 H 3.495490 0.666102 -0.696604 0
M  V30 53 H 0.783456 0.226221 -2.142842 0
M  V30 54 H -1.767166 -0.793493 -2.280583 0
M  V30 55 H -2.433615 -3.098103 -4.149753 0
M  V30 56 H -3.901018 -3.464813 -5.096945 0
M  V30 57 H -2.765748 -2.803940 -1.617762 0
M  V30 58 H -4.258419 -3.064842 0.284870 0
M  V30 59 H -6.676572 -3.402196 -0.014208 0
M  V30 60 H -7.572861 -3.461755 -2.333984 0
M  V30 61 H -6.110625 -3.198048 -4.220574 0
M  V30 62 H -2.959829 4.183165 -2.028282 0
M  V30 63 H -2.394908 6.585906 -2.269079 0
M  V30 64 H 0.066421 5.564318 -5.666809 0
M  V30 65 H -0.531452 3.252140 -5.357002 0
M  V30 66 H -1.857028 2.958113 -0.320606 0
M  V30 67 H -0.343131 3.201447 1.575694 0
M  V30 68 H 0.883436 -3.106002 2.256680 0
M  V30 69 H -1.841979 -2.753061 4.458998 0
M  V30 70 H -0.784093 -2.269193 3.054106 0
M  V30 71 H -1.043462 -4.020360 3.465154 0
M  V30 72 H 2.236033 -1.640992 8.252226 0
M  V30 73 H 1.031774 -1.250052 6.967780 0
M  V30 74 H 2.787227 -0.890985 6.744539 0
M  V30 END ATOM
M  V30 BEGIN BOND
M  V30 1 1 1 2
M  V30 2 1 2 3
M  V30 3 2 3 4
M  V30 4 1 4 5
M  V30 5 1 5 6
M  V30 6 1 6 7
M  V30 7 1 7 8
M  V30 8 2 8 9
M  V30 9 1 8 10
M  V30 10 1 10 11
M  V30 11 2 11 12
M  V30 12 1 12 13
M  V30 13 1 13 14
M  V30 14 1 14 15
M  V30 15 1 15 16
M  V30 16 1 16 17
M  V30 17 1 17 18
M  V30 18 1 18 19
M  V30 19 2 19 20
M  V30 20 1 20 21
M  V30 21 2 21 22
M  V30 22 1 22 23
M  V30 23 2 23 24
M  V30 24 2 16 25
M  V30 25 1 25 26
M  V30 26 1 26 27
M  V30 27 2 27 28
M  V30 28 1 28 29
M  V30 29 2 29 30
M  V30 30 1 30 31
M  V30 31 1 30 32
M  V30 32 2 32 33
M  V30 33 2 13 34
M  V30 34 1 34 35
M  V30 35 2 35 36
M  V30 36 2 5 37
M  V30 37 1 37 38
M  V30 38 1 38 39
M  V30 39 1 39 40
M  V30 40 2 38 41
M  V30 41 1 41 42
M  V30 42 1 42 43
M  V30 43 1 41 3
M  V30 44 1 36 11
M  V30 45 2 26 14
M  V30 46 1 33 27
M  V30 47 1 24 19
M  V30 48 1 1 44
M  V30 49 1 1 45
M  V30 50 1 1 46
M  V30 51 1 4 47
M  V30 52 1 6 48
M  V30 53 1 6 49
M  V30 54 1 7 50
M  V30 55 1 7 51
M  V30 56 1 10 52
M  V30 57 1 12 53
M  V30 58 1 15 54
M  V30 59 1 18 55
M  V30 60 1 18 56
M  V30 61 1 20 57
M  V30 62 1 21 58
M  V30 63 1 22 59
M  V30 64 1 23 60
M  V30 65 1 24 61
M  V30 66 1 28 62
M  V30 67 1 29 63
M  V30 68 1 32 64
M  V30 69 1 33 65
M  V30 70 1 34 66
M  V30 71 1 35 67
M  V30 72 1 37 68
M  V30 73 1 40 69
M  V30 74 1 40 70
M  V30 75 1 40 71
M  V30 76 1 43 72
M  V30 77 1 43 73
M  V30 78 1 43 74
M  V30 END BOND
M  V30 END CTAB
M  END
>  <Dataset>  (378) 
ChEMBL_Kinases

>  <Ligand_Instance>  (378) 
nan

>  <PDB_ID>  (378) 
nan

>  <Standardized_SMILES>  (378) 
COc1cc(CCC(=O)Nc2cc(-c3[nH]c(SCc4ccccc4)nc3-c3ccc(F)cc3)ccn2)cc(OC)c1OC

>  <Name>  (378) 
nan

>  <Pocket>  (378) 
nan

>  <ATP_Site>  (378) 
nan

>  <Peripheral>  (378) 
nan

>  <Num_H_Atoms_ProtBoundConf>  (378) 
nan

>  <Num_Resolved_Atoms>  (378) 
nan

>  <Num_Not_Resolved_Atoms>  (378) 
nan

$$$$
CHEMBL3691928
     RDKit          3D

  0  0  0  0  0  0  0  0  0  0999 V3000
M  V30 BEGIN CTAB
M  V30 COUNTS 72 75 0 0 0
M  V30 BEGIN ATOM
M  V30 1 C 4.276920 -1.639068 6.623077 0
M  V30 2 O 4.321905 -1.924970 5.225733 0
M  V30 3 C 4.177616 -0.937304 4.259615 0
M  V30 4 C 3.981044 0.387754 4.653817 0
M  V30 5 C 3.846921 1.304756 3.626384 0
M  V30 6 F 3.649740 2.632484 3.857050 0
M  V30 7 C 3.908529 0.902328 2.294565 0
M  V30 8 C 3.778739 1.793081 1.144597 0
M  V30 9 N 2.466166 1.888605 0.777476 0
M  V30 10 C 2.107072 2.671776 -0.280253 0
M  V30 11 C 0.737649 2.842710 -0.753328 0
M  V30 12 O 0.400620 3.561777 -1.727696 0
M  V30 13 N -0.244554 2.117833 -0.018306 0
M  V30 14 C -1.641598 1.939324 -0.053464 0
M  V30 15 C -2.516056 2.749925 0.639785 0
M  V30 16 N -3.837194 2.503889 0.548467 0
M  V30 17 C -4.312230 1.490810 -0.199991 0
M  V30 18 C -3.454622 0.669264 -0.900351 0
M  V30 19 C -2.085448 0.881957 -0.838619 0
M  V30 20 C -1.135588 -0.004748 -1.596075 0 CFG=1
M  V30 21 C -0.784676 -1.128009 -0.686887 0
M  V30 22 C -0.411697 -2.402025 -1.352154 0 CFG=1
M  V30 23 N 0.002598 -3.401622 -0.446274 0
M  V30 24 C -1.559798 -2.801018 -2.237609 0 CFG=1
M  V30 25 O -2.706973 -2.912910 -1.446522 0
M  V30 26 C -3.274805 -4.155360 -1.514405 0
M  V30 27 C -4.510033 -4.379257 -0.721853 0
M  V30 28 S -4.351165 -4.162591 1.012809 0
M  V30 29 C -3.851034 -2.511938 1.364513 0
M  V30 30 O -3.435244 -5.180729 1.636158 0
M  V30 31 O -5.705528 -4.373377 1.636433 0
M  V30 32 C -1.701519 -1.779528 -3.305142 0 CFG=1
M  V30 33 C -3.039428 -2.091793 -3.997927 0
M  V30 34 C -1.608500 -0.360250 -2.943725 0
M  V30 35 C 3.065711 3.370518 -0.984120 0
M  V30 36 C 4.405495 3.274937 -0.611821 0
M  V30 37 C 4.761269 2.480909 0.459098 0
M  V30 38 F 6.008320 2.277582 0.950075 0
M  V30 39 C 4.104853 -0.421542 1.938869 0
M  V30 40 F 4.171811 -0.862869 0.665820 0
M  V30 41 C 4.242817 -1.364900 2.949102 0
M  V30 42 H 3.257354 -1.403402 6.965940 0
M  V30 43 H 4.888455 -0.706083 6.797089 0
M  V30 44 H 4.769863 -2.417895 7.208410 0
M  V30 45 H 3.933713 0.698888 5.668869 0
M  V30 46 H 0.001670 1.499737 0.810498 0
M  V30 47 H -2.091123 3.545611 1.224011 0
M  V30 48 H -5.378277 1.306603 -0.262280 0
M  V30 49 H -3.879034 -0.119348 -1.478150 0
M  V30 50 H -0.204327 0.617977 -1.693639 0
M  V30 51 H 0.084440 -0.857310 -0.015163 0
M  V30 52 H -1.618480 -1.317211 0.016647 0
M  V30 53 H 0.477461 -2.168453 -2.008074 0
M  V30 54 H -0.271522 -3.302200 0.534924 0
M  V30 55 H 0.889722 -3.876305 -0.634162 0
M  V30 56 H -1.361151 -3.775964 -2.749351 0
M  V30 57 H -2.534197 -4.939182 -1.210444 0
M  V30 58 H -3.502819 -4.398555 -2.587225 0
M  V30 59 H -5.281772 -3.639122 -1.067352 0
M  V30 60 H -4.974461 -5.376606 -0.969435 0
M  V30 61 H -2.819210 -2.528539 1.755170 0
M  V30 62 H -4.489708 -2.045567 2.167655 0
M  V30 63 H -3.991659 -1.860044 0.475573 0
M  V30 64 H -0.946630 -2.037040 -4.108280 0
M  V30 65 H -3.868318 -2.061228 -3.260553 0
M  V30 66 H -3.271056 -1.313492 -4.766750 0
M  V30 67 H -2.968960 -3.053512 -4.545649 0
M  V30 68 H -2.631412 0.105424 -3.072378 0
M  V30 69 H -1.019481 0.178481 -3.745618 0
M  V30 70 H 2.824108 4.002338 -1.828370 0
M  V30 71 H 5.213602 3.783850 -1.103799 0
M  V30 72 H 4.397374 -2.406397 2.705598 0
M  V30 END ATOM
M  V30 BEGIN BOND
M  V30 1 1 1 2
M  V30 2 1 2 3
M  V30 3 2 3 4
M  V30 4 1 4 5
M  V30 5 1 5 6
M  V30 6 2 5 7
M  V30 7 1 7 8
M  V30 8 2 8 9
M  V30 9 1 9 10
M  V30 10 1 10 11
M  V30 11 2 11 12
M  V30 12 1 11 13
M  V30 13 1 13 14
M  V30 14 2 14 15
M  V30 15 1 15 16
M  V30 16 2 16 17
M  V30 17 1 17 18
M  V30 18 2 18 19
M  V30 19 1 19 20
M  V30 20 1 20 21
M  V30 21 1 21 22
M  V30 22 1 22 23
M  V30 23 1 22 24
M  V30 24 1 24 25
M  V30 25 1 25 26
M  V30 26 1 26 27
M  V30 27 1 27 28
M  V30 28 1 28 29
M  V30 29 2 28 30
M  V30 30 2 28 31
M  V30 31 1 24 32
M  V30 32 1 32 33
M  V30 33 1 32 34
M  V30 34 2 10 35
M  V30 35 1 35 36
M  V30 36 2 36 37
M  V30 37 1 37 38
M  V30 38 1 7 39
M  V30 39 1 39 40
M  V30 40 2 39 41
M  V30 41 1 41 3
M  V30 42 1 37 8
M  V30 43 1 19 14
M  V30 44 1 34 20
M  V30 45 1 1 42
M  V30 46 1 1 43
M  V30 47 1 1 44
M  V30 48 1 4 45
M  V30 49 1 13 46
M  V30 50 1 15 47
M  V30 51 1 17 48
M  V30 52 1 18 49
M  V30 53 1 20 50 CFG=3
M  V30 54 1 21 51
M  V30 55 1 21 52
M  V30 56 1 22 53 CFG=3
M  V30 57 1 23 54
M  V30 58 1 23 55
M  V30 59 1 24 56 CFG=3
M  V30 60 1 26 57
M  V30 61 1 26 58
M  V30 62 1 27 59
M  V30 63 1 27 60
M  V30 64 1 29 61
M  V30 65 1 29 62
M  V30 66 1 29 63
M  V30 67 1 32 64 CFG=3
M  V30 68 1 33 65
M  V30 69 1 33 66
M  V30 70 1 33 67
M  V30 71 1 34 68
M  V30 72 1 34 69
M  V30 73 1 35 70
M  V30 74 1 36 71
M  V30 75 1 41 72
M  V30 END BOND
M  V30 END CTAB
M  END
>  <Dataset>  (379) 
ChEMBL_Kinases

>  <Ligand_Instance>  (379) 
nan

>  <PDB_ID>  (379) 
nan

>  <Standardized_SMILES>  (379) 
COc1cc(F)c(-c2nc(C(=O)Nc3cnccc3[C@H]3C[C@@H](N)[C@@H](OCCS(C)(=O)=O)[C@@H](C)C3)ccc2F)c(F)c1

>  <Name>  (379) 
nan

>  <Pocket>  (379) 
nan

>  <ATP_Site>  (379) 
nan

>  <Peripheral>  (379) 
nan

>  <Num_H_Atoms_ProtBoundConf>  (379) 
nan

>  <Num_Resolved_Atoms>  (379) 
nan

>  <Num_Not_Resolved_Atoms>  (379) 
nan

$$$$
CHEMBL4452457
     RDKit          3D

  0  0  0  0  0  0  0  0  0  0999 V3000
M  V30 BEGIN CTAB
M  V30 COUNTS 48 50 0 0 0
M  V30 BEGIN ATOM
M  V30 1 C 0.475884 -5.027848 2.778947 0
M  V30 2 C 0.882116 -5.553217 1.420229 0
M  V30 3 C 2.223679 -5.000163 0.989384 0
M  V30 4 C 2.229370 -3.544890 0.892843 0
M  V30 5 O 1.114511 -3.053854 1.187096 0
M  V30 6 N 3.311248 -2.721426 0.522562 0
M  V30 7 C 3.357217 -1.312798 0.417240 0
M  V30 8 C 4.574697 -0.805095 0.029113 0
M  V30 9 C 4.742924 0.552817 -0.108553 0
M  V30 10 C 3.674519 1.368296 0.149728 0
M  V30 11 C 2.432434 0.929413 0.540512 0
M  V30 12 N 1.312953 1.709201 0.816065 0
M  V30 13 C 1.170924 3.111944 0.766956 0
M  V30 14 O 2.143749 3.801396 0.443829 0
M  V30 15 C 0.044729 4.005105 1.033957 0
M  V30 16 O -1.136577 3.378223 1.406602 0
M  V30 17 C -1.894841 2.488894 0.703465 0
M  V30 18 C -1.792025 1.912213 -0.564166 0
M  V30 19 C -2.727791 1.027221 -1.016464 0
M  V30 20 C -3.811985 0.662411 -0.249356 0
M  V30 21 C -4.680088 -0.240207 -0.828540 0
M  V30 22 O -4.510095 -0.710823 -1.980559 0
M  V30 23 C -5.779476 -0.627513 -0.084651 0
M  V30 24 C -5.853851 -0.042005 1.161435 0
M  V30 25 O -5.000059 0.812749 1.666610 0
M  V30 26 C -3.956345 1.205670 1.009703 0
M  V30 27 C -2.998412 2.113569 1.476526 0
M  V30 28 C 2.330907 -0.438814 0.659422 0
M  V30 29 H 1.351892 -4.613526 3.335643 0
M  V30 30 H -0.036129 -5.818511 3.338243 0
M  V30 31 H -0.264264 -4.194741 2.689118 0
M  V30 32 H 0.924496 -6.648507 1.481581 0
M  V30 33 H 0.069184 -5.263908 0.718390 0
M  V30 34 H 2.935569 -5.287024 1.806639 0
M  V30 35 H 2.613073 -5.508626 0.089804 0
M  V30 36 H 4.138541 -3.321049 0.319570 0
M  V30 37 H 5.445694 -1.443793 -0.183144 0
M  V30 38 H 5.706851 0.929186 -0.414144 0
M  V30 39 H 3.862502 2.413442 0.026656 0
M  V30 40 H 0.416674 1.264659 1.114637 0
M  V30 41 H 0.350486 4.627858 1.929968 0
M  V30 42 H -0.113764 4.773398 0.229697 0
M  V30 43 H -0.898166 2.288223 -1.049498 0
M  V30 44 H -2.541398 0.649348 -2.009600 0
M  V30 45 H -6.525310 -1.327482 -0.434716 0
M  V30 46 H -6.686419 -0.288605 1.816062 0
M  V30 47 H -3.264734 2.444309 2.486604 0
M  V30 48 H 1.378931 -0.842330 0.963279 0
M  V30 END ATOM
M  V30 BEGIN BOND
M  V30 1 1 1 2
M  V30 2 1 2 3
M  V30 3 1 3 4
M  V30 4 2 4 5
M  V30 5 1 4 6
M  V30 6 1 6 7
M  V30 7 2 7 8
M  V30 8 1 8 9
M  V30 9 2 9 10
M  V30 10 1 10 11
M  V30 11 1 11 12
M  V30 12 1 12 13
M  V30 13 2 13 14
M  V30 14 1 13 15
M  V30 15 1 15 16
M  V30 16 1 16 17
M  V30 17 2 17 18
M  V30 18 1 18 19
M  V30 19 2 19 20
M  V30 20 1 20 21
M  V30 21 2 21 22
M  V30 22 1 21 23
M  V30 23 2 23 24
M  V30 24 1 24 25
M  V30 25 1 25 26
M  V30 26 2 26 27
M  V30 27 2 11 28
M  V30 28 1 28 7
M  V30 29 1 27 17
M  V30 30 1 26 20
M  V30 31 1 1 29
M  V30 32 1 1 30
M  V30 33 1 1 31
M  V30 34 1 2 32
M  V30 35 1 2 33
M  V30 36 1 3 34
M  V30 37 1 3 35
M  V30 38 1 6 36
M  V30 39 1 8 37
M  V30 40 1 9 38
M  V30 41 1 10 39
M  V30 42 1 12 40
M  V30 43 1 15 41
M  V30 44 1 15 42
M  V30 45 1 18 43
M  V30 46 1 19 44
M  V30 47 1 23 45
M  V30 48 1 24 46
M  V30 49 1 27 47
M  V30 50 1 28 48
M  V30 END BOND
M  V30 END CTAB
M  END
>  <Dataset>  (380) 
ChEMBL_Kinases

>  <Ligand_Instance>  (380) 
nan

>  <PDB_ID>  (380) 
nan

>  <Standardized_SMILES>  (380) 
CCCC(=O)Nc1cccc(NC(=O)COc2ccc3c(=O)ccoc3c2)c1

>  <Name>  (380) 
nan

>  <Pocket>  (380) 
nan

>  <ATP_Site>  (380) 
nan

>  <Peripheral>  (380) 
nan

>  <Num_H_Atoms_ProtBoundConf>  (380) 
nan

>  <Num_Resolved_Atoms>  (380) 
nan

>  <Num_Not_Resolved_Atoms>  (380) 
nan

$$$$
CHEMBL4452444
     RDKit          3D

  0  0  0  0  0  0  0  0  0  0999 V3000
M  V30 BEGIN CTAB
M  V30 COUNTS 43 46 0 0 0
M  V30 BEGIN ATOM
M  V30 1 N 4.264013 -1.879002 3.781149 0
M  V30 2 C 4.640236 -1.597078 2.447946 0
M  V30 3 O 5.812340 -1.872725 2.088220 0
M  V30 4 C 3.684615 -1.000475 1.518372 0
M  V30 5 N 4.004731 -0.720237 0.248515 0
M  V30 6 C 2.933406 -0.180378 -0.368280 0
M  V30 7 C 2.619799 0.330379 -1.710455 0
M  V30 8 C 1.625335 -0.295661 -2.470964 0
M  V30 9 C 1.319152 0.177416 -3.743149 0
M  V30 10 C 1.990106 1.263795 -4.265075 0
M  V30 11 F 1.733972 1.765126 -5.494378 0
M  V30 12 C 2.979953 1.871728 -3.484339 0
M  V30 13 C 3.314451 1.431669 -2.214249 0
M  V30 14 C 1.930603 -0.146125 0.606126 0
M  V30 15 C 0.523581 0.315007 0.609556 0
M  V30 16 C 0.200369 1.636010 0.378842 0
M  V30 17 C -1.158804 1.963165 0.404647 0
M  V30 18 N -2.117510 1.048268 0.641220 0
M  V30 19 C -1.792134 -0.252220 0.867904 0
M  V30 20 N -2.710952 -1.314578 1.129143 0
M  V30 21 C -3.003082 -1.495948 2.503085 0
M  V30 22 O -2.409865 -0.692286 3.301349 0
M  V30 23 C -3.897533 -2.483287 3.148292 0
M  V30 24 C -3.400243 -3.007285 4.509662 0
M  V30 25 C -4.591313 -2.055519 4.385484 0
M  V30 26 C -0.455133 -0.626810 0.852510 0
M  V30 27 N 2.428585 -0.661438 1.763671 0
M  V30 28 H 3.961738 -2.062209 4.758980 0
M  V30 29 H 4.774140 -2.592834 4.338120 0
M  V30 30 H 1.083291 -1.160281 -2.069292 0
M  V30 31 H 0.541733 -0.312732 -4.336653 0
M  V30 32 H 3.492199 2.728935 -3.925524 0
M  V30 33 H 4.088454 1.932706 -1.643594 0
M  V30 34 H 0.956751 2.370817 0.189971 0
M  V30 35 H -1.440628 2.992522 0.226700 0
M  V30 36 H -3.226433 -2.004238 0.503670 0
M  V30 37 H -4.445568 -3.218831 2.537425 0
M  V30 38 H -2.489977 -2.549676 4.949981 0
M  V30 39 H -3.594016 -4.056229 4.774231 0
M  V30 40 H -4.469195 -1.008023 4.740704 0
M  V30 41 H -5.565758 -2.499831 4.675512 0
M  V30 42 H -0.150985 -1.658020 1.029142 0
M  V30 43 H 1.990544 -0.802967 2.704614 0
M  V30 END ATOM
M  V30 BEGIN BOND
M  V30 1 1 1 2
M  V30 2 2 2 3
M  V30 3 1 2 4
M  V30 4 2 4 5
M  V30 5 1 5 6
M  V30 6 1 6 7
M  V30 7 2 7 8
M  V30 8 1 8 9
M  V30 9 2 9 10
M  V30 10 1 10 11
M  V30 11 1 10 12
M  V30 12 2 12 13
M  V30 13 2 6 14
M  V30 14 1 14 15
M  V30 15 2 15 16
M  V30 16 1 16 17
M  V30 17 2 17 18
M  V30 18 1 18 19
M  V30 19 1 19 20
M  V30 20 1 20 21
M  V30 21 2 21 22
M  V30 22 1 21 23
M  V30 23 1 23 24
M  V30 24 1 24 25
M  V30 25 2 19 26
M  V30 26 1 14 27
M  V30 27 1 27 4
M  V30 28 1 13 7
M  V30 29 1 26 15
M  V30 30 1 25 23
M  V30 31 1 1 28
M  V30 32 1 1 29
M  V30 33 1 8 30
M  V30 34 1 9 31
M  V30 35 1 12 32
M  V30 36 1 13 33
M  V30 37 1 16 34
M  V30 38 1 17 35
M  V30 39 1 20 36
M  V30 40 1 23 37
M  V30 41 1 24 38
M  V30 42 1 24 39
M  V30 43 1 25 40
M  V30 44 1 25 41
M  V30 45 1 26 42
M  V30 46 1 27 43
M  V30 END BOND
M  V30 END CTAB
M  END
>  <Dataset>  (381) 
ChEMBL_Kinases

>  <Ligand_Instance>  (381) 
nan

>  <PDB_ID>  (381) 
nan

>  <Standardized_SMILES>  (381) 
NC(=O)c1nc(-c2ccc(F)cc2)c(-c2ccnc(NC(=O)C3CC3)c2)[nH]1

>  <Name>  (381) 
nan

>  <Pocket>  (381) 
nan

>  <ATP_Site>  (381) 
nan

>  <Peripheral>  (381) 
nan

>  <Num_H_Atoms_ProtBoundConf>  (381) 
nan

>  <Num_Resolved_Atoms>  (381) 
nan

>  <Num_Not_Resolved_Atoms>  (381) 
nan

$$$$
CHEMBL3691931
     RDKit          3D

  0  0  0  0  0  0  0  0  0  0999 V3000
M  V30 BEGIN CTAB
M  V30 COUNTS 70 74 0 0 0
M  V30 BEGIN ATOM
M  V30 1 C 1.381732 -3.968335 7.304045 0
M  V30 2 C 2.579808 -3.821007 6.424918 0
M  V30 3 C 3.648535 -4.839331 6.842685 0
M  V30 4 O 2.331818 -3.962494 5.069572 0
M  V30 5 C 2.602347 -3.106996 4.042493 0
M  V30 6 C 2.218227 -3.558505 2.773007 0
M  V30 7 C 2.436280 -2.786570 1.650655 0
M  V30 8 F 2.096748 -3.148447 0.399825 0
M  V30 9 C 3.037607 -1.550923 1.747424 0
M  V30 10 C 3.342193 -0.611863 0.669287 0
M  V30 11 N 2.353829 0.263040 0.403418 0
M  V30 12 C 2.457908 1.206631 -0.560126 0
M  V30 13 C 1.424502 2.181682 -0.897818 0
M  V30 14 O 1.518849 3.048841 -1.773955 0
M  V30 15 N 0.240135 2.083562 -0.132293 0
M  V30 16 C -1.003632 2.772601 -0.078549 0
M  V30 17 C -1.319616 3.863997 0.705506 0
M  V30 18 N -2.542544 4.423092 0.654266 0
M  V30 19 C -3.504180 3.941162 -0.161950 0
M  V30 20 C -3.208867 2.847851 -0.956573 0
M  V30 21 C -1.960001 2.250074 -0.926867 0
M  V30 22 N -1.889696 1.149940 -1.828097 0
M  V30 23 C -1.605541 -0.179752 -1.378653 0
M  V30 24 C -1.788373 -1.185249 -2.479723 0 CFG=1
M  V30 25 N -1.725356 -2.539925 -2.028174 0
M  V30 26 C -3.008846 -0.901565 -3.317343 0 CFG=1
M  V30 27 N -4.240649 -0.953734 -2.571770 0
M  V30 28 C -4.805444 -2.121043 -2.201816 0
M  V30 29 C -5.959840 -1.819275 -1.511791 0
M  V30 30 N -6.077015 -0.484001 -1.473949 0
M  V30 31 N -5.044819 -0.006878 -2.109267 0
M  V30 32 C -2.768190 0.397598 -4.020673 0 CFG=1
M  V30 33 C -4.085077 0.873397 -4.616579 0
M  V30 34 C -2.119885 1.459891 -3.205741 0
M  V30 35 C 3.614758 1.287382 -1.306910 0
M  V30 36 C 4.660734 0.393893 -1.056799 0
M  V30 37 C 4.515592 -0.561663 -0.057886 0
M  V30 38 F 5.454889 -1.479992 0.277220 0
M  V30 39 C 3.434786 -1.067796 3.001843 0
M  V30 40 F 4.036201 0.137312 3.209960 0
M  V30 41 C 3.201013 -1.866432 4.102250 0
M  V30 42 H 1.134749 -3.039231 7.861551 0
M  V30 43 H 1.570025 -4.746327 8.071686 0
M  V30 44 H 0.492210 -4.329239 6.718511 0
M  V30 45 H 3.070891 -2.833368 6.600403 0
M  V30 46 H 3.424627 -5.835518 6.402520 0
M  V30 47 H 3.607554 -4.883501 7.950985 0
M  V30 48 H 4.654304 -4.537648 6.547995 0
M  V30 49 H 1.739191 -4.516340 2.601929 0
M  V30 50 H 0.078758 1.370419 0.639736 0
M  V30 51 H -0.502064 4.200828 1.338096 0
M  V30 52 H -4.451792 4.456547 -0.132472 0
M  V30 53 H -4.066684 2.558485 -1.567084 0
M  V30 54 H -0.532925 -0.218853 -1.035445 0
M  V30 55 H -2.226397 -0.479232 -0.499875 0
M  V30 56 H -0.912063 -1.032934 -3.168799 0
M  V30 57 H -1.275132 -3.134154 -2.761798 0
M  V30 58 H -1.096760 -2.576684 -1.195231 0
M  V30 59 H -3.064570 -1.707574 -4.098961 0
M  V30 60 H -4.443165 -3.141578 -2.395815 0
M  V30 61 H -6.625604 -2.562631 -1.091049 0
M  V30 62 H -2.114097 0.164450 -4.912213 0
M  V30 63 H -4.715762 0.047818 -4.961417 0
M  V30 64 H -4.548118 1.550738 -3.877155 0
M  V30 65 H -3.839846 1.525964 -5.491570 0
M  V30 66 H -2.735062 2.398333 -3.317880 0
M  V30 67 H -1.106220 1.718454 -3.631005 0
M  V30 68 H 3.751415 2.017766 -2.085055 0
M  V30 69 H 5.592754 0.404649 -1.606080 0
M  V30 70 H 3.490634 -1.534135 5.088926 0
M  V30 END ATOM
M  V30 BEGIN BOND
M  V30 1 1 1 2
M  V30 2 1 2 3
M  V30 3 1 2 4
M  V30 4 1 4 5
M  V30 5 2 5 6
M  V30 6 1 6 7
M  V30 7 1 7 8
M  V30 8 2 7 9
M  V30 9 1 9 10
M  V30 10 2 10 11
M  V30 11 1 11 12
M  V30 12 1 12 13
M  V30 13 2 13 14
M  V30 14 1 13 15
M  V30 15 1 15 16
M  V30 16 2 16 17
M  V30 17 1 17 18
M  V30 18 2 18 19
M  V30 19 1 19 20
M  V30 20 2 20 21
M  V30 21 1 21 22
M  V30 22 1 22 23
M  V30 23 1 23 24
M  V30 24 1 24 25
M  V30 25 1 24 26
M  V30 26 1 26 27
M  V30 27 1 27 28
M  V30 28 2 28 29
M  V30 29 1 29 30
M  V30 30 2 30 31
M  V30 31 1 26 32
M  V30 32 1 32 33
M  V30 33 1 32 34
M  V30 34 2 12 35
M  V30 35 1 35 36
M  V30 36 2 36 37
M  V30 37 1 37 38
M  V30 38 1 9 39
M  V30 39 1 39 40
M  V30 40 2 39 41
M  V30 41 1 41 5
M  V30 42 1 37 10
M  V30 43 1 21 16
M  V30 44 1 34 22
M  V30 45 1 31 27
M  V30 46 1 1 42
M  V30 47 1 1 43
M  V30 48 1 1 44
M  V30 49 1 2 45
M  V30 50 1 3 46
M  V30 51 1 3 47
M  V30 52 1 3 48
M  V30 53 1 6 49
M  V30 54 1 15 50
M  V30 55 1 17 51
M  V30 56 1 19 52
M  V30 57 1 20 53
M  V30 58 1 23 54
M  V30 59 1 23 55
M  V30 60 1 24 56 CFG=3
M  V30 61 1 25 57
M  V30 62 1 25 58
M  V30 63 1 26 59 CFG=3
M  V30 64 1 28 60
M  V30 65 1 29 61
M  V30 66 1 32 62 CFG=3
M  V30 67 1 33 63
M  V30 68 1 33 64
M  V30 69 1 33 65
M  V30 70 1 34 66
M  V30 71 1 34 67
M  V30 72 1 35 68
M  V30 73 1 36 69
M  V30 74 1 41 70
M  V30 END BOND
M  V30 END CTAB
M  END
>  <Dataset>  (382) 
ChEMBL_Kinases

>  <Ligand_Instance>  (382) 
nan

>  <PDB_ID>  (382) 
nan

>  <Standardized_SMILES>  (382) 
CC(C)Oc1cc(F)c(-c2nc(C(=O)Nc3cnccc3N3C[C@@H](N)[C@@H](n4ccnn4)[C@@H](C)C3)ccc2F)c(F)c1

>  <Name>  (382) 
nan

>  <Pocket>  (382) 
nan

>  <ATP_Site>  (382) 
nan

>  <Peripheral>  (382) 
nan

>  <Num_H_Atoms_ProtBoundConf>  (382) 
nan

>  <Num_Resolved_Atoms>  (382) 
nan

>  <Num_Not_Resolved_Atoms>  (382) 
nan

$$$$
CHEMBL2425636
     RDKit          3D

  0  0  0  0  0  0  0  0  0  0999 V3000
M  V30 BEGIN CTAB
M  V30 COUNTS 55 58 0 0 0
M  V30 BEGIN ATOM
M  V30 1 C 8.721318 -1.176792 1.148681 0
M  V30 2 S 8.354125 -0.391648 2.677797 0
M  V30 3 O 8.966847 -1.218341 3.786085 0
M  V30 4 O 8.973538 0.977296 2.737437 0
M  V30 5 C 6.582666 -0.234128 2.941838 0
M  V30 6 C 6.022333 0.580513 1.833060 0
M  V30 7 O 4.671458 0.831125 1.827722 0
M  V30 8 C 3.659348 -0.083672 1.741173 0
M  V30 9 C 3.611160 -1.453462 1.626841 0
M  V30 10 C 2.450646 -2.187649 1.552723 0
M  V30 11 C 1.231540 -1.545891 1.591741 0
M  V30 12 C 1.238301 -0.172413 1.705426 0
M  V30 13 C 2.420008 0.576381 1.781220 0
M  V30 14 C 1.942432 1.865802 1.882251 0
M  V30 15 N 0.589976 1.840608 1.864287 0
M  V30 16 N 0.147566 0.612104 1.757497 0
M  V30 17 C -1.226131 0.246085 1.711063 0
M  V30 18 C -2.140194 0.272309 2.746796 0
M  V30 19 C -3.429848 -0.130457 2.469026 0
M  V30 20 N -3.729532 -0.520045 1.234007 0
M  V30 21 C -2.871258 -0.560349 0.199459 0
M  V30 22 N -3.248438 -0.986881 -1.102492 0
M  V30 23 C -4.623049 -1.397326 -1.324280 0 CFG=1
M  V30 24 C -5.511025 -0.245662 -1.011470 0
M  V30 25 C -6.813818 -0.244715 -1.757621 0
M  V30 26 C -7.129735 -1.583368 -2.379551 0 CFG=2
M  V30 27 O -7.271932 -2.576132 -1.416768 0
M  V30 28 C -6.043894 -1.872351 -3.363147 0
M  V30 29 C -4.695867 -1.884689 -2.742472 0
M  V30 30 N -1.620087 -0.163550 0.492837 0
M  V30 31 H 9.154601 -0.415790 0.461094 0
M  V30 32 H 9.432803 -2.005235 1.272512 0
M  V30 33 H 7.823617 -1.570233 0.629881 0
M  V30 34 H 6.509986 0.363877 3.900829 0
M  V30 35 H 6.172147 -1.213776 3.120712 0
M  V30 36 H 6.300000 0.061008 0.875792 0
M  V30 37 H 6.557703 1.575985 1.766548 0
M  V30 38 H 4.569077 -1.905588 1.590146 0
M  V30 39 H 2.557195 -3.245238 1.466475 0
M  V30 40 H 0.343889 -2.143451 1.532039 0
M  V30 41 H 2.592346 2.727889 1.961229 0
M  V30 42 H -1.738895 0.614641 3.691406 0
M  V30 43 H -4.123780 -0.100404 3.295497 0
M  V30 44 H -2.510127 -0.982882 -1.839472 0
M  V30 45 H -4.832377 -2.242848 -0.612334 0
M  V30 46 H -4.953752 0.709593 -1.098445 0
M  V30 47 H -5.799820 -0.325610 0.078117 0
M  V30 48 H -7.677507 0.091106 -1.151803 0
M  V30 49 H -6.733374 0.482967 -2.591292 0
M  V30 50 H -8.095793 -1.481599 -2.915551 0
M  V30 51 H -8.165777 -2.946712 -1.330699 0
M  V30 52 H -6.116944 -1.089483 -4.158900 0
M  V30 53 H -6.257152 -2.849054 -3.880810 0
M  V30 54 H -3.999068 -1.297612 -3.402836 0
M  V30 55 H -4.292369 -2.925188 -2.764054 0
M  V30 END ATOM
M  V30 BEGIN BOND
M  V30 1 1 1 2
M  V30 2 2 2 3
M  V30 3 2 2 4
M  V30 4 1 2 5
M  V30 5 1 5 6
M  V30 6 1 6 7
M  V30 7 1 7 8
M  V30 8 2 8 9
M  V30 9 1 9 10
M  V30 10 2 10 11
M  V30 11 1 11 12
M  V30 12 2 12 13
M  V30 13 1 13 14
M  V30 14 2 14 15
M  V30 15 1 15 16
M  V30 16 1 16 17
M  V30 17 2 17 18
M  V30 18 1 18 19
M  V30 19 2 19 20
M  V30 20 1 20 21
M  V30 21 1 21 22
M  V30 22 1 22 23
M  V30 23 1 23 24
M  V30 24 1 24 25
M  V30 25 1 25 26
M  V30 26 1 26 27
M  V30 27 1 26 28
M  V30 28 1 28 29
M  V30 29 2 21 30
M  V30 30 1 13 8
M  V30 31 1 30 17
M  V30 32 1 16 12
M  V30 33 1 29 23
M  V30 34 1 1 31
M  V30 35 1 1 32
M  V30 36 1 1 33
M  V30 37 1 5 34
M  V30 38 1 5 35
M  V30 39 1 6 36
M  V30 40 1 6 37
M  V30 41 1 9 38
M  V30 42 1 10 39
M  V30 43 1 11 40
M  V30 44 1 14 41
M  V30 45 1 18 42
M  V30 46 1 19 43
M  V30 47 1 22 44
M  V30 48 1 23 45 CFG=1
M  V30 49 1 24 46
M  V30 50 1 24 47
M  V30 51 1 25 48
M  V30 52 1 25 49
M  V30 53 1 26 50 CFG=3
M  V30 54 1 27 51
M  V30 55 1 28 52
M  V30 56 1 28 53
M  V30 57 1 29 54
M  V30 58 1 29 55
M  V30 END BOND
M  V30 END CTAB
M  END
>  <Dataset>  (383) 
ChEMBL_Kinases

>  <Ligand_Instance>  (383) 
nan

>  <PDB_ID>  (383) 
nan

>  <Standardized_SMILES>  (383) 
CS(=O)(=O)CCOc1cccc2c1cnn2-c1ccnc(N[C@H]2CC[C@H](O)CC2)n1

>  <Name>  (383) 
nan

>  <Pocket>  (383) 
nan

>  <ATP_Site>  (383) 
nan

>  <Peripheral>  (383) 
nan

>  <Num_H_Atoms_ProtBoundConf>  (383) 
nan

>  <Num_Resolved_Atoms>  (383) 
nan

>  <Num_Not_Resolved_Atoms>  (383) 
nan

$$$$
CHEMBL2425637
     RDKit          3D

  0  0  0  0  0  0  0  0  0  0999 V3000
M  V30 BEGIN CTAB
M  V30 COUNTS 60 63 0 0 0
M  V30 BEGIN ATOM
M  V30 1 C 3.753030 -0.641336 5.115618 0
M  V30 2 S 5.486532 -0.274259 4.960281 0
M  V30 3 O 5.995424 0.382697 6.202141 0
M  V30 4 O 6.290221 -1.520931 4.739083 0
M  V30 5 N 5.750517 0.783877 3.617250 0
M  V30 6 C 5.337332 0.169123 2.395556 0
M  V30 7 C 5.538731 1.035976 1.168251 0
M  V30 8 C 4.746736 2.286377 1.329782 0
M  V30 9 O 3.375456 2.094152 1.485339 0
M  V30 10 C 2.505824 1.538824 0.598762 0
M  V30 11 C 2.603659 1.014473 -0.667714 0
M  V30 12 C 1.582373 0.488263 -1.418891 0
M  V30 13 C 0.338592 0.489343 -0.840453 0
M  V30 14 C 0.146633 0.994313 0.423108 0
M  V30 15 C 1.212901 1.519600 1.152092 0
M  V30 16 C 0.588714 1.904667 2.336833 0
M  V30 17 N -0.722682 1.611022 2.260188 0
M  V30 18 N -1.012884 1.055576 1.102019 0
M  V30 19 C -2.300495 0.614755 0.672012 0
M  V30 20 C -3.417409 1.414889 0.540165 0
M  V30 21 C -4.597505 0.806527 0.104057 0
M  V30 22 N -4.613010 -0.512719 -0.169401 0
M  V30 23 C -3.517186 -1.296087 -0.039716 0
M  V30 24 N -3.573728 -2.687460 -0.339142 0
M  V30 25 C -4.788670 -3.272227 -0.780405 0 CFG=1
M  V30 26 C -5.359302 -2.708192 -2.056944 0
M  V30 27 C -4.495683 -3.027304 -3.251155 0
M  V30 28 C -3.204916 -3.717838 -2.903746 0 CFG=2
M  V30 29 O -2.702462 -4.234608 -4.119258 0
M  V30 30 C -3.360086 -4.863849 -1.962379 0
M  V30 31 C -4.555642 -4.747677 -1.040137 0
M  V30 32 N -2.372664 -0.700158 0.384508 0
M  V30 33 H 3.374822 -1.062816 4.163702 0
M  V30 34 H 3.645675 -1.395147 5.935879 0
M  V30 35 H 3.188681 0.245198 5.463864 0
M  V30 36 H 5.116307 1.624200 3.776841 0
M  V30 37 H 4.258774 -0.062128 2.483002 0
M  V30 38 H 5.850714 -0.789814 2.215837 0
M  V30 39 H 6.623675 1.306873 1.158833 0
M  V30 40 H 5.372109 0.441780 0.276777 0
M  V30 41 H 4.951283 2.893511 0.388401 0
M  V30 42 H 5.193461 2.854911 2.174131 0
M  V30 43 H 3.601101 1.057784 -1.062880 0
M  V30 44 H 1.829598 0.121958 -2.385217 0
M  V30 45 H -0.473157 0.077527 -1.422984 0
M  V30 46 H 1.125685 2.362964 3.154997 0
M  V30 47 H -3.287386 2.458708 0.787609 0
M  V30 48 H -5.461510 1.455754 0.008065 0
M  V30 49 H -2.695453 -3.241004 -0.219577 0
M  V30 50 H -5.552439 -3.211526 0.015301 0
M  V30 51 H -6.318065 -3.287440 -2.209394 0
M  V30 52 H -5.673903 -1.658479 -1.994849 0
M  V30 53 H -4.218090 -2.106299 -3.819331 0
M  V30 54 H -5.006829 -3.707408 -3.992936 0
M  V30 55 H -2.418510 -2.982634 -2.588571 0
M  V30 56 H -2.217075 -3.505222 -4.615606 0
M  V30 57 H -3.374789 -5.839137 -2.516057 0
M  V30 58 H -2.425215 -4.926667 -1.340682 0
M  V30 59 H -5.444665 -5.235039 -1.490065 0
M  V30 60 H -4.266474 -5.235183 -0.077925 0
M  V30 END ATOM
M  V30 BEGIN BOND
M  V30 1 1 1 2
M  V30 2 2 2 3
M  V30 3 2 2 4
M  V30 4 1 2 5
M  V30 5 1 5 6
M  V30 6 1 6 7
M  V30 7 1 7 8
M  V30 8 1 8 9
M  V30 9 1 9 10
M  V30 10 2 10 11
M  V30 11 1 11 12
M  V30 12 2 12 13
M  V30 13 1 13 14
M  V30 14 2 14 15
M  V30 15 1 15 16
M  V30 16 2 16 17
M  V30 17 1 17 18
M  V30 18 1 18 19
M  V30 19 2 19 20
M  V30 20 1 20 21
M  V30 21 2 21 22
M  V30 22 1 22 23
M  V30 23 1 23 24
M  V30 24 1 24 25
M  V30 25 1 25 26
M  V30 26 1 26 27
M  V30 27 1 27 28
M  V30 28 1 28 29
M  V30 29 1 28 30
M  V30 30 1 30 31
M  V30 31 2 23 32
M  V30 32 1 15 10
M  V30 33 1 32 19
M  V30 34 1 18 14
M  V30 35 1 31 25
M  V30 36 1 1 33
M  V30 37 1 1 34
M  V30 38 1 1 35
M  V30 39 1 5 36
M  V30 40 1 6 37
M  V30 41 1 6 38
M  V30 42 1 7 39
M  V30 43 1 7 40
M  V30 44 1 8 41
M  V30 45 1 8 42
M  V30 46 1 11 43
M  V30 47 1 12 44
M  V30 48 1 13 45
M  V30 49 1 16 46
M  V30 50 1 20 47
M  V30 51 1 21 48
M  V30 52 1 24 49
M  V30 53 1 25 50 CFG=1
M  V30 54 1 26 51
M  V30 55 1 26 52
M  V30 56 1 27 53
M  V30 57 1 27 54
M  V30 58 1 28 55 CFG=1
M  V30 59 1 29 56
M  V30 60 1 30 57
M  V30 61 1 30 58
M  V30 62 1 31 59
M  V30 63 1 31 60
M  V30 END BOND
M  V30 END CTAB
M  END
>  <Dataset>  (384) 
ChEMBL_Kinases

>  <Ligand_Instance>  (384) 
nan

>  <PDB_ID>  (384) 
nan

>  <Standardized_SMILES>  (384) 
CS(=O)(=O)NCCCOc1cccc2c1cnn2-c1ccnc(N[C@H]2CC[C@H](O)CC2)n1

>  <Name>  (384) 
nan

>  <Pocket>  (384) 
nan

>  <ATP_Site>  (384) 
nan

>  <Peripheral>  (384) 
nan

>  <Num_H_Atoms_ProtBoundConf>  (384) 
nan

>  <Num_Resolved_Atoms>  (384) 
nan

>  <Num_Not_Resolved_Atoms>  (384) 
nan

$$$$
CHEMBL2425638
     RDKit          3D

  0  0  0  0  0  0  0  0  0  0999 V3000
M  V30 BEGIN CTAB
M  V30 COUNTS 54 57 0 0 0
M  V30 BEGIN ATOM
M  V30 1 O 6.254543 -0.017632 5.260095 0
M  V30 2 C 6.782640 -0.342212 3.999880 0
M  V30 3 C 6.842694 0.880696 3.146511 0
M  V30 4 O 7.357981 0.629375 1.875802 0
M  V30 5 C 5.673490 1.794414 3.162548 0
M  V30 6 O 4.554284 1.490717 2.450109 0
M  V30 7 C 3.624198 0.541639 2.431458 0
M  V30 8 C 3.320744 -0.599896 3.131931 0
M  V30 9 C 2.277373 -1.474312 2.951356 0
M  V30 10 C 1.420025 -1.153547 1.922123 0
M  V30 11 C 1.619407 -0.033721 1.149233 0
M  V30 12 C 2.709426 0.814479 1.392689 0
M  V30 13 C 2.521382 1.775805 0.412054 0
M  V30 14 N 1.415154 1.482723 -0.316187 0
M  V30 15 N 0.854415 0.377994 0.124966 0
M  V30 16 C -0.321238 -0.236160 -0.392906 0
M  V30 17 C -0.137180 -1.392471 -1.127584 0
M  V30 18 C -1.267404 -2.001038 -1.636815 0
M  V30 19 N -2.480635 -1.465764 -1.409405 0
M  V30 20 C -2.675652 -0.342243 -0.697160 0
M  V30 21 N -3.976608 0.188520 -0.481227 0
M  V30 22 C -5.125350 -0.493809 -1.042945 0 CFG=1
M  V30 23 C -5.132737 -0.610501 -2.518135 0
M  V30 24 C -5.145530 -1.957112 -3.119977 0
M  V30 25 C -5.693207 -3.074645 -2.313103 0 CFG=2
M  V30 26 O -6.667596 -3.823016 -2.999916 0
M  V30 27 C -6.287548 -2.709246 -0.995967 0
M  V30 28 C -5.339973 -1.774694 -0.280172 0
M  V30 29 N -1.566739 0.240438 -0.206940 0
M  V30 30 H 6.304156 -0.777351 5.883282 0
M  V30 31 H 6.301954 -1.216450 3.551378 0
M  V30 32 H 7.845636 -0.692480 4.202488 0
M  V30 33 H 7.696897 1.498934 3.622308 0
M  V30 34 H 6.643637 0.677803 1.205633 0
M  V30 35 H 5.426449 1.977163 4.263820 0
M  V30 36 H 6.024055 2.843026 2.855656 0
M  V30 37 H 4.008332 -0.797700 3.932882 0
M  V30 38 H 2.194324 -2.319419 3.594010 0
M  V30 39 H 0.590544 -1.827710 1.760655 0
M  V30 40 H 3.184095 2.624751 0.277690 0
M  V30 41 H 0.797679 -1.888218 -1.357123 0
M  V30 42 H -1.277652 -2.906709 -2.227467 0
M  V30 43 H -4.030577 1.077386 0.094421 0
M  V30 44 H -6.004286 0.156754 -0.751800 0
M  V30 45 H -5.951927 0.021707 -2.975669 0
M  V30 46 H -4.198444 -0.078898 -2.879772 0
M  V30 47 H -5.771674 -1.915625 -4.063798 0
M  V30 48 H -4.125023 -2.215482 -3.536755 0
M  V30 49 H -4.860715 -3.820789 -2.140791 0
M  V30 50 H -6.542852 -4.795748 -2.916175 0
M  V30 51 H -6.326914 -3.650363 -0.385182 0
M  V30 52 H -7.311945 -2.347855 -1.062223 0
M  V30 53 H -4.376627 -2.291661 -0.138334 0
M  V30 54 H -5.758520 -1.573301 0.727250 0
M  V30 END ATOM
M  V30 BEGIN BOND
M  V30 1 1 1 2
M  V30 2 1 2 3
M  V30 3 1 3 4
M  V30 4 1 3 5
M  V30 5 1 5 6
M  V30 6 1 6 7
M  V30 7 2 7 8
M  V30 8 1 8 9
M  V30 9 2 9 10
M  V30 10 1 10 11
M  V30 11 2 11 12
M  V30 12 1 12 13
M  V30 13 2 13 14
M  V30 14 1 14 15
M  V30 15 1 15 16
M  V30 16 2 16 17
M  V30 17 1 17 18
M  V30 18 2 18 19
M  V30 19 1 19 20
M  V30 20 1 20 21
M  V30 21 1 21 22
M  V30 22 1 22 23
M  V30 23 1 23 24
M  V30 24 1 24 25
M  V30 25 1 25 26
M  V30 26 1 25 27
M  V30 27 1 27 28
M  V30 28 2 20 29
M  V30 29 1 12 7
M  V30 30 1 29 16
M  V30 31 1 15 11
M  V30 32 1 28 22
M  V30 33 1 1 30
M  V30 34 1 2 31
M  V30 35 1 2 32
M  V30 36 1 3 33
M  V30 37 1 4 34
M  V30 38 1 5 35
M  V30 39 1 5 36
M  V30 40 1 8 37
M  V30 41 1 9 38
M  V30 42 1 10 39
M  V30 43 1 13 40
M  V30 44 1 17 41
M  V30 45 1 18 42
M  V30 46 1 21 43
M  V30 47 1 22 44 CFG=3
M  V30 48 1 23 45
M  V30 49 1 23 46
M  V30 50 1 24 47
M  V30 51 1 24 48
M  V30 52 1 25 49 CFG=1
M  V30 53 1 26 50
M  V30 54 1 27 51
M  V30 55 1 27 52
M  V30 56 1 28 53
M  V30 57 1 28 54
M  V30 END BOND
M  V30 END CTAB
M  END
>  <Dataset>  (385) 
ChEMBL_Kinases

>  <Ligand_Instance>  (385) 
nan

>  <PDB_ID>  (385) 
nan

>  <Standardized_SMILES>  (385) 
OCC(O)COc1cccc2c1cnn2-c1ccnc(N[C@H]2CC[C@H](O)CC2)n1

>  <Name>  (385) 
nan

>  <Pocket>  (385) 
nan

>  <ATP_Site>  (385) 
nan

>  <Peripheral>  (385) 
nan

>  <Num_H_Atoms_ProtBoundConf>  (385) 
nan

>  <Num_Resolved_Atoms>  (385) 
nan

>  <Num_Not_Resolved_Atoms>  (385) 
nan

$$$$
CHEMBL2425639
     RDKit          3D

  0  0  0  0  0  0  0  0  0  0999 V3000
M  V30 BEGIN CTAB
M  V30 COUNTS 52 55 0 0 0
M  V30 BEGIN ATOM
M  V30 1 C 4.047034 -4.913711 -0.693466 0
M  V30 2 C 5.275704 -4.116822 -0.286516 0
M  V30 3 C 5.415213 -2.867098 -1.096316 0
M  V30 4 O 4.369112 -1.961080 -1.017166 0
M  V30 5 C 3.920412 -1.275707 0.064758 0
M  V30 6 C 4.270247 -1.176921 1.389320 0
M  V30 7 C 3.657296 -0.394931 2.332941 0
M  V30 8 C 2.584938 0.377497 1.944697 0
M  V30 9 C 2.185218 0.328766 0.647427 0
M  V30 10 C 2.823844 -0.477409 -0.305039 0
M  V30 11 C 2.087841 -0.204388 -1.452433 0
M  V30 12 N 1.116076 0.682021 -1.167634 0
M  V30 13 N 1.161939 1.017839 0.111258 0
M  V30 14 C 0.272318 1.935327 0.734738 0
M  V30 15 C 0.606972 3.225674 1.069462 0
M  V30 16 C -0.338631 4.020931 1.669519 0
M  V30 17 N -1.563701 3.524799 1.915623 0
M  V30 18 C -1.902804 2.262994 1.592357 0
M  V30 19 N -3.192655 1.730578 1.847968 0
M  V30 20 C -3.649269 0.414350 1.545977 0 CFG=1
M  V30 21 C -5.102913 0.179083 1.960992 0
M  V30 22 C -5.370129 -1.290567 1.825550 0
M  V30 23 C -5.185413 -1.797195 0.417688 0 CFG=2
M  V30 24 O -5.056748 -3.191128 0.531176 0
M  V30 25 C -3.964030 -1.280682 -0.252499 0
M  V30 26 C -3.614081 0.150160 0.064159 0
M  V30 27 N -0.967846 1.486510 1.002473 0
M  V30 28 H 4.196245 -5.951466 -0.361866 0
M  V30 29 H 3.175887 -4.533148 -0.104709 0
M  V30 30 H 3.814358 -4.849886 -1.762058 0
M  V30 31 H 6.135437 -4.797523 -0.467696 0
M  V30 32 H 5.158489 -3.896747 0.775682 0
M  V30 33 H 6.414974 -2.389105 -0.960601 0
M  V30 34 H 5.452332 -3.220228 -2.177365 0
M  V30 35 H 5.117732 -1.781135 1.648852 0
M  V30 36 H 4.064462 -0.439513 3.331713 0
M  V30 37 H 2.121462 0.981610 2.702148 0
M  V30 38 H 2.297881 -0.656495 -2.405469 0
M  V30 39 H 1.612999 3.559314 0.841663 0
M  V30 40 H -0.095154 5.048498 1.943951 0
M  V30 41 H -3.895730 2.376698 2.313161 0
M  V30 42 H -3.070899 -0.370663 2.081610 0
M  V30 43 H -5.717943 0.766915 1.265937 0
M  V30 44 H -5.264558 0.438554 3.027489 0
M  V30 45 H -4.772891 -1.847638 2.568526 0
M  V30 46 H -6.443676 -1.480393 2.073413 0
M  V30 47 H -6.091633 -1.620014 -0.188781 0
M  V30 48 H -4.744747 -3.514206 -0.373285 0
M  V30 49 H -3.083530 -1.935631 -0.058777 0
M  V30 50 H -4.137255 -1.331775 -1.357996 0
M  V30 51 H -4.206250 0.886173 -0.484307 0
M  V30 52 H -2.559594 0.272372 -0.284558 0
M  V30 END ATOM
M  V30 BEGIN BOND
M  V30 1 1 1 2
M  V30 2 1 2 3
M  V30 3 1 3 4
M  V30 4 1 4 5
M  V30 5 2 5 6
M  V30 6 1 6 7
M  V30 7 2 7 8
M  V30 8 1 8 9
M  V30 9 2 9 10
M  V30 10 1 10 11
M  V30 11 2 11 12
M  V30 12 1 12 13
M  V30 13 1 13 14
M  V30 14 2 14 15
M  V30 15 1 15 16
M  V30 16 2 16 17
M  V30 17 1 17 18
M  V30 18 1 18 19
M  V30 19 1 19 20
M  V30 20 1 20 21
M  V30 21 1 21 22
M  V30 22 1 22 23
M  V30 23 1 23 24
M  V30 24 1 23 25
M  V30 25 1 25 26
M  V30 26 2 18 27
M  V30 27 1 10 5
M  V30 28 1 27 14
M  V30 29 1 13 9
M  V30 30 1 26 20
M  V30 31 1 1 28
M  V30 32 1 1 29
M  V30 33 1 1 30
M  V30 34 1 2 31
M  V30 35 1 2 32
M  V30 36 1 3 33
M  V30 37 1 3 34
M  V30 38 1 6 35
M  V30 39 1 7 36
M  V30 40 1 8 37
M  V30 41 1 11 38
M  V30 42 1 15 39
M  V30 43 1 16 40
M  V30 44 1 19 41
M  V30 45 1 20 42 CFG=1
M  V30 46 1 21 43
M  V30 47 1 21 44
M  V30 48 1 22 45
M  V30 49 1 22 46
M  V30 50 1 23 47 CFG=3
M  V30 51 1 24 48
M  V30 52 1 25 49
M  V30 53 1 25 50
M  V30 54 1 26 51
M  V30 55 1 26 52
M  V30 END BOND
M  V30 END CTAB
M  END
>  <Dataset>  (386) 
ChEMBL_Kinases

>  <Ligand_Instance>  (386) 
nan

>  <PDB_ID>  (386) 
nan

>  <Standardized_SMILES>  (386) 
CCCOc1cccc2c1cnn2-c1ccnc(N[C@H]2CC[C@H](O)CC2)n1

>  <Name>  (386) 
nan

>  <Pocket>  (386) 
nan

>  <ATP_Site>  (386) 
nan

>  <Peripheral>  (386) 
nan

>  <Num_H_Atoms_ProtBoundConf>  (386) 
nan

>  <Num_Resolved_Atoms>  (386) 
nan

>  <Num_Not_Resolved_Atoms>  (386) 
nan

$$$$
CHEMBL2425640
     RDKit          3D

  0  0  0  0  0  0  0  0  0  0999 V3000
M  V30 BEGIN CTAB
M  V30 COUNTS 53 56 0 0 0
M  V30 BEGIN ATOM
M  V30 1 O 7.204676 -0.709391 6.448904 0
M  V30 2 C 6.673032 -1.840928 5.806866 0
M  V30 3 C 5.343291 -1.482701 5.128433 0
M  V30 4 C 5.639526 -0.411395 4.137894 0
M  V30 5 O 4.590727 0.083388 3.395494 0
M  V30 6 C 3.795098 -0.583652 2.511901 0
M  V30 7 C 3.721658 -1.872160 2.038445 0
M  V30 8 C 2.809838 -2.335280 1.120668 0
M  V30 9 C 1.877187 -1.456534 0.613128 0
M  V30 10 C 1.902610 -0.169041 1.045075 0
M  V30 11 C 2.834269 0.291718 1.979103 0
M  V30 12 C 2.478978 1.640178 2.108785 0
M  V30 13 N 1.431916 1.899027 1.306690 0
M  V30 14 N 1.069357 0.810638 0.653421 0
M  V30 15 C -0.008760 0.762154 -0.273450 0
M  V30 16 C -0.018089 1.486317 -1.448220 0
M  V30 17 C -1.126010 1.347458 -2.256368 0
M  V30 18 N -2.138448 0.539153 -1.897609 0
M  V30 19 C -2.144685 -0.171727 -0.758735 0
M  V30 20 N -3.202673 -1.029303 -0.361828 0
M  V30 21 C -4.381472 -1.214079 -1.165757 0 CFG=1
M  V30 22 C -5.024446 0.163340 -1.344326 0
M  V30 23 C -6.469635 -0.098118 -1.712222 0
M  V30 24 C -6.514531 -1.219782 -2.708911 0 CFG=2
M  V30 25 O -6.860118 -2.451010 -2.117719 0
M  V30 26 C -5.208039 -1.362855 -3.470110 0
M  V30 27 C -4.062804 -1.743982 -2.530185 0
M  V30 28 N -1.058354 -0.026410 0.018900 0
M  V30 29 H 7.680024 -0.946743 7.286135 0
M  V30 30 H 6.527520 -2.636855 6.573013 0
M  V30 31 H 7.374594 -2.247483 5.049840 0
M  V30 32 H 4.961336 -2.424750 4.725872 0
M  V30 33 H 4.638039 -1.150771 5.932232 0
M  V30 34 H 6.058136 0.452376 4.728829 0
M  V30 35 H 6.483631 -0.798021 3.501716 0
M  V30 36 H 4.482171 -2.506162 2.463343 0
M  V30 37 H 2.914135 -3.383582 0.874420 0
M  V30 38 H 1.189523 -1.882050 -0.103269 0
M  V30 39 H 2.999293 2.316648 2.764262 0
M  V30 40 H 0.844214 2.104967 -1.641677 0
M  V30 41 H -1.126913 1.917626 -3.175746 0
M  V30 42 H -3.132940 -1.541240 0.530674 0
M  V30 43 H -5.126995 -1.883287 -0.649053 0
M  V30 44 H -4.894306 0.733457 -0.423772 0
M  V30 45 H -4.499325 0.671590 -2.174452 0
M  V30 46 H -6.960746 0.822566 -2.100759 0
M  V30 47 H -6.975257 -0.470801 -0.785247 0
M  V30 48 H -7.281670 -0.985944 -3.484440 0
M  V30 49 H -6.213172 -3.149588 -2.431198 0
M  V30 50 H -5.014115 -0.442386 -4.026628 0
M  V30 51 H -5.383301 -2.176770 -4.204936 0
M  V30 52 H -3.094073 -1.391264 -2.880753 0
M  V30 53 H -4.017837 -2.860539 -2.549072 0
M  V30 END ATOM
M  V30 BEGIN BOND
M  V30 1 1 1 2
M  V30 2 1 2 3
M  V30 3 1 3 4
M  V30 4 1 4 5
M  V30 5 1 5 6
M  V30 6 2 6 7
M  V30 7 1 7 8
M  V30 8 2 8 9
M  V30 9 1 9 10
M  V30 10 2 10 11
M  V30 11 1 11 12
M  V30 12 2 12 13
M  V30 13 1 13 14
M  V30 14 1 14 15
M  V30 15 2 15 16
M  V30 16 1 16 17
M  V30 17 2 17 18
M  V30 18 1 18 19
M  V30 19 1 19 20
M  V30 20 1 20 21
M  V30 21 1 21 22
M  V30 22 1 22 23
M  V30 23 1 23 24
M  V30 24 1 24 25
M  V30 25 1 24 26
M  V30 26 1 26 27
M  V30 27 2 19 28
M  V30 28 1 11 6
M  V30 29 1 28 15
M  V30 30 1 14 10
M  V30 31 1 27 21
M  V30 32 1 1 29
M  V30 33 1 2 30
M  V30 34 1 2 31
M  V30 35 1 3 32
M  V30 36 1 3 33
M  V30 37 1 4 34
M  V30 38 1 4 35
M  V30 39 1 7 36
M  V30 40 1 8 37
M  V30 41 1 9 38
M  V30 42 1 12 39
M  V30 43 1 16 40
M  V30 44 1 17 41
M  V30 45 1 20 42
M  V30 46 1 21 43 CFG=1
M  V30 47 1 22 44
M  V30 48 1 22 45
M  V30 49 1 23 46
M  V30 50 1 23 47
M  V30 51 1 24 48 CFG=3
M  V30 52 1 25 49
M  V30 53 1 26 50
M  V30 54 1 26 51
M  V30 55 1 27 52
M  V30 56 1 27 53
M  V30 END BOND
M  V30 END CTAB
M  END
>  <Dataset>  (387) 
ChEMBL_Kinases

>  <Ligand_Instance>  (387) 
nan

>  <PDB_ID>  (387) 
nan

>  <Standardized_SMILES>  (387) 
OCCCOc1cccc2c1cnn2-c1ccnc(N[C@H]2CC[C@H](O)CC2)n1

>  <Name>  (387) 
nan

>  <Pocket>  (387) 
nan

>  <ATP_Site>  (387) 
nan

>  <Peripheral>  (387) 
nan

>  <Num_H_Atoms_ProtBoundConf>  (387) 
nan

>  <Num_Resolved_Atoms>  (387) 
nan

>  <Num_Not_Resolved_Atoms>  (387) 
nan

$$$$
CHEMBL2425641
     RDKit          3D

  0  0  0  0  0  0  0  0  0  0999 V3000
M  V30 BEGIN CTAB
M  V30 COUNTS 46 49 0 0 0
M  V30 BEGIN ATOM
M  V30 1 C 3.612690 -5.556460 -1.037706 0
M  V30 2 O 2.900355 -4.514125 -1.717073 0
M  V30 3 C 2.727166 -3.328456 -1.008229 0
M  V30 4 C 3.206172 -3.137165 0.285079 0
M  V30 5 C 3.016277 -1.947466 0.958853 0
M  V30 6 C 2.328980 -0.955298 0.290690 0
M  V30 7 C 1.824586 -1.059845 -0.980334 0
M  V30 8 C 2.042181 -2.272164 -1.610901 0
M  V30 9 C 1.442734 -2.120428 -2.862721 0
M  V30 10 N 0.910932 -0.866978 -2.924309 0
M  V30 11 N 1.142327 -0.233187 -1.791967 0
M  V30 12 C 0.777833 1.095621 -1.393803 0
M  V30 13 C 0.946472 2.246903 -2.104177 0
M  V30 14 C 0.521115 3.425478 -1.528687 0
M  V30 15 N -0.041795 3.441049 -0.307049 0
M  V30 16 C -0.211850 2.308960 0.400692 0
M  V30 17 N -0.811669 2.302170 1.709558 0
M  V30 18 C -0.996925 1.063771 2.481823 0 CFG=1
M  V30 19 C -1.637035 1.432684 3.768741 0
M  V30 20 C -3.115739 1.087260 3.852128 0
M  V30 21 C -3.154074 -0.416064 3.663410 0 CFG=2
M  V30 22 O -2.310121 -1.046931 4.560307 0
M  V30 23 C -2.830147 -0.678795 2.222712 0
M  V30 24 C -1.621927 -0.028536 1.695800 0
M  V30 25 N 0.206959 1.193487 -0.179333 0
M  V30 26 H 2.992568 -5.923381 -0.174563 0
M  V30 27 H 3.840526 -6.398679 -1.726233 0
M  V30 28 H 4.571534 -5.161398 -0.643004 0
M  V30 29 H 3.741643 -3.946676 0.771411 0
M  V30 30 H 3.384858 -1.789116 1.964478 0
M  V30 31 H 2.173956 -0.017985 0.808940 0
M  V30 32 H 1.408436 -2.854124 -3.630346 0
M  V30 33 H 1.410126 2.132956 -3.080275 0
M  V30 34 H 0.658316 4.328842 -2.096710 0
M  V30 35 H -1.113973 3.250279 2.085976 0
M  V30 36 H 0.065675 0.755358 2.714479 0
M  V30 37 H -1.149272 0.879394 4.608572 0
M  V30 38 H -1.538273 2.508692 3.977572 0
M  V30 39 H -3.428732 1.374864 4.892480 0
M  V30 40 H -3.721132 1.543500 3.066180 0
M  V30 41 H -4.184908 -0.778933 3.851894 0
M  V30 42 H -1.808066 -1.806137 4.186960 0
M  V30 43 H -3.746476 -0.379894 1.643929 0
M  V30 44 H -2.798178 -1.786466 2.112588 0
M  V30 45 H -0.876220 -0.832274 1.422831 0
M  V30 46 H -1.869610 0.419224 0.687239 0
M  V30 END ATOM
M  V30 BEGIN BOND
M  V30 1 1 1 2
M  V30 2 1 2 3
M  V30 3 2 3 4
M  V30 4 1 4 5
M  V30 5 2 5 6
M  V30 6 1 6 7
M  V30 7 2 7 8
M  V30 8 1 8 9
M  V30 9 2 9 10
M  V30 10 1 10 11
M  V30 11 1 11 12
M  V30 12 2 12 13
M  V30 13 1 13 14
M  V30 14 2 14 15
M  V30 15 1 15 16
M  V30 16 1 16 17
M  V30 17 1 17 18
M  V30 18 1 18 19
M  V30 19 1 19 20
M  V30 20 1 20 21
M  V30 21 1 21 22
M  V30 22 1 21 23
M  V30 23 1 23 24
M  V30 24 2 16 25
M  V30 25 1 8 3
M  V30 26 1 25 12
M  V30 27 1 11 7
M  V30 28 1 24 18
M  V30 29 1 1 26
M  V30 30 1 1 27
M  V30 31 1 1 28
M  V30 32 1 4 29
M  V30 33 1 5 30
M  V30 34 1 6 31
M  V30 35 1 9 32
M  V30 36 1 13 33
M  V30 37 1 14 34
M  V30 38 1 17 35
M  V30 39 1 18 36 CFG=1
M  V30 40 1 19 37
M  V30 41 1 19 38
M  V30 42 1 20 39
M  V30 43 1 20 40
M  V30 44 1 21 41 CFG=1
M  V30 45 1 22 42
M  V30 46 1 23 43
M  V30 47 1 23 44
M  V30 48 1 24 45
M  V30 49 1 24 46
M  V30 END BOND
M  V30 END CTAB
M  END
>  <Dataset>  (388) 
ChEMBL_Kinases

>  <Ligand_Instance>  (388) 
nan

>  <PDB_ID>  (388) 
nan

>  <Standardized_SMILES>  (388) 
COc1cccc2c1cnn2-c1ccnc(N[C@H]2CC[C@H](O)CC2)n1

>  <Name>  (388) 
nan

>  <Pocket>  (388) 
nan

>  <ATP_Site>  (388) 
nan

>  <Peripheral>  (388) 
nan

>  <Num_H_Atoms_ProtBoundConf>  (388) 
nan

>  <Num_Resolved_Atoms>  (388) 
nan

>  <Num_Not_Resolved_Atoms>  (388) 
nan

$$$$
CHEMBL2425642
     RDKit          3D

  0  0  0  0  0  0  0  0  0  0999 V3000
M  V30 BEGIN CTAB
M  V30 COUNTS 43 46 0 0 0
M  V30 BEGIN ATOM
M  V30 1 O 0.983191 -7.119382 1.494944 0
M  V30 2 C 1.017996 -5.729047 1.483037 0 CFG=1
M  V30 3 C 0.685000 -5.165074 0.139300 0
M  V30 4 C 0.888301 -3.655225 0.199153 0
M  V30 5 C -0.025926 -3.094940 1.242195 0 CFG=2
M  V30 6 N 0.139319 -1.658482 1.342804 0
M  V30 7 C -0.106636 -0.777063 0.256005 0
M  V30 8 N -0.513127 -1.176143 -0.957333 0
M  V30 9 C -0.750417 -0.356277 -1.996361 0
M  V30 10 C -0.570522 0.999788 -1.829912 0
M  V30 11 C -0.152452 1.446266 -0.593329 0
M  V30 12 C 0.058692 2.872192 -0.346024 0
M  V30 13 C -0.115751 3.904572 -1.245061 0
M  V30 14 N 0.189810 5.054719 -0.600154 0
M  V30 15 C 0.551044 4.765113 0.680651 0
M  V30 16 C 0.947373 5.617052 1.718258 0
M  V30 17 C 1.265971 5.068623 2.939996 0
M  V30 18 C 1.200258 3.688301 3.157413 0
M  V30 19 C 0.804019 2.894231 2.101921 0
M  V30 20 C 0.474696 3.401621 0.857750 0
M  V30 21 N 0.052851 0.530915 0.370362 0
M  V30 22 C 0.165892 -3.740920 2.596050 0
M  V30 23 C -0.000401 -5.222184 2.489495 0
M  V30 24 H 1.429014 -7.513891 0.705586 0
M  V30 25 H 2.018854 -5.377338 1.797446 0
M  V30 26 H 1.312486 -5.646611 -0.634363 0
M  V30 27 H -0.388550 -5.328125 -0.088720 0
M  V30 28 H 1.952167 -3.409077 0.387440 0
M  V30 29 H 0.562544 -3.282912 -0.791493 0
M  V30 30 H -1.064037 -3.369746 0.931132 0
M  V30 31 H 0.451914 -1.251184 2.249941 0
M  V30 32 H -1.082485 -0.751724 -2.965734 0
M  V30 33 H -0.743723 1.712963 -2.624343 0
M  V30 34 H -0.433562 3.798037 -2.258338 0
M  V30 35 H 0.171171 6.034563 -0.969525 0
M  V30 36 H 1.003163 6.685518 1.566174 0
M  V30 37 H 1.573970 5.720890 3.749406 0
M  V30 38 H 1.462990 3.344540 4.130803 0
M  V30 39 H 0.749693 1.809440 2.263968 0
M  V30 40 H -0.637876 -3.291926 3.246650 0
M  V30 41 H 1.155356 -3.550546 3.036839 0
M  V30 42 H 0.291974 -5.697344 3.462513 0
M  V30 43 H -0.999279 -5.563561 2.192249 0
M  V30 END ATOM
M  V30 BEGIN BOND
M  V30 1 1 1 2
M  V30 2 1 2 3
M  V30 3 1 3 4
M  V30 4 1 4 5
M  V30 5 1 5 6
M  V30 6 1 6 7
M  V30 7 2 7 8
M  V30 8 1 8 9
M  V30 9 2 9 10
M  V30 10 1 10 11
M  V30 11 1 11 12
M  V30 12 2 12 13
M  V30 13 1 13 14
M  V30 14 1 14 15
M  V30 15 2 15 16
M  V30 16 1 16 17
M  V30 17 2 17 18
M  V30 18 1 18 19
M  V30 19 2 19 20
M  V30 20 2 11 21
M  V30 21 1 5 22
M  V30 22 1 22 23
M  V30 23 1 23 2
M  V30 24 1 21 7
M  V30 25 1 20 12
M  V30 26 1 20 15
M  V30 27 1 1 24
M  V30 28 1 2 25 CFG=1
M  V30 29 1 3 26
M  V30 30 1 3 27
M  V30 31 1 4 28
M  V30 32 1 4 29
M  V30 33 1 5 30 CFG=3
M  V30 34 1 6 31
M  V30 35 1 9 32
M  V30 36 1 10 33
M  V30 37 1 13 34
M  V30 38 1 14 35
M  V30 39 1 16 36
M  V30 40 1 17 37
M  V30 41 1 18 38
M  V30 42 1 19 39
M  V30 43 1 22 40
M  V30 44 1 22 41
M  V30 45 1 23 42
M  V30 46 1 23 43
M  V30 END BOND
M  V30 END CTAB
M  END
>  <Dataset>  (389) 
ChEMBL_Kinases

>  <Ligand_Instance>  (389) 
nan

>  <PDB_ID>  (389) 
nan

>  <Standardized_SMILES>  (389) 
O[C@H]1CC[C@H](Nc2nccc(-c3c[nH]c4ccccc34)n2)CC1

>  <Name>  (389) 
nan

>  <Pocket>  (389) 
nan

>  <ATP_Site>  (389) 
nan

>  <Peripheral>  (389) 
nan

>  <Num_H_Atoms_ProtBoundConf>  (389) 
nan

>  <Num_Resolved_Atoms>  (389) 
nan

>  <Num_Not_Resolved_Atoms>  (389) 
nan

$$$$
CHEMBL3715005
     RDKit          3D

  0  0  0  0  0  0  0  0  0  0999 V3000
M  V30 BEGIN CTAB
M  V30 COUNTS 64 68 0 0 0
M  V30 BEGIN ATOM
M  V30 1 O -4.213780 -1.004621 0.005959 0
M  V30 2 C -3.049927 -0.853021 -0.447262 0
M  V30 3 N -2.925563 0.292743 -1.282113 0
M  V30 4 C -3.809998 1.322854 -1.734869 0
M  V30 5 C -3.411639 2.690144 -1.319049 0
M  V30 6 O -3.870106 3.872993 -1.482734 0
M  V30 7 N -2.215676 2.765829 -0.530863 0
M  V30 8 C -1.406843 3.797975 0.114155 0
M  V30 9 C -1.351060 3.627051 1.593013 0
M  V30 10 C 0.032317 3.463955 2.163078 0
M  V30 11 C 0.873655 2.503769 1.315306 0
M  V30 12 C 1.115015 3.261667 0.035781 0
M  V30 13 C 2.324805 3.389532 -0.608072 0
M  V30 14 C 2.446129 4.101801 -1.770034 0
M  V30 15 C 1.326802 4.702572 -2.302439 0
M  V30 16 C 0.114325 4.562114 -1.637901 0
M  V30 17 C -0.036095 3.839764 -0.449569 0
M  V30 18 C -3.966632 1.339136 -3.213239 0
M  V30 19 C -2.913174 1.232365 -4.101454 0
M  V30 20 C -3.076392 1.247944 -5.472414 0
M  V30 21 C -4.324398 1.373508 -6.019677 0
M  V30 22 N -5.357120 1.478223 -5.162229 0
M  V30 23 C -5.214129 1.464590 -3.836143 0
M  V30 24 C -1.872198 -1.684820 -0.220018 0
M  V30 25 C -0.605758 -1.489196 -0.732527 0
M  V30 26 C 0.387803 -2.393746 -0.400069 0
M  V30 27 C 0.145986 -3.487139 0.430896 0
M  V30 28 N 1.318338 -4.250330 0.610204 0
M  V30 29 N 1.448718 -5.466025 0.301808 0
M  V30 30 C 2.668455 -6.190234 0.508362 0
M  V30 31 C 3.016710 -7.130352 1.457099 0
M  V30 32 C 4.286748 -7.663724 1.403775 0
M  V30 33 C 5.209905 -7.313218 0.469345 0
M  V30 34 C 4.870750 -6.380021 -0.475936 0
M  V30 35 C 3.597219 -5.808700 -0.466819 0
M  V30 36 C -1.129156 -3.657814 0.928678 0
M  V30 37 C -2.126537 -2.762053 0.603485 0
M  V30 38 H -2.049555 0.601455 -1.758939 0
M  V30 39 H -4.851932 1.190380 -1.327902 0
M  V30 40 H -1.656467 1.926887 -0.261468 0
M  V30 41 H -1.900743 4.790063 -0.104537 0
M  V30 42 H -1.791639 4.518580 2.127364 0
M  V30 43 H -1.941210 2.759868 1.961223 0
M  V30 44 H 0.574995 4.440441 2.163280 0
M  V30 45 H -0.080388 3.071359 3.203278 0
M  V30 46 H 0.263047 1.597720 1.145213 0
M  V30 47 H 1.800453 2.287408 1.857662 0
M  V30 48 H 3.097887 2.856721 -0.055145 0
M  V30 49 H 3.450701 4.121499 -2.168446 0
M  V30 50 H 1.447518 5.249661 -3.204763 0
M  V30 51 H -0.696508 5.072780 -2.142136 0
M  V30 52 H -1.920926 1.132848 -3.721881 0
M  V30 53 H -2.244540 1.163478 -6.160496 0
M  V30 54 H -4.566767 1.397195 -7.075465 0
M  V30 55 H -6.107033 1.554889 -3.211067 0
M  V30 56 H -0.480367 -0.629015 -1.367283 0
M  V30 57 H 1.340150 -2.127000 -0.868289 0
M  V30 58 H 2.203375 -7.315669 2.130892 0
M  V30 59 H 4.473617 -8.396259 2.190515 0
M  V30 60 H 6.191993 -7.762709 0.472912 0
M  V30 61 H 5.640549 -6.129518 -1.204329 0
M  V30 62 H 3.475058 -5.095160 -1.264581 0
M  V30 63 H -1.205457 -4.532755 1.559057 0
M  V30 64 H -3.078351 -3.033542 1.075128 0
M  V30 END ATOM
M  V30 BEGIN BOND
M  V30 1 2 1 2
M  V30 2 1 2 3
M  V30 3 1 3 4
M  V30 4 1 4 5
M  V30 5 2 5 6
M  V30 6 1 5 7
M  V30 7 1 7 8
M  V30 8 1 8 9
M  V30 9 1 9 10
M  V30 10 1 10 11
M  V30 11 1 11 12
M  V30 12 2 12 13
M  V30 13 1 13 14
M  V30 14 2 14 15
M  V30 15 1 15 16
M  V30 16 2 16 17
M  V30 17 1 4 18
M  V30 18 2 18 19
M  V30 19 1 19 20
M  V30 20 2 20 21
M  V30 21 1 21 22
M  V30 22 2 22 23
M  V30 23 1 2 24
M  V30 24 2 24 25
M  V30 25 1 25 26
M  V30 26 2 26 27
M  V30 27 1 27 28
M  V30 28 2 28 29
M  V30 29 1 29 30
M  V30 30 2 30 31
M  V30 31 1 31 32
M  V30 32 2 32 33
M  V30 33 1 33 34
M  V30 34 2 34 35
M  V30 35 1 27 36
M  V30 36 2 36 37
M  V30 37 1 17 8
M  V30 38 1 23 18
M  V30 39 1 37 24
M  V30 40 1 17 12
M  V30 41 1 35 30
M  V30 42 1 3 38
M  V30 43 1 4 39
M  V30 44 1 7 40
M  V30 45 1 8 41
M  V30 46 1 9 42
M  V30 47 1 9 43
M  V30 48 1 10 44
M  V30 49 1 10 45
M  V30 50 1 11 46
M  V30 51 1 11 47
M  V30 52 1 13 48
M  V30 53 1 14 49
M  V30 54 1 15 50
M  V30 55 1 16 51
M  V30 56 1 19 52
M  V30 57 1 20 53
M  V30 58 1 21 54
M  V30 59 1 23 55
M  V30 60 1 25 56
M  V30 61 1 26 57
M  V30 62 1 31 58
M  V30 63 1 32 59
M  V30 64 1 33 60
M  V30 65 1 34 61
M  V30 66 1 35 62
M  V30 67 1 36 63
M  V30 68 1 37 64
M  V30 END BOND
M  V30 END CTAB
M  END
>  <Dataset>  (390) 
ChEMBL_Kinases

>  <Ligand_Instance>  (390) 
nan

>  <PDB_ID>  (390) 
nan

>  <Standardized_SMILES>  (390) 
O=C(NC(C(=O)NC1CCCc2ccccc21)c1cccnc1)c1ccc(/N=N/c2ccccc2)cc1

>  <Name>  (390) 
nan

>  <Pocket>  (390) 
nan

>  <ATP_Site>  (390) 
nan

>  <Peripheral>  (390) 
nan

>  <Num_H_Atoms_ProtBoundConf>  (390) 
nan

>  <Num_Resolved_Atoms>  (390) 
nan

>  <Num_Not_Resolved_Atoms>  (390) 
nan

$$$$
CHEMBL4452239
     RDKit          3D

  0  0  0  0  0  0  0  0  0  0999 V3000
M  V30 BEGIN CTAB
M  V30 COUNTS 21 22 0 0 0
M  V30 BEGIN ATOM
M  V30 1 N -0.126957 0.999137 4.522155 0
M  V30 2 C 0.096533 0.709992 3.126011 0
M  V30 3 C 0.059877 -0.629618 2.798126 0
M  V30 4 C 0.272511 -0.917661 1.464654 0
M  V30 5 C 0.513321 0.034867 0.467898 0
M  V30 6 N 0.717526 -0.360332 -0.860331 0
M  V30 7 C 0.192576 -1.507568 -1.386897 0
M  V30 8 N 0.544666 -1.638031 -2.673315 0
M  V30 9 C 1.303351 -0.580559 -3.006482 0
M  V30 10 Cl 1.976745 -0.352964 -4.597590 0
M  V30 11 C 1.392505 0.185988 -1.875459 0
M  V30 12 Cl 2.267581 1.676295 -1.766679 0
M  V30 13 C 0.528393 1.343163 0.906847 0
M  V30 14 C 0.325126 1.731394 2.226882 0
M  V30 15 H 0.623719 0.640382 5.152657 0
M  V30 16 H 0.595418 0.658219 5.166343 0
M  V30 17 H -0.119530 -1.417263 3.509376 0
M  V30 18 H 0.257761 -1.960213 1.130670 0
M  V30 19 H -0.425809 -2.231382 -0.863732 0
M  V30 20 H 0.707370 2.131641 0.198358 0
M  V30 21 H 0.345156 2.769677 2.529063 0
M  V30 END ATOM
M  V30 BEGIN BOND
M  V30 1 1 1 2
M  V30 2 2 2 3
M  V30 3 1 3 4
M  V30 4 2 4 5
M  V30 5 1 5 6
M  V30 6 1 6 7
M  V30 7 2 7 8
M  V30 8 1 8 9
M  V30 9 1 9 10
M  V30 10 2 9 11
M  V30 11 1 11 12
M  V30 12 1 5 13
M  V30 13 2 13 14
M  V30 14 1 14 2
M  V30 15 1 11 6
M  V30 16 1 1 15
M  V30 17 1 1 16
M  V30 18 1 3 17
M  V30 19 1 4 18
M  V30 20 1 7 19
M  V30 21 1 13 20
M  V30 22 1 14 21
M  V30 END BOND
M  V30 END CTAB
M  END
>  <Dataset>  (391) 
ChEMBL_Kinases

>  <Ligand_Instance>  (391) 
nan

>  <PDB_ID>  (391) 
nan

>  <Standardized_SMILES>  (391) 
Nc1ccc(-n2cnc(Cl)c2Cl)cc1

>  <Name>  (391) 
nan

>  <Pocket>  (391) 
nan

>  <ATP_Site>  (391) 
nan

>  <Peripheral>  (391) 
nan

>  <Num_H_Atoms_ProtBoundConf>  (391) 
nan

>  <Num_Resolved_Atoms>  (391) 
nan

>  <Num_Not_Resolved_Atoms>  (391) 
nan

$$$$
CHEMBL3715041
     RDKit          3D

  0  0  0  0  0  0  0  0  0  0999 V3000
M  V30 BEGIN CTAB
M  V30 COUNTS 49 52 0 0 0
M  V30 BEGIN ATOM
M  V30 1 O 0.710996 -4.158101 2.813136 0
M  V30 2 C 0.456605 -3.182954 2.076061 0
M  V30 3 C 1.490703 -2.140527 2.288159 0
M  V30 4 N 1.236707 -0.984089 1.450488 0
M  V30 5 C 2.264163 -0.031178 1.706680 0
M  V30 6 O 3.112337 -0.430111 2.577674 0
M  V30 7 C 2.360731 1.289256 1.046043 0
M  V30 8 C 1.489789 1.786500 0.102658 0
M  V30 9 C 1.681776 3.030835 -0.442511 0
M  V30 10 C 2.742822 3.835175 -0.077592 0
M  V30 11 C 2.941566 5.091017 -0.624003 0
M  V30 12 C 4.014816 5.863360 -0.231940 0
M  V30 13 C 4.859367 5.321778 0.715892 0
M  V30 14 C 4.709359 4.090745 1.285804 0
M  V30 15 C 3.611979 3.331687 0.867890 0
M  V30 16 C 3.423823 2.072426 1.424289 0
M  V30 17 N -0.650495 -3.110480 1.188065 0
M  V30 18 C -1.619961 -4.174498 1.037482 0
M  V30 19 C -1.599362 -4.717637 -0.397842 0
M  V30 20 C -1.571352 -3.517316 -1.344814 0
M  V30 21 C -2.728118 -2.599816 -1.114510 0
M  V30 22 C -3.464801 -2.923937 0.135325 0
M  V30 23 C -4.755715 -2.403141 0.196765 0
M  V30 24 C -5.570023 -2.613371 1.288847 0
M  V30 25 C -5.103052 -3.354495 2.347286 0
M  V30 26 C -3.837888 -3.872005 2.300964 0
M  V30 27 C -3.016684 -3.666325 1.212014 0
M  V30 28 H 2.478974 -2.571484 2.021454 0
M  V30 29 H 1.480456 -1.857704 3.376706 0
M  V30 30 H 0.529576 -0.663901 0.731559 0
M  V30 31 H 0.675451 1.155839 -0.169956 0
M  V30 32 H 0.963380 3.368489 -1.180291 0
M  V30 33 H 2.241803 5.469644 -1.370388 0
M  V30 34 H 4.146531 6.841751 -0.675323 0
M  V30 35 H 5.711861 5.907005 1.043047 0
M  V30 36 H 5.404267 3.700309 2.035026 0
M  V30 37 H 4.142849 1.744936 2.156941 0
M  V30 38 H -0.748040 -2.237847 0.628078 0
M  V30 39 H -1.406667 -5.036437 1.680005 0
M  V30 40 H -2.558645 -5.214984 -0.574577 0
M  V30 41 H -0.716457 -5.340946 -0.601538 0
M  V30 42 H -1.618726 -3.947787 -2.366068 0
M  V30 43 H -0.585620 -3.001485 -1.272825 0
M  V30 44 H -2.445737 -1.518080 -1.135161 0
M  V30 45 H -3.450731 -2.690078 -1.978269 0
M  V30 46 H -5.189325 -1.801547 -0.616803 0
M  V30 47 H -6.577448 -2.229785 1.381455 0
M  V30 48 H -5.699428 -3.553104 3.234348 0
M  V30 49 H -3.375511 -4.463053 3.069868 0
M  V30 END ATOM
M  V30 BEGIN BOND
M  V30 1 2 1 2
M  V30 2 1 2 3
M  V30 3 1 3 4
M  V30 4 1 4 5
M  V30 5 2 5 6
M  V30 6 1 5 7
M  V30 7 2 7 8
M  V30 8 1 8 9
M  V30 9 2 9 10
M  V30 10 1 10 11
M  V30 11 2 11 12
M  V30 12 1 12 13
M  V30 13 2 13 14
M  V30 14 1 14 15
M  V30 15 2 15 16
M  V30 16 1 2 17
M  V30 17 1 17 18
M  V30 18 1 18 19
M  V30 19 1 19 20
M  V30 20 1 20 21
M  V30 21 1 21 22
M  V30 22 2 22 23
M  V30 23 1 23 24
M  V30 24 2 24 25
M  V30 25 1 25 26
M  V30 26 2 26 27
M  V30 27 1 16 7
M  V30 28 1 27 18
M  V30 29 1 15 10
M  V30 30 1 27 22
M  V30 31 1 3 28
M  V30 32 1 3 29
M  V30 33 1 4 30
M  V30 34 1 8 31
M  V30 35 1 9 32
M  V30 36 1 11 33
M  V30 37 1 12 34
M  V30 38 1 13 35
M  V30 39 1 14 36
M  V30 40 1 16 37
M  V30 41 1 17 38
M  V30 42 1 18 39
M  V30 43 1 19 40
M  V30 44 1 19 41
M  V30 45 1 20 42
M  V30 46 1 20 43
M  V30 47 1 21 44
M  V30 48 1 21 45
M  V30 49 1 23 46
M  V30 50 1 24 47
M  V30 51 1 25 48
M  V30 52 1 26 49
M  V30 END BOND
M  V30 END CTAB
M  END
>  <Dataset>  (392) 
ChEMBL_Kinases

>  <Ligand_Instance>  (392) 
nan

>  <PDB_ID>  (392) 
nan

>  <Standardized_SMILES>  (392) 
O=C(CNC(=O)c1ccc2ccccc2c1)NC1CCCc2ccccc21

>  <Name>  (392) 
nan

>  <Pocket>  (392) 
nan

>  <ATP_Site>  (392) 
nan

>  <Peripheral>  (392) 
nan

>  <Num_H_Atoms_ProtBoundConf>  (392) 
nan

>  <Num_Resolved_Atoms>  (392) 
nan

>  <Num_Not_Resolved_Atoms>  (392) 
nan

$$$$
CHEMBL2425644
     RDKit          3D

  0  0  0  0  0  0  0  0  0  0999 V3000
M  V30 BEGIN CTAB
M  V30 COUNTS 42 45 0 0 0
M  V30 BEGIN ATOM
M  V30 1 O 1.664341 -6.804292 1.182562 0
M  V30 2 C 0.785243 -5.826444 0.728286 0 CFG=1
M  V30 3 C 0.487721 -4.877396 1.867752 0
M  V30 4 C 1.562239 -3.810771 1.988990 0
M  V30 5 C 1.594444 -2.926105 0.741823 0 CFG=2
M  V30 6 N 1.098542 -1.613173 1.005137 0
M  V30 7 C 1.018114 -0.587117 0.023384 0
M  V30 8 N 1.411031 -0.783741 -1.247836 0
M  V30 9 C 1.346294 0.167130 -2.195172 0
M  V30 10 C 0.853628 1.412430 -1.859131 0
M  V30 11 C 0.445612 1.631905 -0.558348 0
M  V30 12 C -0.075464 2.947648 -0.201243 0
M  V30 13 N -0.214799 4.019858 -1.012852 0
M  V30 14 N -0.724868 5.034929 -0.319635 0
M  V30 15 C -0.940391 4.669073 0.974032 0
M  V30 16 C -1.440332 5.323085 2.082670 0
M  V30 17 C -1.532285 4.643830 3.293314 0
M  V30 18 C -1.108781 3.329060 3.312063 0
M  V30 19 C -0.598104 2.629424 2.219376 0
M  V30 20 C -0.527920 3.352532 1.037645 0
M  V30 21 N 0.551422 0.618707 0.308722 0
M  V30 22 C 0.893522 -3.622326 -0.404836 0
M  V30 23 C 1.374024 -5.065466 -0.441111 0
M  V30 24 H 1.912826 -6.640295 2.145610 0
M  V30 25 H -0.172794 -6.287383 0.422462 0
M  V30 26 H -0.476641 -4.357807 1.690712 0
M  V30 27 H 0.480235 -5.432482 2.813302 0
M  V30 28 H 2.550562 -4.244207 2.222525 0
M  V30 29 H 1.245279 -3.166595 2.832690 0
M  V30 30 H 2.671899 -2.814054 0.481010 0
M  V30 31 H 0.780276 -1.403229 1.971253 0
M  V30 32 H 1.696445 -0.124167 -3.181889 0
M  V30 33 H 0.816333 2.156291 -2.651845 0
M  V30 34 H -0.957012 6.002704 -0.641042 0
M  V30 35 H -1.757433 6.348432 2.017162 0
M  V30 36 H -1.914429 5.102500 4.192636 0
M  V30 37 H -1.182544 2.796091 4.268217 0
M  V30 38 H -0.296098 1.600359 2.347971 0
M  V30 39 H -0.194126 -3.533975 -0.286722 0
M  V30 40 H 1.248229 -3.155206 -1.341770 0
M  V30 41 H 2.481963 -5.002921 -0.405270 0
M  V30 42 H 1.008689 -5.499380 -1.390890 0
M  V30 END ATOM
M  V30 BEGIN BOND
M  V30 1 1 1 2
M  V30 2 1 2 3
M  V30 3 1 3 4
M  V30 4 1 4 5
M  V30 5 1 5 6
M  V30 6 1 6 7
M  V30 7 2 7 8
M  V30 8 1 8 9
M  V30 9 2 9 10
M  V30 10 1 10 11
M  V30 11 1 11 12
M  V30 12 2 12 13
M  V30 13 1 13 14
M  V30 14 1 14 15
M  V30 15 2 15 16
M  V30 16 1 16 17
M  V30 17 2 17 18
M  V30 18 1 18 19
M  V30 19 2 19 20
M  V30 20 2 11 21
M  V30 21 1 5 22
M  V30 22 1 22 23
M  V30 23 1 23 2
M  V30 24 1 21 7
M  V30 25 1 20 12
M  V30 26 1 20 15
M  V30 27 1 1 24
M  V30 28 1 2 25 CFG=3
M  V30 29 1 3 26
M  V30 30 1 3 27
M  V30 31 1 4 28
M  V30 32 1 4 29
M  V30 33 1 5 30 CFG=3
M  V30 34 1 6 31
M  V30 35 1 9 32
M  V30 36 1 10 33
M  V30 37 1 14 34
M  V30 38 1 16 35
M  V30 39 1 17 36
M  V30 40 1 18 37
M  V30 41 1 19 38
M  V30 42 1 22 39
M  V30 43 1 22 40
M  V30 44 1 23 41
M  V30 45 1 23 42
M  V30 END BOND
M  V30 END CTAB
M  END
>  <Dataset>  (393) 
ChEMBL_Kinases

>  <Ligand_Instance>  (393) 
nan

>  <PDB_ID>  (393) 
nan

>  <Standardized_SMILES>  (393) 
O[C@H]1CC[C@H](Nc2nccc(-c3n[nH]c4ccccc34)n2)CC1

>  <Name>  (393) 
nan

>  <Pocket>  (393) 
nan

>  <ATP_Site>  (393) 
nan

>  <Peripheral>  (393) 
nan

>  <Num_H_Atoms_ProtBoundConf>  (393) 
nan

>  <Num_Resolved_Atoms>  (393) 
nan

>  <Num_Not_Resolved_Atoms>  (393) 
nan

$$$$
CHEMBL3715050
     RDKit          3D

  0  0  0  0  0  0  0  0  0  0999 V3000
M  V30 BEGIN CTAB
M  V30 COUNTS 55 57 0 0 0
M  V30 BEGIN ATOM
M  V30 1 C 4.107207 -7.047434 1.553351 0
M  V30 2 C 4.778714 -5.845294 0.944333 0
M  V30 3 C 3.856114 -4.663917 0.917388 0
M  V30 4 C 4.603461 -3.481805 0.287120 0
M  V30 5 C 3.739336 -2.273347 0.230899 0
M  V30 6 C 3.751684 -1.403141 1.301643 0
M  V30 7 C 2.963121 -0.271659 1.284777 0
M  V30 8 C 2.134903 0.058893 0.232842 0
M  V30 9 C 1.282759 1.240165 0.164441 0
M  V30 10 O 0.563639 1.423169 -0.873580 0
M  V30 11 N 1.190962 2.222672 1.187257 0
M  V30 12 C 0.367807 3.389740 1.164498 0
M  V30 13 C -1.087826 3.133947 1.079091 0
M  V30 14 O -1.655585 4.281759 1.050484 0
M  V30 15 N -1.903093 1.970645 1.028292 0
M  V30 16 C -3.332029 2.087099 0.942636 0
M  V30 17 C -3.984926 1.540734 2.188584 0
M  V30 18 C -4.638850 0.213380 2.014163 0
M  V30 19 C -4.001450 -0.591459 0.895134 0
M  V30 20 C -4.262985 0.157315 -0.363016 0
M  V30 21 C -4.798935 -0.330556 -1.544939 0
M  V30 22 C -4.969905 0.520778 -2.617636 0
M  V30 23 C -4.634737 1.857053 -2.590876 0
M  V30 24 C -4.106359 2.313457 -1.408659 0
M  V30 25 C -3.912354 1.496744 -0.294587 0
M  V30 26 C 2.146360 -0.831311 -0.820341 0
M  V30 27 C 2.921205 -1.971884 -0.838433 0
M  V30 28 H 4.804470 -7.833368 1.857968 0
M  V30 29 H 3.462768 -6.685862 2.378603 0
M  V30 30 H 3.435626 -7.463096 0.770204 0
M  V30 31 H 5.623944 -5.576550 1.609614 0
M  V30 32 H 5.157272 -6.066291 -0.085788 0
M  V30 33 H 2.939024 -4.823296 0.332593 0
M  V30 34 H 3.577214 -4.426459 1.952845 0
M  V30 35 H 5.474650 -3.247453 0.937653 0
M  V30 36 H 4.921635 -3.727201 -0.738364 0
M  V30 37 H 4.387263 -1.613588 2.160978 0
M  V30 38 H 2.997643 0.377905 2.128369 0
M  V30 39 H 1.811761 2.008461 2.005686 0
M  V30 40 H 0.710381 4.070344 0.344111 0
M  V30 41 H 0.572178 3.975097 2.098318 0
M  V30 42 H -1.295830 1.124556 1.069274 0
M  V30 43 H -3.559694 3.173265 0.930421 0
M  V30 44 H -4.785336 2.235231 2.577392 0
M  V30 45 H -3.243432 1.495386 2.997876 0
M  V30 46 H -5.733959 0.313715 1.870815 0
M  V30 47 H -4.509716 -0.369689 2.952140 0
M  V30 48 H -2.928416 -0.683863 1.132533 0
M  V30 49 H -4.444188 -1.602031 0.880310 0
M  V30 50 H -5.043463 -1.373284 -1.517611 0
M  V30 51 H -5.398450 0.092945 -3.536520 0
M  V30 52 H -4.784912 2.491616 -3.454906 0
M  V30 53 H -3.813844 3.369564 -1.309129 0
M  V30 54 H 1.550596 -0.699661 -1.704967 0
M  V30 55 H 2.941657 -2.673069 -1.648035 0
M  V30 END ATOM
M  V30 BEGIN BOND
M  V30 1 1 1 2
M  V30 2 1 2 3
M  V30 3 1 3 4
M  V30 4 1 4 5
M  V30 5 2 5 6
M  V30 6 1 6 7
M  V30 7 2 7 8
M  V30 8 1 8 9
M  V30 9 2 9 10
M  V30 10 1 9 11
M  V30 11 1 11 12
M  V30 12 1 12 13
M  V30 13 2 13 14
M  V30 14 1 13 15
M  V30 15 1 15 16
M  V30 16 1 16 17
M  V30 17 1 17 18
M  V30 18 1 18 19
M  V30 19 1 19 20
M  V30 20 2 20 21
M  V30 21 1 21 22
M  V30 22 2 22 23
M  V30 23 1 23 24
M  V30 24 2 24 25
M  V30 25 1 8 26
M  V30 26 2 26 27
M  V30 27 1 27 5
M  V30 28 1 25 16
M  V30 29 1 25 20
M  V30 30 1 1 28
M  V30 31 1 1 29
M  V30 32 1 1 30
M  V30 33 1 2 31
M  V30 34 1 2 32
M  V30 35 1 3 33
M  V30 36 1 3 34
M  V30 37 1 4 35
M  V30 38 1 4 36
M  V30 39 1 6 37
M  V30 40 1 7 38
M  V30 41 1 11 39
M  V30 42 1 12 40
M  V30 43 1 12 41
M  V30 44 1 15 42
M  V30 45 1 16 43
M  V30 46 1 17 44
M  V30 47 1 17 45
M  V30 48 1 18 46
M  V30 49 1 18 47
M  V30 50 1 19 48
M  V30 51 1 19 49
M  V30 52 1 21 50
M  V30 53 1 22 51
M  V30 54 1 23 52
M  V30 55 1 24 53
M  V30 56 1 26 54
M  V30 57 1 27 55
M  V30 END BOND
M  V30 END CTAB
M  END
>  <Dataset>  (394) 
ChEMBL_Kinases

>  <Ligand_Instance>  (394) 
nan

>  <PDB_ID>  (394) 
nan

>  <Standardized_SMILES>  (394) 
CCCCc1ccc(C(=O)NCC(=O)NC2CCCc3ccccc32)cc1

>  <Name>  (394) 
nan

>  <Pocket>  (394) 
nan

>  <ATP_Site>  (394) 
nan

>  <Peripheral>  (394) 
nan

>  <Num_H_Atoms_ProtBoundConf>  (394) 
nan

>  <Num_Resolved_Atoms>  (394) 
nan

>  <Num_Not_Resolved_Atoms>  (394) 
nan

$$$$
CHEMBL2425645
     RDKit          3D

  0  0  0  0  0  0  0  0  0  0999 V3000
M  V30 BEGIN CTAB
M  V30 COUNTS 42 45 0 0 0
M  V30 BEGIN ATOM
M  V30 1 O 1.896517 -5.668993 2.176880 0
M  V30 2 C 1.721308 -5.602737 0.804333 0 CFG=1
M  V30 3 C 0.328316 -5.244413 0.383228 0
M  V30 4 C 0.176228 -3.757999 0.135404 0
M  V30 5 C 0.946254 -3.071132 1.232076 0 CFG=2
M  V30 6 N 0.569928 -1.708483 1.439957 0
M  V30 7 C 0.690659 -0.744913 0.394377 0
M  V30 8 N 1.153954 -1.074206 -0.803690 0
M  V30 9 C 1.266476 -0.159428 -1.789920 0
M  V30 10 C 0.902619 1.171154 -1.598212 0
M  V30 11 C 0.427535 1.496996 -0.361386 0
M  V30 12 N 0.022096 2.847034 -0.055115 0
M  V30 13 N 0.272909 3.905457 -0.796417 0
M  V30 14 C -0.233555 5.022513 -0.247914 0
M  V30 15 C -0.844269 4.610660 0.926073 0
M  V30 16 C -1.529551 5.344012 1.894998 0
M  V30 17 C -2.028343 4.628002 2.964471 0
M  V30 18 C -1.864290 3.264144 3.078818 0
M  V30 19 C -1.176827 2.561183 2.097271 0
M  V30 20 C -0.668317 3.247438 1.019698 0
M  V30 21 N 0.341807 0.535356 0.574998 0
M  V30 22 C 2.419401 -3.249128 0.925673 0
M  V30 23 C 2.691753 -4.569720 0.265595 0
M  V30 24 H 1.087996 -5.979184 2.654516 0
M  V30 25 H 2.030735 -6.610299 0.409903 0
M  V30 26 H -0.051390 -5.852737 -0.458583 0
M  V30 27 H -0.339213 -5.466102 1.262297 0
M  V30 28 H -0.884923 -3.483452 0.094196 0
M  V30 29 H 0.583257 -3.525020 -0.887672 0
M  V30 30 H 0.713271 -3.653147 2.165317 0
M  V30 31 H 0.190995 -1.375230 2.375259 0
M  V30 32 H 1.644190 -0.389045 -2.793844 0
M  V30 33 H 0.969806 1.946263 -2.347088 0
M  V30 34 H -0.147015 6.003890 -0.683260 0
M  V30 35 H -1.649555 6.423577 1.787484 0
M  V30 36 H -2.565852 5.168476 3.734581 0
M  V30 37 H -2.262139 2.711199 3.926562 0
M  V30 38 H -1.073363 1.498781 2.228323 0
M  V30 39 H 2.950628 -3.245086 1.911037 0
M  V30 40 H 2.779110 -2.388128 0.337303 0
M  V30 41 H 3.739773 -4.837907 0.507419 0
M  V30 42 H 2.665976 -4.522193 -0.853229 0
M  V30 END ATOM
M  V30 BEGIN BOND
M  V30 1 1 1 2
M  V30 2 1 2 3
M  V30 3 1 3 4
M  V30 4 1 4 5
M  V30 5 1 5 6
M  V30 6 1 6 7
M  V30 7 2 7 8
M  V30 8 1 8 9
M  V30 9 2 9 10
M  V30 10 1 10 11
M  V30 11 1 11 12
M  V30 12 1 12 13
M  V30 13 2 13 14
M  V30 14 1 14 15
M  V30 15 2 15 16
M  V30 16 1 16 17
M  V30 17 2 17 18
M  V30 18 1 18 19
M  V30 19 2 19 20
M  V30 20 2 11 21
M  V30 21 1 5 22
M  V30 22 1 22 23
M  V30 23 1 23 2
M  V30 24 1 21 7
M  V30 25 1 20 12
M  V30 26 1 20 15
M  V30 27 1 1 24
M  V30 28 1 2 25 CFG=3
M  V30 29 1 3 26
M  V30 30 1 3 27
M  V30 31 1 4 28
M  V30 32 1 4 29
M  V30 33 1 5 30 CFG=1
M  V30 34 1 6 31
M  V30 35 1 9 32
M  V30 36 1 10 33
M  V30 37 1 14 34
M  V30 38 1 16 35
M  V30 39 1 17 36
M  V30 40 1 18 37
M  V30 41 1 19 38
M  V30 42 1 22 39
M  V30 43 1 22 40
M  V30 44 1 23 41
M  V30 45 1 23 42
M  V30 END BOND
M  V30 END CTAB
M  END
>  <Dataset>  (395) 
ChEMBL_Kinases

>  <Ligand_Instance>  (395) 
nan

>  <PDB_ID>  (395) 
nan

>  <Standardized_SMILES>  (395) 
O[C@H]1CC[C@H](Nc2nccc(-n3ncc4ccccc43)n2)CC1

>  <Name>  (395) 
nan

>  <Pocket>  (395) 
nan

>  <ATP_Site>  (395) 
nan

>  <Peripheral>  (395) 
nan

>  <Num_H_Atoms_ProtBoundConf>  (395) 
nan

>  <Num_Resolved_Atoms>  (395) 
nan

>  <Num_Not_Resolved_Atoms>  (395) 
nan

$$$$
CHEMBL2425646
     RDKit          3D

  0  0  0  0  0  0  0  0  0  0999 V3000
M  V30 BEGIN CTAB
M  V30 COUNTS 43 46 0 0 0
M  V30 BEGIN ATOM
M  V30 1 O 1.230631 -7.205670 0.923019 0
M  V30 2 C 1.358444 -5.818078 0.980242 0 CFG=1
M  V30 3 C 0.790233 -5.150437 -0.229977 0
M  V30 4 C 1.139684 -3.662357 -0.138496 0
M  V30 5 C 0.480664 -3.123301 1.100325 0 CFG=2
M  V30 6 N 0.693675 -1.703187 1.245515 0
M  V30 7 C 0.251123 -0.746811 0.291166 0
M  V30 8 N -0.405894 -1.055912 -0.832605 0
M  V30 9 C -0.826769 -0.163980 -1.737246 0
M  V30 10 C -0.585047 1.176797 -1.531813 0
M  V30 11 C 0.090111 1.531138 -0.383232 0
M  V30 12 N 0.382804 2.908756 -0.092796 0
M  V30 13 C 1.044692 3.828191 -0.817389 0
M  V30 14 C 1.052777 5.009838 -0.089951 0
M  V30 15 C 0.380644 4.784099 1.091204 0
M  V30 16 C 0.106006 5.633303 2.166093 0
M  V30 17 C -0.602835 5.074577 3.210049 0
M  V30 18 C -1.047963 3.769300 3.265202 0
M  V30 19 C -0.749476 2.967390 2.173118 0
M  V30 20 C -0.038230 3.459635 1.082603 0
M  V30 21 N 0.465309 0.548619 0.454991 0
M  V30 22 C 0.896192 -3.860514 2.345083 0
M  V30 23 C 0.627267 -5.321497 2.215571 0
M  V30 24 H 1.937760 -7.583309 0.352948 0
M  V30 25 H 2.431393 -5.587775 1.033105 0
M  V30 26 H 1.163928 -5.614451 -1.160156 0
M  V30 27 H -0.321351 -5.179697 -0.264898 0
M  V30 28 H 2.237754 -3.525801 -0.101432 0
M  V30 29 H 0.696520 -3.147280 -1.014234 0
M  V30 30 H -0.615215 -3.365958 0.973642 0
M  V30 31 H 1.197276 -1.361723 2.092583 0
M  V30 32 H -1.362842 -0.491370 -2.641411 0
M  V30 33 H -0.906471 1.931832 -2.235214 0
M  V30 34 H 1.478080 3.630768 -1.794755 0
M  V30 35 H 1.506615 5.931151 -0.403796 0
M  V30 36 H 0.427560 6.669903 2.185188 0
M  V30 37 H -0.858937 5.677560 4.093554 0
M  V30 38 H -1.593522 3.378890 4.093598 0
M  V30 39 H -1.081620 1.925754 2.171696 0
M  V30 40 H 0.317681 -3.384438 3.175686 0
M  V30 41 H 1.994935 -3.716655 2.475146 0
M  V30 42 H 1.033402 -5.896071 3.058728 0
M  V30 43 H -0.442023 -5.550611 2.108139 0
M  V30 END ATOM
M  V30 BEGIN BOND
M  V30 1 1 1 2
M  V30 2 1 2 3
M  V30 3 1 3 4
M  V30 4 1 4 5
M  V30 5 1 5 6
M  V30 6 1 6 7
M  V30 7 2 7 8
M  V30 8 1 8 9
M  V30 9 2 9 10
M  V30 10 1 10 11
M  V30 11 1 11 12
M  V30 12 1 12 13
M  V30 13 2 13 14
M  V30 14 1 14 15
M  V30 15 2 15 16
M  V30 16 1 16 17
M  V30 17 2 17 18
M  V30 18 1 18 19
M  V30 19 2 19 20
M  V30 20 2 11 21
M  V30 21 1 5 22
M  V30 22 1 22 23
M  V30 23 1 23 2
M  V30 24 1 21 7
M  V30 25 1 20 12
M  V30 26 1 20 15
M  V30 27 1 1 24
M  V30 28 1 2 25 CFG=1
M  V30 29 1 3 26
M  V30 30 1 3 27
M  V30 31 1 4 28
M  V30 32 1 4 29
M  V30 33 1 5 30 CFG=3
M  V30 34 1 6 31
M  V30 35 1 9 32
M  V30 36 1 10 33
M  V30 37 1 13 34
M  V30 38 1 14 35
M  V30 39 1 16 36
M  V30 40 1 17 37
M  V30 41 1 18 38
M  V30 42 1 19 39
M  V30 43 1 22 40
M  V30 44 1 22 41
M  V30 45 1 23 42
M  V30 46 1 23 43
M  V30 END BOND
M  V30 END CTAB
M  END
>  <Dataset>  (396) 
ChEMBL_Kinases

>  <Ligand_Instance>  (396) 
nan

>  <PDB_ID>  (396) 
nan

>  <Standardized_SMILES>  (396) 
O[C@H]1CC[C@H](Nc2nccc(-n3ccc4ccccc43)n2)CC1

>  <Name>  (396) 
nan

>  <Pocket>  (396) 
nan

>  <ATP_Site>  (396) 
nan

>  <Peripheral>  (396) 
nan

>  <Num_H_Atoms_ProtBoundConf>  (396) 
nan

>  <Num_Resolved_Atoms>  (396) 
nan

>  <Num_Not_Resolved_Atoms>  (396) 
nan

$$$$
CHEMBL2425647
     RDKit          3D

  0  0  0  0  0  0  0  0  0  0999 V3000
M  V30 BEGIN CTAB
M  V30 COUNTS 41 44 0 0 0
M  V30 BEGIN ATOM
M  V30 1 O -0.017277 -6.359611 2.375673 0
M  V30 2 C 0.340325 -5.127620 1.790610 0 CFG=1
M  V30 3 C -0.681015 -4.843344 0.737219 0
M  V30 4 C -0.669325 -3.364471 0.356521 0
M  V30 5 C -1.131138 -2.512308 1.526096 0 CFG=2
M  V30 6 N -0.405139 -1.256757 1.521155 0
M  V30 7 C -0.560250 -0.451189 0.355182 0
M  V30 8 N -1.341095 -0.862285 -0.660330 0
M  V30 9 C -1.499551 -0.102431 -1.782975 0
M  V30 10 C -0.837993 1.120532 -1.873285 0
M  V30 11 C -0.040407 1.531029 -0.825768 0
M  V30 12 C 0.655690 2.812155 -0.914619 0
M  V30 13 N 0.630843 3.700006 -1.926108 0
M  V30 14 N 1.393392 4.742330 -1.631007 0
M  V30 15 C 1.920500 4.539192 -0.423162 0
M  V30 16 C 2.786577 5.344378 0.323536 0
M  V30 17 C 3.171479 4.854591 1.576632 0
M  V30 18 C 2.696088 3.622532 2.025478 0
M  V30 19 C 1.843962 2.886767 1.229454 0
M  V30 20 N 1.464255 3.344374 0.021066 0
M  V30 21 N 0.059782 0.723814 0.239233 0
M  V30 22 C -0.941473 -3.253159 2.841535 0
M  V30 23 C 0.341371 -4.057937 2.833720 0
M  V30 24 H 0.784325 -6.823854 2.678240 0
M  V30 25 H 1.376101 -5.207467 1.388286 0
M  V30 26 H -0.503743 -5.412349 -0.202010 0
M  V30 27 H -1.684712 -5.036001 1.158147 0
M  V30 28 H 0.364158 -3.089076 0.062769 0
M  V30 29 H -1.304795 -3.239645 -0.544196 0
M  V30 30 H -2.224256 -2.371779 1.396919 0
M  V30 31 H 0.207434 -0.911436 2.293055 0
M  V30 32 H -2.132617 -0.439272 -2.602443 0
M  V30 33 H -0.963934 1.722689 -2.763640 0
M  V30 34 H 3.135476 6.295849 -0.057232 0
M  V30 35 H 3.835149 5.474426 2.145742 0
M  V30 36 H 3.031202 3.286871 3.017825 0
M  V30 37 H 1.531062 1.956831 1.654228 0
M  V30 38 H -1.791599 -3.918100 2.982456 0
M  V30 39 H -0.930505 -2.486534 3.639463 0
M  V30 40 H 0.415287 -4.543024 3.829915 0
M  V30 41 H 1.229200 -3.384769 2.761699 0
M  V30 END ATOM
M  V30 BEGIN BOND
M  V30 1 1 1 2
M  V30 2 1 2 3
M  V30 3 1 3 4
M  V30 4 1 4 5
M  V30 5 1 5 6
M  V30 6 1 6 7
M  V30 7 2 7 8
M  V30 8 1 8 9
M  V30 9 2 9 10
M  V30 10 1 10 11
M  V30 11 1 11 12
M  V30 12 2 12 13
M  V30 13 1 13 14
M  V30 14 2 14 15
M  V30 15 1 15 16
M  V30 16 2 16 17
M  V30 17 1 17 18
M  V30 18 2 18 19
M  V30 19 1 19 20
M  V30 20 2 11 21
M  V30 21 1 5 22
M  V30 22 1 22 23
M  V30 23 1 23 2
M  V30 24 1 21 7
M  V30 25 1 20 12
M  V30 26 1 20 15
M  V30 27 1 1 24
M  V30 28 1 2 25 CFG=3
M  V30 29 1 3 26
M  V30 30 1 3 27
M  V30 31 1 4 28
M  V30 32 1 4 29
M  V30 33 1 5 30 CFG=3
M  V30 34 1 6 31
M  V30 35 1 9 32
M  V30 36 1 10 33
M  V30 37 1 16 34
M  V30 38 1 17 35
M  V30 39 1 18 36
M  V30 40 1 19 37
M  V30 41 1 22 38
M  V30 42 1 22 39
M  V30 43 1 23 40
M  V30 44 1 23 41
M  V30 END BOND
M  V30 END CTAB
M  END
>  <Dataset>  (397) 
ChEMBL_Kinases

>  <Ligand_Instance>  (397) 
nan

>  <PDB_ID>  (397) 
nan

>  <Standardized_SMILES>  (397) 
O[C@H]1CC[C@H](Nc2nccc(-c3nnc4ccccn34)n2)CC1

>  <Name>  (397) 
nan

>  <Pocket>  (397) 
nan

>  <ATP_Site>  (397) 
nan

>  <Peripheral>  (397) 
nan

>  <Num_H_Atoms_ProtBoundConf>  (397) 
nan

>  <Num_Resolved_Atoms>  (397) 
nan

>  <Num_Not_Resolved_Atoms>  (397) 
nan

$$$$
CHEMBL2425648
     RDKit          3D

  0  0  0  0  0  0  0  0  0  0999 V3000
M  V30 BEGIN CTAB
M  V30 COUNTS 42 45 0 0 0
M  V30 BEGIN ATOM
M  V30 1 O -0.040171 -4.498421 2.823847 0
M  V30 2 C 0.166305 -4.702497 1.457064 0 CFG=1
M  V30 3 C -0.737506 -3.746973 0.706682 0
M  V30 4 C -0.101254 -2.379525 0.563835 0
M  V30 5 C 1.188689 -2.440169 -0.207351 0 CFG=2
M  V30 6 N 1.161144 -1.769614 -1.472595 0
M  V30 7 C 0.903080 -0.384152 -1.634863 0
M  V30 8 N 0.896555 0.159047 -2.884751 0
M  V30 9 C 0.662251 1.457700 -3.124876 0
M  V30 10 C 0.419727 2.250764 -2.022499 0
M  V30 11 C 0.416289 1.745061 -0.738881 0
M  V30 12 C 0.152509 2.647854 0.375428 0
M  V30 13 C -0.105946 4.001243 0.298405 0
M  V30 14 N -0.297662 4.493482 1.521713 0
M  V30 15 C -0.171486 3.493391 2.409421 0
M  V30 16 C -0.278415 3.490843 3.788521 0
M  V30 17 C -0.095590 2.283543 4.472187 0
M  V30 18 C 0.184675 1.134225 3.759465 0
M  V30 19 C 0.267990 1.254122 2.389220 0
M  V30 20 N 0.102251 2.381178 1.687336 0
M  V30 21 N 0.663249 0.429300 -0.615981 0
M  V30 22 C 1.649187 -3.856302 -0.280544 0
M  V30 23 C 1.621400 -4.432263 1.125986 0
M  V30 24 H 0.712500 -4.866885 3.354181 0
M  V30 25 H -0.127767 -5.729472 1.225565 0
M  V30 26 H -0.975553 -4.222979 -0.253817 0
M  V30 27 H -1.689896 -3.623491 1.255845 0
M  V30 28 H 0.032487 -1.978789 1.594360 0
M  V30 29 H -0.811359 -1.747222 -0.002399 0
M  V30 30 H 1.950421 -1.885833 0.414734 0
M  V30 31 H 1.346264 -2.363438 -2.310353 0
M  V30 32 H 0.670860 1.833711 -4.156816 0
M  V30 33 H 0.232781 3.308543 -2.267426 0
M  V30 34 H -0.140928 4.558347 -0.645539 0
M  V30 35 H -0.504007 4.445933 4.285354 0
M  V30 36 H -0.193052 2.347712 5.563357 0
M  V30 37 H 0.318993 0.230339 4.304830 0
M  V30 38 H 0.485994 0.361940 1.835792 0
M  V30 39 H 0.981555 -4.486124 -0.914969 0
M  V30 40 H 2.688201 -3.980332 -0.648929 0
M  V30 41 H 2.021360 -3.653786 1.805228 0
M  V30 42 H 2.238769 -5.352557 1.195948 0
M  V30 END ATOM
M  V30 BEGIN BOND
M  V30 1 1 1 2
M  V30 2 1 2 3
M  V30 3 1 3 4
M  V30 4 1 4 5
M  V30 5 1 5 6
M  V30 6 1 6 7
M  V30 7 2 7 8
M  V30 8 1 8 9
M  V30 9 2 9 10
M  V30 10 1 10 11
M  V30 11 1 11 12
M  V30 12 2 12 13
M  V30 13 1 13 14
M  V30 14 2 14 15
M  V30 15 1 15 16
M  V30 16 2 16 17
M  V30 17 1 17 18
M  V30 18 2 18 19
M  V30 19 1 19 20
M  V30 20 2 11 21
M  V30 21 1 5 22
M  V30 22 1 22 23
M  V30 23 1 23 2
M  V30 24 1 21 7
M  V30 25 1 20 12
M  V30 26 1 20 15
M  V30 27 1 1 24
M  V30 28 1 2 25 CFG=3
M  V30 29 1 3 26
M  V30 30 1 3 27
M  V30 31 1 4 28
M  V30 32 1 4 29
M  V30 33 1 5 30 CFG=1
M  V30 34 1 6 31
M  V30 35 1 9 32
M  V30 36 1 10 33
M  V30 37 1 13 34
M  V30 38 1 16 35
M  V30 39 1 17 36
M  V30 40 1 18 37
M  V30 41 1 19 38
M  V30 42 1 22 39
M  V30 43 1 22 40
M  V30 44 1 23 41
M  V30 45 1 23 42
M  V30 END BOND
M  V30 END CTAB
M  END
>  <Dataset>  (398) 
ChEMBL_Kinases

>  <Ligand_Instance>  (398) 
nan

>  <PDB_ID>  (398) 
nan

>  <Standardized_SMILES>  (398) 
O[C@H]1CC[C@H](Nc2nccc(-c3cnc4ccccn34)n2)CC1

>  <Name>  (398) 
nan

>  <Pocket>  (398) 
nan

>  <ATP_Site>  (398) 
nan

>  <Peripheral>  (398) 
nan

>  <Num_H_Atoms_ProtBoundConf>  (398) 
nan

>  <Num_Resolved_Atoms>  (398) 
nan

>  <Num_Not_Resolved_Atoms>  (398) 
nan

$$$$
CHEMBL218194
     RDKit          3D

  0  0  0  0  0  0  0  0  0  0999 V3000
M  V30 BEGIN CTAB
M  V30 COUNTS 48 49 0 0 0
M  V30 BEGIN ATOM
M  V30 1 C 0.435461 -4.465750 3.714472 0
M  V30 2 C -0.382319 -3.368301 3.113183 0
M  V30 3 C -1.811355 -3.443858 3.633633 0
M  V30 4 N -0.316312 -3.385551 1.684256 0
M  V30 5 C 0.162413 -2.842845 0.426302 0
M  V30 6 N 0.774205 -1.750395 0.661222 0
M  V30 7 C 1.343686 -0.757907 0.151727 0
M  V30 8 C 2.018611 0.416517 -0.456665 0
M  V30 9 O 1.704010 0.719763 0.716721 0
M  V30 10 N 2.646078 1.060957 -1.555890 0
M  V30 11 C 2.854863 2.498146 -1.101301 0
M  V30 12 C 1.469347 2.826604 -0.457197 0
M  V30 13 C 0.507230 2.202257 -1.199039 0
M  V30 14 C -0.802550 2.132523 -0.652543 0
M  V30 15 C -0.908726 2.718190 0.572526 0
M  V30 16 S -2.375973 2.420200 1.559307 0
M  V30 17 C -1.820068 1.513954 3.041735 0
M  V30 18 O -3.263968 1.482318 0.827925 0
M  V30 19 O -3.087841 3.649479 1.940896 0
M  V30 20 C 0.047286 3.367646 1.331540 0
M  V30 21 C 1.326746 3.420315 0.777691 0
M  V30 22 C 1.107858 -1.224101 -1.215784 0
M  V30 23 C 0.456310 -2.390937 -1.711140 0
M  V30 24 N 0.221263 -2.806106 -3.073238 0
M  V30 25 C -0.062319 -3.277091 -0.834178 0
M  V30 26 C -0.763087 -4.484895 -0.988326 0
M  V30 27 N -1.321756 -5.447980 -1.126649 0
M  V30 28 H 0.057874 -4.788097 4.691357 0
M  V30 29 H 0.286225 -5.394037 3.073985 0
M  V30 30 H 1.491994 -4.193603 3.693638 0
M  V30 31 H 0.081801 -2.380214 3.477789 0
M  V30 32 H -1.897788 -4.113310 4.503304 0
M  V30 33 H -2.513878 -3.739002 2.828440 0
M  V30 34 H -2.111411 -2.411065 3.973329 0
M  V30 35 H -0.936515 -4.236884 1.486640 0
M  V30 36 H 2.719960 0.300090 -2.206761 0
M  V30 37 H 3.622301 2.446138 -0.348435 0
M  V30 38 H 3.060507 3.130431 -1.933607 0
M  V30 39 H 0.619347 1.730778 -2.184086 0
M  V30 40 H -1.656125 1.667007 -1.108856 0
M  V30 41 H -1.551420 0.488080 2.800056 0
M  V30 42 H -0.801757 2.014175 3.267815 0
M  V30 43 H -2.448306 1.689780 3.893140 0
M  V30 44 H -0.066948 3.822959 2.284756 0
M  V30 45 H 2.194969 3.877456 1.185026 0
M  V30 46 H 1.340644 -0.878339 -2.286345 0
M  V30 47 H -0.588692 -2.265253 -3.454911 0
M  V30 48 H -0.317849 -2.717452 -3.922736 0
M  V30 END ATOM
M  V30 BEGIN BOND
M  V30 1 1 1 2
M  V30 2 1 2 3
M  V30 3 1 2 4
M  V30 4 1 4 5
M  V30 5 2 5 6
M  V30 6 1 6 7
M  V30 7 1 7 8
M  V30 8 2 8 9
M  V30 9 1 8 10
M  V30 10 1 10 11
M  V30 11 1 11 12
M  V30 12 2 12 13
M  V30 13 1 13 14
M  V30 14 2 14 15
M  V30 15 1 15 16
M  V30 16 1 16 17
M  V30 17 2 16 18
M  V30 18 2 16 19
M  V30 19 1 15 20
M  V30 20 2 20 21
M  V30 21 2 7 22
M  V30 22 1 22 23
M  V30 23 1 23 24
M  V30 24 2 23 25
M  V30 25 1 25 26
M  V30 26 3 26 27
M  V30 27 1 25 5
M  V30 28 1 21 12
M  V30 29 1 1 28
M  V30 30 1 1 29
M  V30 31 1 1 30
M  V30 32 1 2 31
M  V30 33 1 3 32
M  V30 34 1 3 33
M  V30 35 1 3 34
M  V30 36 1 4 35
M  V30 37 1 10 36
M  V30 38 1 11 37
M  V30 39 1 11 38
M  V30 40 1 13 39
M  V30 41 1 14 40
M  V30 42 1 17 41
M  V30 43 1 17 42
M  V30 44 1 17 43
M  V30 45 1 20 44
M  V30 46 1 21 45
M  V30 47 1 22 46
M  V30 48 1 24 47
M  V30 49 1 24 48
M  V30 END BOND
M  V30 END CTAB
M  END
>  <Dataset>  (399) 
ChEMBL_Kinases

>  <Ligand_Instance>  (399) 
nan

>  <PDB_ID>  (399) 
nan

>  <Standardized_SMILES>  (399) 
CC(C)Nc1nc(C(=O)NCc2ccc(S(C)(=O)=O)cc2)cc(N)c1C#N

>  <Name>  (399) 
nan

>  <Pocket>  (399) 
nan

>  <ATP_Site>  (399) 
nan

>  <Peripheral>  (399) 
nan

>  <Num_H_Atoms_ProtBoundConf>  (399) 
nan

>  <Num_Resolved_Atoms>  (399) 
nan

>  <Num_Not_Resolved_Atoms>  (399) 
nan

$$$$
CHEMBL3691648
     RDKit          3D

  0  0  0  0  0  0  0  0  0  0999 V3000
M  V30 BEGIN CTAB
M  V30 COUNTS 63 68 0 0 0
M  V30 BEGIN ATOM
M  V30 1 C 3.050414 -3.643700 3.833774 0
M  V30 2 N 3.397703 -2.262798 4.195831 0
M  V30 3 C 3.477780 -2.302875 5.626862 0
M  V30 4 C 3.633915 -1.035120 3.531416 0
M  V30 5 O 3.937898 0.016162 4.193117 0
M  V30 6 C 3.615286 -0.622850 2.135494 0
M  V30 7 C 4.607578 -0.640012 1.185198 0
M  V30 8 C 4.112136 -0.149998 -0.004018 0
M  V30 9 C 4.607379 0.080653 -1.283404 0
M  V30 10 N 3.823862 0.601513 -2.270094 0
M  V30 11 C 2.551563 0.888280 -1.975569 0
M  V30 12 N 1.546558 1.460913 -2.831343 0
M  V30 13 C 0.186991 0.977727 -2.731238 0
M  V30 14 C -0.900142 1.456732 -3.415101 0
M  V30 15 C -2.137390 0.875795 -3.254506 0
M  V30 16 C -2.271238 -0.194232 -2.397772 0
M  V30 17 N -3.468954 -0.894286 -2.105254 0
M  V30 18 C -3.687680 -2.237236 -1.536526 0
M  V30 19 C -5.170977 -2.417094 -1.563275 0
M  V30 20 C -5.528687 -1.581914 -2.802934 0
M  V30 21 C -4.792504 -0.350014 -2.311583 0
M  V30 22 C -5.399415 -0.226985 -0.926122 0
M  V30 23 N -5.744631 -1.583684 -0.538237 0
M  V30 24 C -1.183452 -0.674919 -1.712734 0
M  V30 25 N -0.005310 -0.066095 -1.911215 0
M  V30 26 N 2.075546 0.663550 -0.733141 0
M  V30 27 C 2.797237 0.155263 0.275946 0
M  V30 28 N 2.470822 -0.122883 1.572353 0
M  V30 29 C 1.214121 0.058696 2.269504 0
M  V30 30 C 0.344376 -1.145051 2.264369 0
M  V30 31 C -0.985152 -0.598609 2.733905 0
M  V30 32 C -0.994422 0.860011 2.341244 0
M  V30 33 C 0.346026 1.141604 1.706486 0
M  V30 34 H 2.047739 -3.914362 4.219862 0
M  V30 35 H 3.848234 -4.348944 4.154862 0
M  V30 36 H 3.041846 -3.641522 2.721954 0
M  V30 37 H 2.479926 -2.540930 6.077729 0
M  V30 38 H 4.267026 -2.994679 5.970852 0
M  V30 39 H 3.717345 -1.290708 6.018148 0
M  V30 40 H 5.615559 -0.982334 1.338727 0
M  V30 41 H 5.637871 -0.161149 -1.489950 0
M  V30 42 H 1.843871 2.202289 -3.487120 0
M  V30 43 H -0.717999 2.291845 -4.062399 0
M  V30 44 H -3.003979 1.217235 -3.767305 0
M  V30 45 H -3.127944 -3.008442 -2.103480 0
M  V30 46 H -3.358017 -2.172018 -0.482282 0
M  V30 47 H -5.533614 -3.421017 -1.610034 0
M  V30 48 H -5.110204 -1.977873 -3.725511 0
M  V30 49 H -6.623510 -1.397593 -2.842743 0
M  V30 50 H -4.866096 0.526529 -2.941229 0
M  V30 51 H -4.585234 0.078884 -0.208862 0
M  V30 52 H -6.245873 0.452240 -0.856744 0
M  V30 53 H -6.774383 -1.694537 -0.570540 0
M  V30 54 H -1.208480 -1.516768 -1.018834 0
M  V30 55 H 1.391708 0.336257 3.343566 0
M  V30 56 H 0.178451 -1.541156 1.223757 0
M  V30 57 H 0.710024 -1.958181 2.935107 0
M  V30 58 H -0.964484 -0.654363 3.857131 0
M  V30 59 H -1.839733 -1.157642 2.301200 0
M  V30 60 H -1.064302 1.538900 3.242517 0
M  V30 61 H -1.827141 1.095064 1.640247 0
M  V30 62 H 0.167913 1.058533 0.607206 0
M  V30 63 H 0.720781 2.157330 1.973022 0
M  V30 END ATOM
M  V30 BEGIN BOND
M  V30 1 1 1 2
M  V30 2 1 2 3
M  V30 3 1 2 4
M  V30 4 2 4 5
M  V30 5 1 4 6
M  V30 6 2 6 7
M  V30 7 1 7 8
M  V30 8 2 8 9
M  V30 9 1 9 10
M  V30 10 2 10 11
M  V30 11 1 11 12
M  V30 12 1 12 13
M  V30 13 2 13 14
M  V30 14 1 14 15
M  V30 15 2 15 16
M  V30 16 1 16 17
M  V30 17 1 17 18
M  V30 18 1 18 19
M  V30 19 1 19 20
M  V30 20 1 20 21
M  V30 21 1 21 22
M  V30 22 1 22 23
M  V30 23 1 16 24
M  V30 24 2 24 25
M  V30 25 1 11 26
M  V30 26 2 26 27
M  V30 27 1 27 28
M  V30 28 1 28 29
M  V30 29 1 29 30
M  V30 30 1 30 31
M  V30 31 1 31 32
M  V30 32 1 32 33
M  V30 33 1 28 6
M  V30 34 1 33 29
M  V30 35 1 27 8
M  V30 36 1 25 13
M  V30 37 1 21 17
M  V30 38 1 23 19
M  V30 39 1 1 34
M  V30 40 1 1 35
M  V30 41 1 1 36
M  V30 42 1 3 37
M  V30 43 1 3 38
M  V30 44 1 3 39
M  V30 45 1 7 40
M  V30 46 1 9 41
M  V30 47 1 12 42
M  V30 48 1 14 43
M  V30 49 1 15 44
M  V30 50 1 18 45
M  V30 51 1 18 46
M  V30 52 1 19 47
M  V30 53 1 20 48
M  V30 54 1 20 49
M  V30 55 1 21 50
M  V30 56 1 22 51
M  V30 57 1 22 52
M  V30 58 1 23 53
M  V30 59 1 24 54
M  V30 60 1 29 55
M  V30 61 1 30 56
M  V30 62 1 30 57
M  V30 63 1 31 58
M  V30 64 1 31 59
M  V30 65 1 32 60
M  V30 66 1 32 61
M  V30 67 1 33 62
M  V30 68 1 33 63
M  V30 END BOND
M  V30 END CTAB
M  END
>  <Dataset>  (400) 
ChEMBL_Kinases

>  <Ligand_Instance>  (400) 
nan

>  <PDB_ID>  (400) 
nan

>  <Standardized_SMILES>  (400) 
CN(C)C(=O)c1cc2cnc(Nc3ccc(N4CC5CC4CN5)cn3)nc2n1C1CCCC1

>  <Name>  (400) 
nan

>  <Pocket>  (400) 
nan

>  <ATP_Site>  (400) 
nan

>  <Peripheral>  (400) 
nan

>  <Num_H_Atoms_ProtBoundConf>  (400) 
nan

>  <Num_Resolved_Atoms>  (400) 
nan

>  <Num_Not_Resolved_Atoms>  (400) 
nan

$$$$
CHEMBL2425643
     RDKit          3D

  0  0  0  0  0  0  0  0  0  0999 V3000
M  V30 BEGIN CTAB
M  V30 COUNTS 45 48 0 0 0
M  V30 BEGIN ATOM
M  V30 1 O -0.315235 -7.244073 1.210227 0
M  V30 2 C -0.125847 -5.856731 1.350749 0 CFG=1
M  V30 3 C 0.186639 -5.304791 -0.014893 0
M  V30 4 C 0.382806 -3.800056 0.140350 0
M  V30 5 C -0.874056 -3.119970 0.618737 0 CFG=2
M  V30 6 N -0.593620 -1.755163 0.933635 0
M  V30 7 C -0.113080 -0.812756 -0.016372 0
M  V30 8 N 0.119425 -1.121454 -1.303572 0
M  V30 9 C 0.573498 -0.243682 -2.214752 0
M  V30 10 C 0.827452 1.059402 -1.845259 0
M  V30 11 C 0.597272 1.402890 -0.529931 0
M  V30 12 N 0.835956 2.729628 -0.071835 0
M  V30 13 C 1.324963 3.823976 -0.888760 0
M  V30 14 C 2.219660 4.528339 0.130214 0
M  V30 15 C 1.467317 4.288605 1.413410 0
M  V30 16 C 1.487070 4.960386 2.635525 0
M  V30 17 C 0.669410 4.502933 3.658557 0
M  V30 18 C -0.168853 3.405461 3.521374 0
M  V30 19 C -0.174307 2.754291 2.305159 0
M  V30 20 C 0.630387 3.184579 1.260783 0
M  V30 21 N 0.142740 0.456468 0.308817 0
M  V30 22 C -1.492132 -3.810584 1.813092 0
M  V30 23 C -1.480478 -5.300746 1.739015 0
M  V30 24 H 0.513754 -7.752071 1.190430 0
M  V30 25 H 0.661777 -5.680393 2.087976 0
M  V30 26 H -0.726437 -5.503369 -0.642762 0
M  V30 27 H 1.080328 -5.730923 -0.468728 0
M  V30 28 H 0.658554 -3.379999 -0.837044 0
M  V30 29 H 1.222023 -3.677132 0.852544 0
M  V30 30 H -1.581907 -3.129982 -0.248085 0
M  V30 31 H -0.742764 -1.407961 1.911575 0
M  V30 32 H 0.717842 -0.624108 -3.218251 0
M  V30 33 H 1.192295 1.764970 -2.577150 0
M  V30 34 H 0.498947 4.527714 -1.092411 0
M  V30 35 H 1.877253 3.509537 -1.772877 0
M  V30 36 H 3.181725 3.961500 0.139460 0
M  V30 37 H 2.357398 5.591323 -0.070556 0
M  V30 38 H 2.128566 5.827980 2.792819 0
M  V30 39 H 0.721231 5.058577 4.587503 0
M  V30 40 H -0.790425 3.083142 4.347070 0
M  V30 41 H -0.806811 1.891257 2.135640 0
M  V30 42 H -2.567709 -3.497129 1.856506 0
M  V30 43 H -0.982305 -3.495790 2.728255 0
M  V30 44 H -2.233958 -5.756413 1.091461 0
M  V30 45 H -1.677530 -5.680686 2.772501 0
M  V30 END ATOM
M  V30 BEGIN BOND
M  V30 1 1 1 2
M  V30 2 1 2 3
M  V30 3 1 3 4
M  V30 4 1 4 5
M  V30 5 1 5 6
M  V30 6 1 6 7
M  V30 7 2 7 8
M  V30 8 1 8 9
M  V30 9 2 9 10
M  V30 10 1 10 11
M  V30 11 1 11 12
M  V30 12 1 12 13
M  V30 13 1 13 14
M  V30 14 1 14 15
M  V30 15 2 15 16
M  V30 16 1 16 17
M  V30 17 2 17 18
M  V30 18 1 18 19
M  V30 19 2 19 20
M  V30 20 2 11 21
M  V30 21 1 5 22
M  V30 22 1 22 23
M  V30 23 1 23 2
M  V30 24 1 21 7
M  V30 25 1 20 12
M  V30 26 1 20 15
M  V30 27 1 1 24
M  V30 28 1 2 25 CFG=1
M  V30 29 1 3 26
M  V30 30 1 3 27
M  V30 31 1 4 28
M  V30 32 1 4 29
M  V30 33 1 5 30 CFG=3
M  V30 34 1 6 31
M  V30 35 1 9 32
M  V30 36 1 10 33
M  V30 37 1 13 34
M  V30 38 1 13 35
M  V30 39 1 14 36
M  V30 40 1 14 37
M  V30 41 1 16 38
M  V30 42 1 17 39
M  V30 43 1 18 40
M  V30 44 1 19 41
M  V30 45 1 22 42
M  V30 46 1 22 43
M  V30 47 1 23 44
M  V30 48 1 23 45
M  V30 END BOND
M  V30 END CTAB
M  END
>  <Dataset>  (401) 
ChEMBL_Kinases

>  <Ligand_Instance>  (401) 
nan

>  <PDB_ID>  (401) 
nan

>  <Standardized_SMILES>  (401) 
O[C@H]1CC[C@H](Nc2nccc(N3CCc4ccccc43)n2)CC1

>  <Name>  (401) 
nan

>  <Pocket>  (401) 
nan

>  <ATP_Site>  (401) 
nan

>  <Peripheral>  (401) 
nan

>  <Num_H_Atoms_ProtBoundConf>  (401) 
nan

>  <Num_Resolved_Atoms>  (401) 
nan

>  <Num_Not_Resolved_Atoms>  (401) 
nan

$$$$
CHEMBL4452238
     RDKit          3D

  0  0  0  0  0  0  0  0  0  0999 V3000
M  V30 BEGIN CTAB
M  V30 COUNTS 63 66 0 0 0
M  V30 BEGIN ATOM
M  V30 1 C -0.274786 -0.092745 4.775944 0
M  V30 2 C 0.335047 -0.442183 3.461816 0
M  V30 3 C 1.441701 0.261818 3.003113 0
M  V30 4 C 1.987556 -0.085467 1.778346 0
M  V30 5 N 3.129304 0.741665 1.442904 0
M  V30 6 C 2.611027 1.869882 0.721696 0
M  V30 7 O 1.342212 1.706311 0.654828 0
M  V30 8 C 3.535055 2.936387 0.220874 0
M  V30 9 O 2.781354 3.922358 -0.444531 0
M  V30 10 C 1.788784 4.697585 0.120000 0
M  V30 11 C 1.366120 4.644627 1.453816 0
M  V30 12 C 0.368971 5.446212 1.946531 0
M  V30 13 C -0.266140 6.345669 1.148122 0
M  V30 14 C -1.264286 7.123419 1.712734 0
M  V30 15 O -1.549683 6.981134 2.916683 0
M  V30 16 C -1.884347 8.024888 0.867421 0
M  V30 17 C -1.461135 8.076669 -0.463421 0
M  V30 18 O -0.506012 7.306815 -0.930550 0
M  V30 19 C 0.125726 6.430483 -0.189385 0
M  V30 20 C 1.133048 5.614741 -0.670702 0
M  V30 21 C 1.466064 -1.104392 1.006904 0
M  V30 22 C 0.363954 -1.784444 1.493821 0
M  V30 23 N -0.137452 -2.824795 0.664457 0
M  V30 24 C 0.150166 -4.195658 0.595124 0
M  V30 25 O 0.987105 -4.698827 1.360895 0
M  V30 26 C -0.521578 -5.059008 -0.371383 0
M  V30 27 C -0.198494 -6.401617 -0.355767 0
M  V30 28 C -0.791610 -7.276211 -1.243356 0
M  V30 29 C -1.722313 -6.876640 -2.180447 0
M  V30 30 N -2.361443 -7.736901 -3.116258 0
M  V30 31 C -3.317193 -7.201103 -4.050562 0
M  V30 32 C -2.016177 -9.139266 -3.087191 0
M  V30 33 C -2.022389 -5.507360 -2.163645 0
M  V30 34 C -1.447105 -4.605272 -1.288766 0
M  V30 35 C -0.203823 -1.463236 2.710005 0
M  V30 36 C -1.382652 -2.206312 3.207538 0
M  V30 37 H -0.794138 -0.952044 5.235980 0
M  V30 38 H -0.951787 0.772357 4.569266 0
M  V30 39 H 0.473052 0.284176 5.503558 0
M  V30 40 H 1.810334 1.053917 3.651631 0
M  V30 41 H 4.171123 0.663335 1.622673 0
M  V30 42 H 4.171158 3.334172 1.021390 0
M  V30 43 H 4.173122 2.441686 -0.550257 0
M  V30 44 H 1.864712 3.940598 2.103976 0
M  V30 45 H 0.100658 5.341544 2.995310 0
M  V30 46 H -2.668040 8.650326 1.269049 0
M  V30 47 H -1.998100 8.806810 -1.051781 0
M  V30 48 H 1.340027 5.783852 -1.731147 0
M  V30 49 H 1.976602 -1.285774 0.068999 0
M  V30 50 H -0.830473 -2.342036 0.050253 0
M  V30 51 H 0.523156 -6.812899 0.344598 0
M  V30 52 H -0.525507 -8.325544 -1.215943 0
M  V30 53 H -4.319008 -7.033153 -3.660988 0
M  V30 54 H -3.432930 -7.950940 -4.874181 0
M  V30 55 H -2.866802 -6.296667 -4.556973 0
M  V30 56 H -2.819536 -9.673318 -3.670859 0
M  V30 57 H -1.907747 -9.554210 -2.068210 0
M  V30 58 H -1.062023 -9.334085 -3.642772 0
M  V30 59 H -2.747910 -5.122074 -2.876185 0
M  V30 60 H -1.709330 -3.562856 -1.313592 0
M  V30 61 H -1.148927 -2.854881 4.086476 0
M  V30 62 H -1.863955 -2.824834 2.441883 0
M  V30 63 H -2.197772 -1.509250 3.560531 0
M  V30 END ATOM
M  V30 BEGIN BOND
M  V30 1 1 1 2
M  V30 2 2 2 3
M  V30 3 1 3 4
M  V30 4 1 4 5
M  V30 5 1 5 6
M  V30 6 2 6 7
M  V30 7 1 6 8
M  V30 8 1 8 9
M  V30 9 1 9 10
M  V30 10 2 10 11
M  V30 11 1 11 12
M  V30 12 2 12 13
M  V30 13 1 13 14
M  V30 14 2 14 15
M  V30 15 1 14 16
M  V30 16 2 16 17
M  V30 17 1 17 18
M  V30 18 1 18 19
M  V30 19 2 19 20
M  V30 20 2 4 21
M  V30 21 1 21 22
M  V30 22 1 22 23
M  V30 23 1 23 24
M  V30 24 2 24 25
M  V30 25 1 24 26
M  V30 26 2 26 27
M  V30 27 1 27 28
M  V30 28 2 28 29
M  V30 29 1 29 30
M  V30 30 1 30 31
M  V30 31 1 30 32
M  V30 32 1 29 33
M  V30 33 2 33 34
M  V30 34 2 22 35
M  V30 35 1 35 36
M  V30 36 1 35 2
M  V30 37 1 20 10
M  V30 38 1 34 26
M  V30 39 1 19 13
M  V30 40 1 1 37
M  V30 41 1 1 38
M  V30 42 1 1 39
M  V30 43 1 3 40
M  V30 44 1 5 41
M  V30 45 1 8 42
M  V30 46 1 8 43
M  V30 47 1 11 44
M  V30 48 1 12 45
M  V30 49 1 16 46
M  V30 50 1 17 47
M  V30 51 1 20 48
M  V30 52 1 21 49
M  V30 53 1 23 50
M  V30 54 1 27 51
M  V30 55 1 28 52
M  V30 56 1 31 53
M  V30 57 1 31 54
M  V30 58 1 31 55
M  V30 59 1 32 56
M  V30 60 1 32 57
M  V30 61 1 32 58
M  V30 62 1 33 59
M  V30 63 1 34 60
M  V30 64 1 36 61
M  V30 65 1 36 62
M  V30 66 1 36 63
M  V30 END BOND
M  V30 END CTAB
M  END
>  <Dataset>  (402) 
ChEMBL_Kinases

>  <Ligand_Instance>  (402) 
nan

>  <PDB_ID>  (402) 
nan

>  <Standardized_SMILES>  (402) 
Cc1cc(NC(=O)COc2ccc3c(=O)ccoc3c2)cc(NC(=O)c2ccc(N(C)C)cc2)c1C

>  <Name>  (402) 
nan

>  <Pocket>  (402) 
nan

>  <ATP_Site>  (402) 
nan

>  <Peripheral>  (402) 
nan

>  <Num_H_Atoms_ProtBoundConf>  (402) 
nan

>  <Num_Resolved_Atoms>  (402) 
nan

>  <Num_Not_Resolved_Atoms>  (402) 
nan

$$$$
CHEMBL3691916
     RDKit          3D

  0  0  0  0  0  0  0  0  0  0999 V3000
M  V30 BEGIN CTAB
M  V30 COUNTS 72 76 0 0 0
M  V30 BEGIN ATOM
M  V30 1 C -0.025336 -4.631748 3.827022 0
M  V30 2 O 1.318146 -4.280834 3.701770 0
M  V30 3 C 2.057698 -5.293772 3.167814 0
M  V30 4 C 3.521659 -5.033258 2.983826 0
M  V30 5 O 3.845114 -3.998630 2.169066 0
M  V30 6 C 3.679698 -2.666553 2.126993 0
M  V30 7 C 4.283449 -2.234488 0.930355 0
M  V30 8 C 4.307045 -0.888222 0.546643 0
M  V30 9 F 4.847275 -0.357893 -0.560724 0
M  V30 10 C 3.707787 0.034757 1.391887 0
M  V30 11 C 3.675968 1.462805 1.085993 0
M  V30 12 N 2.620145 1.924004 0.381312 0
M  V30 13 C 2.439578 3.185355 0.020575 0
M  V30 14 C 1.269368 3.565357 -0.733014 0
M  V30 15 O 1.194458 4.784323 -1.030322 0
M  V30 16 N 0.239268 2.680242 -1.142090 0
M  V30 17 C -0.934048 2.953563 -1.876057 0
M  V30 18 C -1.325404 4.183820 -2.336321 0
M  V30 19 N -2.439490 4.472307 -3.028417 0
M  V30 20 C -3.286132 3.439183 -3.313384 0
M  V30 21 C -2.923786 2.166154 -2.861747 0
M  V30 22 C -1.773353 1.902324 -2.154133 0
M  V30 23 C -1.576687 0.479423 -1.783331 0
M  V30 24 C -2.092790 0.272442 -0.377652 0
M  V30 25 C -2.186021 -1.133122 0.080662 0 CFG=1
M  V30 26 N -3.101149 -1.154411 1.224201 0
M  V30 27 C -2.650611 -2.121802 -0.911202 0 CFG=1
M  V30 28 N -3.592940 -3.110230 -0.429307 0
M  V30 29 C -4.744911 -2.963031 0.251995 0
M  V30 30 C -5.341555 -4.172787 0.516628 0
M  V30 31 N -4.515269 -5.062995 -0.025935 0
M  V30 32 N -3.512740 -4.444011 -0.567612 0
M  V30 33 C -3.086122 -1.508713 -2.229485 0 CFG=1
M  V30 34 C -4.505498 -1.084909 -2.094725 0
M  V30 35 C -2.117481 -0.510381 -2.738352 0
M  V30 36 C 3.414403 4.054917 0.408063 0
M  V30 37 C 4.511228 3.637824 1.127580 0
M  V30 38 C 4.688099 2.313052 1.499071 0
M  V30 39 F 5.746232 1.847349 2.205997 0
M  V30 40 C 3.104558 -0.333346 2.572149 0
M  V30 41 F 2.499516 0.481201 3.455315 0
M  V30 42 C 3.119079 -1.667803 2.884684 0
M  V30 43 H -0.175728 -5.512402 4.480239 0
M  V30 44 H -0.570822 -3.782147 4.295838 0
M  V30 45 H -0.471294 -4.802916 2.833025 0
M  V30 46 H 1.580291 -5.613147 2.197241 0
M  V30 47 H 1.898092 -6.204295 3.824108 0
M  V30 48 H 3.926832 -5.987292 2.507089 0
M  V30 49 H 4.056682 -5.019284 3.982660 0
M  V30 50 H 4.802399 -2.800003 0.139307 0
M  V30 51 H 0.478559 1.730036 -0.797311 0
M  V30 52 H -0.721872 5.057149 -2.159198 0
M  V30 53 H -4.185177 3.678094 -3.872900 0
M  V30 54 H -3.685562 1.464858 -3.158546 0
M  V30 55 H -0.480359 0.326438 -1.715472 0
M  V30 56 H -3.035161 0.847529 -0.269296 0
M  V30 57 H -1.404338 0.794574 0.358573 0
M  V30 58 H -1.191405 -1.422030 0.540121 0
M  V30 59 H -2.985487 -2.065832 1.725861 0
M  V30 60 H -2.797958 -0.390801 1.880015 0
M  V30 61 H -1.723542 -2.717357 -1.193162 0
M  V30 62 H -5.187374 -2.031699 0.572711 0
M  V30 63 H -6.260682 -4.376570 1.038152 0
M  V30 64 H -3.106719 -2.331118 -3.016114 0
M  V30 65 H -5.099235 -2.043900 -2.000665 0
M  V30 66 H -4.922377 -0.635857 -3.026918 0
M  V30 67 H -4.756700 -0.498757 -1.197748 0
M  V30 68 H -1.241973 -1.128735 -3.117876 0
M  V30 69 H -2.502518 -0.071290 -3.684694 0
M  V30 70 H 3.318882 5.117501 0.137003 0
M  V30 71 H 5.275983 4.349422 1.425705 0
M  V30 72 H 2.692381 -2.035764 3.777096 0
M  V30 END ATOM
M  V30 BEGIN BOND
M  V30 1 1 1 2
M  V30 2 1 2 3
M  V30 3 1 3 4
M  V30 4 1 4 5
M  V30 5 1 5 6
M  V30 6 2 6 7
M  V30 7 1 7 8
M  V30 8 1 8 9
M  V30 9 2 8 10
M  V30 10 1 10 11
M  V30 11 2 11 12
M  V30 12 1 12 13
M  V30 13 1 13 14
M  V30 14 2 14 15
M  V30 15 1 14 16
M  V30 16 1 16 17
M  V30 17 2 17 18
M  V30 18 1 18 19
M  V30 19 2 19 20
M  V30 20 1 20 21
M  V30 21 2 21 22
M  V30 22 1 22 23
M  V30 23 1 23 24
M  V30 24 1 24 25
M  V30 25 1 25 26
M  V30 26 1 25 27
M  V30 27 1 27 28
M  V30 28 1 28 29
M  V30 29 2 29 30
M  V30 30 1 30 31
M  V30 31 2 31 32
M  V30 32 1 27 33
M  V30 33 1 33 34
M  V30 34 1 33 35
M  V30 35 2 13 36
M  V30 36 1 36 37
M  V30 37 2 37 38
M  V30 38 1 38 39
M  V30 39 1 10 40
M  V30 40 1 40 41
M  V30 41 2 40 42
M  V30 42 1 42 6
M  V30 43 1 38 11
M  V30 44 1 22 17
M  V30 45 1 35 23
M  V30 46 1 32 28
M  V30 47 1 1 43
M  V30 48 1 1 44
M  V30 49 1 1 45
M  V30 50 1 3 46
M  V30 51 1 3 47
M  V30 52 1 4 48
M  V30 53 1 4 49
M  V30 54 1 7 50
M  V30 55 1 16 51
M  V30 56 1 18 52
M  V30 57 1 20 53
M  V30 58 1 21 54
M  V30 59 1 23 55
M  V30 60 1 24 56
M  V30 61 1 24 57
M  V30 62 1 25 58 CFG=1
M  V30 63 1 26 59
M  V30 64 1 26 60
M  V30 65 1 27 61 CFG=3
M  V30 66 1 29 62
M  V30 67 1 30 63
M  V30 68 1 33 64 CFG=3
M  V30 69 1 34 65
M  V30 70 1 34 66
M  V30 71 1 34 67
M  V30 72 1 35 68
M  V30 73 1 35 69
M  V30 74 1 36 70
M  V30 75 1 37 71
M  V30 76 1 42 72
M  V30 END BOND
M  V30 END CTAB
M  END
>  <Dataset>  (403) 
ChEMBL_Kinases

>  <Ligand_Instance>  (403) 
nan

>  <PDB_ID>  (403) 
nan

>  <Standardized_SMILES>  (403) 
COCCOc1cc(F)c(-c2nc(C(=O)Nc3cnccc3C3C[C@@H](N)[C@@H](n4ccnn4)[C@@H](C)C3)ccc2F)c(F)c1

>  <Name>  (403) 
nan

>  <Pocket>  (403) 
nan

>  <ATP_Site>  (403) 
nan

>  <Peripheral>  (403) 
nan

>  <Num_H_Atoms_ProtBoundConf>  (403) 
nan

>  <Num_Resolved_Atoms>  (403) 
nan

>  <Num_Not_Resolved_Atoms>  (403) 
nan

$$$$
CHEMBL4452170
     RDKit          3D

  0  0  0  0  0  0  0  0  0  0999 V3000
M  V30 BEGIN CTAB
M  V30 COUNTS 59 63 0 0 0
M  V30 BEGIN ATOM
M  V30 1 O 3.133153 0.129929 3.538669 0
M  V30 2 C 2.766817 1.283340 3.947216 0
M  V30 3 C 3.317179 1.217669 5.319394 0
M  V30 4 C 3.965057 -0.140302 5.414067 0
M  V30 5 C 5.287326 -0.353784 5.082027 0
M  V30 6 C 5.858899 -1.605070 5.176339 0
M  V30 7 C 5.119556 -2.690675 5.609266 0
M  V30 8 F 5.561760 -3.967600 5.745785 0
M  V30 9 C 3.788066 -2.483147 5.945167 0
M  V30 10 C 3.217884 -1.220301 5.848114 0
M  V30 11 N 2.053163 2.230374 3.194547 0
M  V30 12 C 1.811307 1.666924 1.885753 0
M  V30 13 C 0.675932 0.929716 1.641846 0
M  V30 14 C 0.549076 0.447217 0.373866 0
M  V30 15 C -0.629797 -0.361795 -0.009233 0
M  V30 16 N -0.950080 -1.563001 0.555851 0
M  V30 17 C -2.090885 -1.968464 -0.073547 0
M  V30 18 S -2.783981 -3.532090 0.441676 0
M  V30 19 C -4.276775 -3.953871 -0.453812 0
M  V30 20 C -4.078084 -4.213887 -1.889161 0
M  V30 21 C -4.151874 -3.248376 -2.874476 0
M  V30 22 C -3.951910 -3.575673 -4.199228 0
M  V30 23 C -3.672821 -4.869048 -4.588549 0
M  V30 24 C -3.589084 -5.867157 -3.640744 0
M  V30 25 C -3.794200 -5.506733 -2.324545 0
M  V30 26 N -2.425324 -1.049348 -0.966168 0
M  V30 27 C -1.558949 -0.030367 -0.973235 0
M  V30 28 C -1.591356 1.161691 -1.812152 0
M  V30 29 C -1.728166 2.428499 -1.324357 0
M  V30 30 C -1.753427 3.535184 -2.166284 0
M  V30 31 C -1.638943 3.379140 -3.539688 0
M  V30 32 F -1.661636 4.447480 -4.376347 0
M  V30 33 C -1.498679 2.094074 -4.054100 0
M  V30 34 C -1.477857 1.013845 -3.181349 0
M  V30 35 C 1.525704 0.711733 -0.562545 0
M  V30 36 C 2.658850 1.450631 -0.309339 0
M  V30 37 N 2.768450 1.920508 0.950621 0
M  V30 38 H 2.569098 1.347216 6.110684 0
M  V30 39 H 4.129759 1.948606 5.514200 0
M  V30 40 H 5.891206 0.455359 4.744157 0
M  V30 41 H 6.891078 -1.806375 4.924058 0
M  V30 42 H 3.085927 -3.246615 6.301299 0
M  V30 43 H 2.174783 -1.012498 6.101931 0
M  V30 44 H 1.910277 3.072353 3.820867 0
M  V30 45 H -0.058743 0.744730 2.389432 0
M  V30 46 H -0.355492 -1.996605 1.323880 0
M  V30 47 H -4.671219 -4.892511 0.006031 0
M  V30 48 H -4.993618 -3.120267 -0.332284 0
M  V30 49 H -4.368197 -2.235992 -2.593787 0
M  V30 50 H -4.002001 -2.848642 -4.993961 0
M  V30 51 H -3.508608 -5.160400 -5.636156 0
M  V30 52 H -3.373345 -6.866031 -3.942818 0
M  V30 53 H -3.716707 -6.331906 -1.621880 0
M  V30 54 H -1.819151 2.569921 -0.251919 0
M  V30 55 H -1.864748 4.540870 -1.742019 0
M  V30 56 H -1.410434 1.989212 -5.128465 0
M  V30 57 H -1.365488 0.061032 -3.678228 0
M  V30 58 H 1.389682 0.311345 -1.559666 0
M  V30 59 H 3.380465 1.614997 -1.097153 0
M  V30 END ATOM
M  V30 BEGIN BOND
M  V30 1 2 1 2
M  V30 2 1 2 3
M  V30 3 1 3 4
M  V30 4 2 4 5
M  V30 5 1 5 6
M  V30 6 2 6 7
M  V30 7 1 7 8
M  V30 8 1 7 9
M  V30 9 2 9 10
M  V30 10 1 2 11
M  V30 11 1 11 12
M  V30 12 2 12 13
M  V30 13 1 13 14
M  V30 14 1 14 15
M  V30 15 1 15 16
M  V30 16 1 16 17
M  V30 17 1 17 18
M  V30 18 1 18 19
M  V30 19 1 19 20
M  V30 20 2 20 21
M  V30 21 1 21 22
M  V30 22 2 22 23
M  V30 23 1 23 24
M  V30 24 2 24 25
M  V30 25 2 17 26
M  V30 26 1 26 27
M  V30 27 1 27 28
M  V30 28 2 28 29
M  V30 29 1 29 30
M  V30 30 2 30 31
M  V30 31 1 31 32
M  V30 32 1 31 33
M  V30 33 2 33 34
M  V30 34 2 14 35
M  V30 35 1 35 36
M  V30 36 2 36 37
M  V30 37 1 10 4
M  V30 38 1 37 12
M  V30 39 2 27 15
M  V30 40 1 34 28
M  V30 41 1 25 20
M  V30 42 1 3 38
M  V30 43 1 3 39
M  V30 44 1 5 40
M  V30 45 1 6 41
M  V30 46 1 9 42
M  V30 47 1 10 43
M  V30 48 1 11 44
M  V30 49 1 13 45
M  V30 50 1 16 46
M  V30 51 1 19 47
M  V30 52 1 19 48
M  V30 53 1 21 49
M  V30 54 1 22 50
M  V30 55 1 23 51
M  V30 56 1 24 52
M  V30 57 1 25 53
M  V30 58 1 29 54
M  V30 59 1 30 55
M  V30 60 1 33 56
M  V30 61 1 34 57
M  V30 62 1 35 58
M  V30 63 1 36 59
M  V30 END BOND
M  V30 END CTAB
M  END
>  <Dataset>  (404) 
ChEMBL_Kinases

>  <Ligand_Instance>  (404) 
nan

>  <PDB_ID>  (404) 
nan

>  <Standardized_SMILES>  (404) 
O=C(Cc1ccc(F)cc1)Nc1cc(-c2[nH]c(SCc3ccccc3)nc2-c2ccc(F)cc2)ccn1

>  <Name>  (404) 
nan

>  <Pocket>  (404) 
nan

>  <ATP_Site>  (404) 
nan

>  <Peripheral>  (404) 
nan

>  <Num_H_Atoms_ProtBoundConf>  (404) 
nan

>  <Num_Resolved_Atoms>  (404) 
nan

>  <Num_Not_Resolved_Atoms>  (404) 
nan

$$$$
CHEMBL4451940
     RDKit          3D

  0  0  0  0  0  0  0  0  0  0999 V3000
M  V30 BEGIN CTAB
M  V30 COUNTS 65 68 0 0 0
M  V30 BEGIN ATOM
M  V30 1 C 4.956272 -0.890853 4.566979 0
M  V30 2 C 4.590045 0.377563 3.885143 0
M  V30 3 C 5.869569 1.198009 3.735692 0
M  V30 4 C 4.004680 0.221464 2.503973 0
M  V30 5 C 2.817480 -0.709189 2.617584 0
M  V30 6 N 1.953901 -0.650696 1.448562 0
M  V30 7 C 1.820148 -1.730562 0.516523 0
M  V30 8 O 2.505246 -2.738208 0.780304 0
M  V30 9 C 0.948035 -1.650704 -0.649007 0
M  V30 10 C 0.149339 -0.580393 -0.991875 0
M  V30 11 C -0.649255 -0.572881 -2.113496 0
M  V30 12 C -0.676515 -1.668129 -2.954556 0
M  V30 13 N -1.490553 -1.687311 -4.119292 0
M  V30 14 C -2.327553 -0.584112 -4.430452 0
M  V30 15 N -2.024835 0.536989 -5.137908 0
M  V30 16 C -2.942103 1.497973 -5.349129 0
M  V30 17 C -4.231138 1.345193 -4.833658 0
M  V30 18 F -5.166513 2.321417 -5.046295 0
M  V30 19 C -4.549594 0.194382 -4.104991 0
M  V30 20 N -5.862022 0.011321 -3.566307 0
M  V30 21 C -6.132043 -1.192866 -2.840188 0
M  V30 22 C -7.160799 -1.912402 -3.448742 0
M  V30 23 C -7.579260 -3.111119 -2.907349 0
M  V30 24 C -6.993906 -3.624908 -1.757050 0
M  V30 25 C -5.966699 -2.878150 -1.174131 0
M  V30 26 C -5.543975 -1.684821 -1.705657 0
M  V30 27 Cl -4.278664 -0.678684 -1.061977 0
M  V30 28 N -3.585166 -0.720700 -3.934307 0
M  V30 29 C 0.112188 -2.761813 -2.642773 0
M  V30 30 C 0.912079 -2.736433 -1.495252 0
M  V30 31 C 2.065794 -0.555036 3.892585 0
M  V30 32 C 2.329992 0.684745 4.670766 0
M  V30 33 C 1.969188 0.455333 6.128066 0
M  V30 34 C 1.444073 1.819971 4.180381 0
M  V30 35 N 3.672365 1.169431 4.648169 0
M  V30 36 O 4.159167 1.569668 5.830905 0 RAD=2 VAL=1
M  V30 37 H 4.654109 -1.819661 4.082707 0
M  V30 38 H 4.431018 -0.901379 5.567500 0
M  V30 39 H 6.040366 -0.946544 4.853982 0
M  V30 40 H 5.701717 2.039796 3.030646 0
M  V30 41 H 6.646860 0.507461 3.345246 0
M  V30 42 H 6.215891 1.569922 4.728691 0
M  V30 43 H 4.713402 -0.179839 1.774345 0
M  V30 44 H 3.721718 1.236223 2.169076 0
M  V30 45 H 3.273371 -1.724962 2.585690 0
M  V30 46 H 1.413923 0.236952 1.305555 0
M  V30 47 H 0.175372 0.278772 -0.325365 0
M  V30 48 H -1.241554 0.306394 -2.304893 0
M  V30 49 H -1.476109 -2.508314 -4.747074 0
M  V30 50 H -2.644541 2.366145 -5.917857 0
M  V30 51 H -6.568913 0.752496 -3.718494 0
M  V30 52 H -7.727602 -1.676150 -4.335092 0
M  V30 53 H -8.369560 -3.754092 -3.296424 0
M  V30 54 H -7.250853 -4.541265 -1.268363 0
M  V30 55 H -5.448001 -3.202648 -0.269665 0
M  V30 56 H 0.060389 -3.598902 -3.329272 0
M  V30 57 H 1.510528 -3.617564 -1.297089 0
M  V30 58 H 2.168428 -1.451491 4.545360 0
M  V30 59 H 0.976805 -0.541819 3.637905 0
M  V30 60 H 2.875047 0.461694 6.790137 0
M  V30 61 H 1.227333 1.191782 6.508198 0
M  V30 62 H 1.498092 -0.556148 6.244555 0
M  V30 63 H 0.409059 1.468955 4.014331 0
M  V30 64 H 1.802298 2.240257 3.202706 0
M  V30 65 H 1.411374 2.672634 4.886510 0
M  V30 END ATOM
M  V30 BEGIN BOND
M  V30 1 1 1 2
M  V30 2 1 2 3
M  V30 3 1 2 4
M  V30 4 1 4 5
M  V30 5 1 5 6
M  V30 6 1 6 7
M  V30 7 2 7 8
M  V30 8 1 7 9
M  V30 9 2 9 10
M  V30 10 1 10 11
M  V30 11 2 11 12
M  V30 12 1 12 13
M  V30 13 1 13 14
M  V30 14 2 14 15
M  V30 15 1 15 16
M  V30 16 2 16 17
M  V30 17 1 17 18
M  V30 18 1 17 19
M  V30 19 1 19 20
M  V30 20 1 20 21
M  V30 21 2 21 22
M  V30 22 1 22 23
M  V30 23 2 23 24
M  V30 24 1 24 25
M  V30 25 2 25 26
M  V30 26 1 26 27
M  V30 27 2 19 28
M  V30 28 1 12 29
M  V30 29 2 29 30
M  V30 30 1 5 31
M  V30 31 1 31 32
M  V30 32 1 32 33
M  V30 33 1 32 34
M  V30 34 1 32 35
M  V30 35 1 35 36
M  V30 36 1 35 2
M  V30 37 1 30 9
M  V30 38 1 28 14
M  V30 39 1 26 21
M  V30 40 1 1 37
M  V30 41 1 1 38
M  V30 42 1 1 39
M  V30 43 1 3 40
M  V30 44 1 3 41
M  V30 45 1 3 42
M  V30 46 1 4 43
M  V30 47 1 4 44
M  V30 48 1 5 45
M  V30 49 1 6 46
M  V30 50 1 10 47
M  V30 51 1 11 48
M  V30 52 1 13 49
M  V30 53 1 16 50
M  V30 54 1 20 51
M  V30 55 1 22 52
M  V30 56 1 23 53
M  V30 57 1 24 54
M  V30 58 1 25 55
M  V30 59 1 29 56
M  V30 60 1 30 57
M  V30 61 1 31 58
M  V30 62 1 31 59
M  V30 63 1 33 60
M  V30 64 1 33 61
M  V30 65 1 33 62
M  V30 66 1 34 63
M  V30 67 1 34 64
M  V30 68 1 34 65
M  V30 END BOND
M  V30 END CTAB
M  END
>  <Dataset>  (405) 
ChEMBL_Kinases

>  <Ligand_Instance>  (405) 
nan

>  <PDB_ID>  (405) 
nan

>  <Standardized_SMILES>  (405) 
CC1(C)CC(NC(=O)c2ccc(Nc3ncc(F)c(Nc4ccccc4Cl)n3)cc2)CC(C)(C)N1[O]

>  <Name>  (405) 
nan

>  <Pocket>  (405) 
nan

>  <ATP_Site>  (405) 
nan

>  <Peripheral>  (405) 
nan

>  <Num_H_Atoms_ProtBoundConf>  (405) 
nan

>  <Num_Resolved_Atoms>  (405) 
nan

>  <Num_Not_Resolved_Atoms>  (405) 
nan

$$$$
CHEMBL3691915
     RDKit          3D

  0  0  0  0  0  0  0  0  0  0999 V3000
M  V30 BEGIN CTAB
M  V30 COUNTS 57 61 0 0 0
M  V30 BEGIN ATOM
M  V30 1 C 0.604083 -3.106053 2.140947 0
M  V30 2 C 0.766773 -1.921143 1.244742 0 CFG=1
M  V30 3 C 2.064435 -1.249233 1.614606 0
M  V30 4 N 2.729332 -0.730025 0.434505 0
M  V30 5 C 3.048115 0.588882 0.012908 0
M  V30 6 C 4.433824 0.715635 -0.142803 0
M  V30 7 C 4.993532 1.927137 -0.555019 0
M  V30 8 N 4.179971 2.961829 -0.797519 0
M  V30 9 C 2.853118 2.857548 -0.653510 0
M  V30 10 C 2.253858 1.683672 -0.249222 0
M  V30 11 N 0.878778 1.419425 -0.054244 0
M  V30 12 C 0.470169 1.715077 1.276645 0
M  V30 13 O 1.392826 2.146878 2.012534 0
M  V30 14 C -0.899539 1.531950 1.741658 0
M  V30 15 C -1.182745 1.878811 3.138436 0
M  V30 16 S -2.908575 1.501750 3.232001 0
M  V30 17 C -3.009526 0.942971 1.423415 0
M  V30 18 C -4.341209 0.493231 0.959310 0
M  V30 19 C -5.477957 0.451325 1.719811 0
M  V30 20 F -5.386680 0.853721 3.008467 0
M  V30 21 C -6.639062 -0.000284 1.113754 0
M  V30 22 C -6.612927 -0.385597 -0.210423 0
M  V30 23 C -5.457556 -0.343839 -0.986172 0
M  V30 24 C -4.299092 0.112155 -0.363155 0
M  V30 25 F -3.195622 0.139552 -1.146173 0
M  V30 26 N -1.922320 1.084283 1.039269 0
M  V30 27 C 3.146774 -1.788238 -0.486109 0
M  V30 28 C 2.133373 -2.914334 -0.558967 0 CFG=1
M  V30 29 N 2.484911 -4.029979 0.262975 0
M  V30 30 C 0.791897 -2.297445 -0.229552 0 CFG=1
M  V30 31 N -0.333129 -3.083742 -0.612617 0
M  V30 32 C -0.686818 -3.121072 -1.930849 0
M  V30 33 C -1.792057 -3.934578 -2.070868 0
M  V30 34 N -2.075809 -4.368634 -0.820757 0
M  V30 35 N -1.215843 -3.864821 0.025718 0
M  V30 36 H 1.393793 -3.152970 2.947421 0
M  V30 37 H 0.534135 -4.082298 1.620705 0
M  V30 38 H -0.348049 -2.997208 2.698156 0
M  V30 39 H -0.093335 -1.221347 1.360298 0
M  V30 40 H 2.798694 -1.999249 2.035327 0
M  V30 41 H 1.949079 -0.512441 2.424774 0
M  V30 42 H 5.189461 -0.045394 0.022180 0
M  V30 43 H 6.055967 2.077956 -0.690514 0
M  V30 44 H 2.135143 3.664072 -0.835465 0
M  V30 45 H 0.130495 1.051576 -0.710348 0
M  V30 46 H -0.542216 2.243601 3.863545 0
M  V30 47 H -7.536273 -0.034748 1.709432 0
M  V30 48 H -7.519534 -0.745604 -0.708668 0
M  V30 49 H -5.463681 -0.654069 -2.030841 0
M  V30 50 H 4.088463 -2.224857 -0.057663 0
M  V30 51 H 3.424871 -1.416006 -1.477024 0
M  V30 52 H 2.122985 -3.250456 -1.619820 0
M  V30 53 H 2.200497 -4.927988 -0.222515 0
M  V30 54 H 3.517563 -4.044084 0.415972 0
M  V30 55 H 0.793895 -1.309240 -0.776174 0
M  V30 56 H -0.242100 -2.631604 -2.800660 0
M  V30 57 H -2.317142 -4.168209 -3.010770 0
M  V30 END ATOM
M  V30 BEGIN BOND
M  V30 1 1 1 2
M  V30 2 1 2 3
M  V30 3 1 3 4
M  V30 4 1 4 5
M  V30 5 2 5 6
M  V30 6 1 6 7
M  V30 7 2 7 8
M  V30 8 1 8 9
M  V30 9 2 9 10
M  V30 10 1 10 11
M  V30 11 1 11 12
M  V30 12 2 12 13
M  V30 13 1 12 14
M  V30 14 2 14 15
M  V30 15 1 15 16
M  V30 16 1 16 17
M  V30 17 1 17 18
M  V30 18 2 18 19
M  V30 19 1 19 20
M  V30 20 1 19 21
M  V30 21 2 21 22
M  V30 22 1 22 23
M  V30 23 2 23 24
M  V30 24 1 24 25
M  V30 25 2 17 26
M  V30 26 1 4 27
M  V30 27 1 27 28
M  V30 28 1 28 29
M  V30 29 1 28 30
M  V30 30 1 30 31
M  V30 31 1 31 32
M  V30 32 2 32 33
M  V30 33 1 33 34
M  V30 34 2 34 35
M  V30 35 1 30 2
M  V30 36 1 35 31
M  V30 37 1 10 5
M  V30 38 1 26 14
M  V30 39 1 24 18
M  V30 40 1 1 36
M  V30 41 1 1 37
M  V30 42 1 1 38
M  V30 43 1 2 39 CFG=3
M  V30 44 1 3 40
M  V30 45 1 3 41
M  V30 46 1 6 42
M  V30 47 1 7 43
M  V30 48 1 9 44
M  V30 49 1 11 45
M  V30 50 1 15 46
M  V30 51 1 21 47
M  V30 52 1 22 48
M  V30 53 1 23 49
M  V30 54 1 27 50
M  V30 55 1 27 51
M  V30 56 1 28 52 CFG=3
M  V30 57 1 29 53
M  V30 58 1 29 54
M  V30 59 1 30 55 CFG=3
M  V30 60 1 32 56
M  V30 61 1 33 57
M  V30 END BOND
M  V30 END CTAB
M  END
>  <Dataset>  (406) 
ChEMBL_Kinases

>  <Ligand_Instance>  (406) 
nan

>  <PDB_ID>  (406) 
nan

>  <Standardized_SMILES>  (406) 
C[C@H]1CN(c2ccncc2NC(=O)c2csc(-c3c(F)cccc3F)n2)C[C@@H](N)[C@H]1n1ccnn1

>  <Name>  (406) 
nan

>  <Pocket>  (406) 
nan

>  <ATP_Site>  (406) 
nan

>  <Peripheral>  (406) 
nan

>  <Num_H_Atoms_ProtBoundConf>  (406) 
nan

>  <Num_Resolved_Atoms>  (406) 
nan

>  <Num_Not_Resolved_Atoms>  (406) 
nan

$$$$
CHEMBL4451899
     RDKit          3D

  0  0  0  0  0  0  0  0  0  0999 V3000
M  V30 BEGIN CTAB
M  V30 COUNTS 45 47 0 0 0
M  V30 BEGIN ATOM
M  V30 1 C 5.718134 -5.688390 0.410235 0
M  V30 2 O 5.300168 -4.573411 -0.344137 0
M  V30 3 C 4.510074 -3.609187 0.260907 0
M  V30 4 C 4.101909 -3.679176 1.582345 0
M  V30 5 C 3.319153 -2.688536 2.118837 0
M  V30 6 C 2.940445 -1.610973 1.315906 0
M  V30 7 C 3.355682 -1.544825 -0.019396 0
M  V30 8 C 2.827334 -0.312032 -0.658505 0 CFG=1
M  V30 9 C 3.085944 -0.231082 -2.118298 0
M  V30 10 N 1.436488 -0.117610 -0.329248 0
M  V30 11 C 0.932405 0.956061 0.455918 0
M  V30 12 O 1.712741 1.829954 0.923718 0
M  V30 13 C -0.482683 1.115381 0.765241 0
M  V30 14 C -0.859442 2.194403 1.537517 0
M  V30 15 C -2.205191 2.414635 1.877298 0
M  V30 16 C -3.179735 1.526659 1.426147 0
M  V30 17 C -4.599206 1.690403 1.739309 0
M  V30 18 C -4.941796 2.264343 2.947619 0
M  V30 19 C -6.269996 2.439195 3.286499 0
M  V30 20 N -7.206870 2.038987 2.415746 0
M  V30 21 C -6.865957 1.481051 1.241213 0
M  V30 22 Cl -8.188700 1.014044 0.219471 0
M  V30 23 C -5.552406 1.271508 0.828554 0
M  V30 24 C -2.798744 0.435323 0.645010 0
M  V30 25 C -1.466965 0.248261 0.329300 0
M  V30 26 C 4.139897 -2.547562 -0.538683 0
M  V30 27 H 6.508903 -5.310477 1.121098 0
M  V30 28 H 6.215879 -6.451594 -0.217074 0
M  V30 29 H 4.913321 -6.123901 1.035919 0
M  V30 30 H 4.403953 -4.516662 2.184423 0
M  V30 31 H 3.033051 -2.795591 3.148386 0
M  V30 32 H 2.327071 -0.899448 1.851240 0
M  V30 33 H 3.369849 0.541730 -0.171629 0
M  V30 34 H 3.001986 0.834472 -2.423689 0
M  V30 35 H 2.467179 -0.902752 -2.732236 0
M  V30 36 H 4.146949 -0.492773 -2.313982 0
M  V30 37 H 0.790844 -0.834330 -0.712190 0
M  V30 38 H -0.178963 2.946315 1.940357 0
M  V30 39 H -2.536183 3.249342 2.480337 0
M  V30 40 H -4.189385 2.588592 3.652748 0
M  V30 41 H -6.551644 2.888438 4.232569 0
M  V30 42 H -5.318677 0.825427 -0.111440 0
M  V30 43 H -3.541371 -0.260406 0.288484 0
M  V30 44 H -1.187008 -0.599750 -0.275784 0
M  V30 45 H 4.390395 -2.377060 -1.575914 0
M  V30 END ATOM
M  V30 BEGIN BOND
M  V30 1 1 1 2
M  V30 2 1 2 3
M  V30 3 2 3 4
M  V30 4 1 4 5
M  V30 5 2 5 6
M  V30 6 1 6 7
M  V30 7 1 7 8
M  V30 8 1 8 9
M  V30 9 1 8 10
M  V30 10 1 10 11
M  V30 11 2 11 12
M  V30 12 1 11 13
M  V30 13 2 13 14
M  V30 14 1 14 15
M  V30 15 2 15 16
M  V30 16 1 16 17
M  V30 17 2 17 18
M  V30 18 1 18 19
M  V30 19 2 19 20
M  V30 20 1 20 21
M  V30 21 1 21 22
M  V30 22 2 21 23
M  V30 23 1 16 24
M  V30 24 2 24 25
M  V30 25 2 7 26
M  V30 26 1 26 3
M  V30 27 1 25 13
M  V30 28 1 23 17
M  V30 29 1 1 27
M  V30 30 1 1 28
M  V30 31 1 1 29
M  V30 32 1 4 30
M  V30 33 1 5 31
M  V30 34 1 6 32
M  V30 35 1 8 33 CFG=1
M  V30 36 1 9 34
M  V30 37 1 9 35
M  V30 38 1 9 36
M  V30 39 1 10 37
M  V30 40 1 14 38
M  V30 41 1 15 39
M  V30 42 1 18 40
M  V30 43 1 19 41
M  V30 44 1 23 42
M  V30 45 1 24 43
M  V30 46 1 25 44
M  V30 47 1 26 45
M  V30 END BOND
M  V30 END CTAB
M  END
>  <Dataset>  (407) 
ChEMBL_Kinases

>  <Ligand_Instance>  (407) 
nan

>  <PDB_ID>  (407) 
nan

>  <Standardized_SMILES>  (407) 
COc1cccc([C@@H](C)NC(=O)c2ccc(-c3ccnc(Cl)c3)cc2)c1

>  <Name>  (407) 
nan

>  <Pocket>  (407) 
nan

>  <ATP_Site>  (407) 
nan

>  <Peripheral>  (407) 
nan

>  <Num_H_Atoms_ProtBoundConf>  (407) 
nan

>  <Num_Resolved_Atoms>  (407) 
nan

>  <Num_Not_Resolved_Atoms>  (407) 
nan

$$$$
CHEMBL445180
     RDKit          3D

  0  0  0  0  0  0  0  0  0  0999 V3000
M  V30 BEGIN CTAB
M  V30 COUNTS 46 49 0 0 0
M  V30 BEGIN ATOM
M  V30 1 C 0.402246 -3.423151 0.391516 0
M  V30 2 C 0.503824 -2.266136 -0.585242 0
M  V30 3 N 0.999951 -1.060631 0.051283 0
M  V30 4 C 2.291319 -0.690620 0.160660 0
M  V30 5 C 3.444128 -1.413220 -0.330366 0
M  V30 6 N 3.472766 -2.578965 -0.984288 0
M  V30 7 O 4.687090 -2.895214 -1.252776 0
M  V30 8 N 5.525677 -1.984961 -0.807171 0
M  V30 9 C 4.759973 -1.029533 -0.215190 0
M  V30 10 N 5.291143 0.126212 0.390877 0
M  V30 11 N 2.310811 0.484053 0.815935 0
M  V30 12 C 1.050750 0.857754 1.119995 0
M  V30 13 C 0.587177 1.983107 1.784168 0
M  V30 14 C 1.485624 3.014602 2.293028 0
M  V30 15 C 2.585127 3.703176 1.822154 0
M  V30 16 C 2.981376 4.565677 2.823438 0
M  V30 17 O 2.171694 4.421194 3.861306 0
M  V30 18 C 1.265316 3.504231 3.583619 0
M  V30 19 N -0.755298 2.099275 1.950470 0
M  V30 20 C -1.627966 1.179678 1.502216 0
M  V30 21 C -1.141893 0.051027 0.834500 0
M  V30 22 O -2.005803 -0.927601 0.352578 0
M  V30 23 C -3.388437 -0.761760 0.549685 0
M  V30 24 C -4.191362 -1.912317 -0.033009 0
M  V30 25 C -3.812478 -3.235623 0.596619 0
M  V30 26 N -4.554891 -4.355595 0.068682 0
M  V30 27 C 0.213075 -0.135595 0.627865 0
M  V30 28 H 1.391254 -3.877968 0.590830 0
M  V30 29 H 0.097716 -2.964837 1.372383 0
M  V30 30 H -0.390024 -4.140695 0.131549 0
M  V30 31 H 1.134015 -2.604680 -1.428885 0
M  V30 32 H -0.513026 -2.094618 -1.021307 0
M  V30 33 H 5.707693 0.313389 1.335222 0
M  V30 34 H 5.465197 1.140903 0.174683 0
M  V30 35 H 2.934417 3.476510 0.823588 0
M  V30 36 H 3.835223 5.220212 2.686123 0
M  V30 37 H 0.563580 3.331087 4.391773 0
M  V30 38 H -2.693729 1.289532 1.644096 0
M  V30 39 H -3.684593 0.131373 -0.040336 0
M  V30 40 H -3.671138 -0.598772 1.594455 0
M  V30 41 H -4.070434 -1.956269 -1.131983 0
M  V30 42 H -5.256907 -1.715441 0.180769 0
M  V30 43 H -2.741129 -3.438346 0.324205 0
M  V30 44 H -3.857383 -3.221286 1.683426 0
M  V30 45 H -5.592040 -4.213704 0.161792 0
M  V30 46 H -4.321337 -4.441923 -0.957035 0
M  V30 END ATOM
M  V30 BEGIN BOND
M  V30 1 1 1 2
M  V30 2 1 2 3
M  V30 3 1 3 4
M  V30 4 1 4 5
M  V30 5 2 5 6
M  V30 6 1 6 7
M  V30 7 1 7 8
M  V30 8 2 8 9
M  V30 9 1 9 10
M  V30 10 2 4 11
M  V30 11 1 11 12
M  V30 12 2 12 13
M  V30 13 1 13 14
M  V30 14 1 14 15
M  V30 15 2 15 16
M  V30 16 1 16 17
M  V30 17 1 17 18
M  V30 18 1 13 19
M  V30 19 2 19 20
M  V30 20 1 20 21
M  V30 21 1 21 22
M  V30 22 1 22 23
M  V30 23 1 23 24
M  V30 24 1 24 25
M  V30 25 1 25 26
M  V30 26 2 21 27
M  V30 27 1 27 3
M  V30 28 1 9 5
M  V30 29 1 27 12
M  V30 30 2 18 14
M  V30 31 1 1 28
M  V30 32 1 1 29
M  V30 33 1 1 30
M  V30 34 1 2 31
M  V30 35 1 2 32
M  V30 36 1 10 33
M  V30 37 1 10 34
M  V30 38 1 15 35
M  V30 39 1 16 36
M  V30 40 1 18 37
M  V30 41 1 20 38
M  V30 42 1 23 39
M  V30 43 1 23 40
M  V30 44 1 24 41
M  V30 45 1 24 42
M  V30 46 1 25 43
M  V30 47 1 25 44
M  V30 48 1 26 45
M  V30 49 1 26 46
M  V30 END BOND
M  V30 END CTAB
M  END
>  <Dataset>  (408) 
ChEMBL_Kinases

>  <Ligand_Instance>  (408) 
nan

>  <PDB_ID>  (408) 
nan

>  <Standardized_SMILES>  (408) 
CCn1c(-c2nonc2N)nc2c(-c3ccoc3)ncc(OCCCN)c21

>  <Name>  (408) 
nan

>  <Pocket>  (408) 
nan

>  <ATP_Site>  (408) 
nan

>  <Peripheral>  (408) 
nan

>  <Num_H_Atoms_ProtBoundConf>  (408) 
nan

>  <Num_Resolved_Atoms>  (408) 
nan

>  <Num_Not_Resolved_Atoms>  (408) 
nan

$$$$
CHEMBL3702096
     RDKit          3D

  0  0  0  0  0  0  0  0  0  0999 V3000
M  V30 BEGIN CTAB
M  V30 COUNTS 64 69 0 0 0
M  V30 BEGIN ATOM
M  V30 1 O 5.050297 -0.983374 4.487904 0
M  V30 2 C 3.892848 -0.899913 3.752228 0
M  V30 3 C 3.693488 0.419446 3.045710 0
M  V30 4 N 4.714028 0.744868 2.122081 0
M  V30 5 C 4.825913 -0.039377 0.947502 0
M  V30 6 C 3.732915 0.279862 -0.033481 0
M  V30 7 N 3.171675 1.585302 0.257227 0
M  V30 8 C 1.777893 1.948503 0.318820 0
M  V30 9 C 1.284561 3.186758 0.576849 0
M  V30 10 C -0.079677 3.394936 0.611249 0
M  V30 11 C -0.996672 2.393029 0.393436 0
M  V30 12 N -2.422008 2.600307 0.429077 0
M  V30 13 C -3.284831 1.501538 0.195529 0
M  V30 14 N -4.623526 1.631482 0.219624 0
M  V30 15 C -5.437390 0.570619 -0.004220 0
M  V30 16 C -4.902304 -0.675666 -0.263897 0
M  V30 17 C -5.399428 -1.948395 -0.530903 0
M  V30 18 C -6.703719 -2.397891 -0.627256 0
M  V30 19 C -6.955339 -3.726966 -0.905178 0
M  V30 20 N -5.885137 -4.531053 -1.071019 0
M  V30 21 C -4.628124 -4.112912 -0.981342 0
M  V30 22 C -4.298653 -2.788147 -0.704111 0
M  V30 23 N -3.150787 -2.101603 -0.558299 0
M  V30 24 C -1.843259 -2.648229 -0.670683 0
M  V30 25 C -1.540575 -3.762158 0.294818 0
M  V30 26 C -0.795145 -4.781470 -0.535059 0
M  V30 27 C -0.237606 -3.975876 -1.693738 0
M  V30 28 C -1.466181 -3.126309 -2.038668 0
M  V30 29 C -3.530079 -0.815474 -0.290196 0
M  V30 30 N -2.780615 0.279294 -0.059319 0
M  V30 31 N -0.476582 1.179583 0.140803 0
M  V30 32 C 0.852717 0.951720 0.101845 0
M  V30 33 C 4.250570 2.528246 0.493113 0
M  V30 34 C 4.802336 2.146482 1.873699 0
M  V30 35 H 5.422871 -0.076722 4.705685 0
M  V30 36 H 3.750975 -1.748875 3.050408 0
M  V30 37 H 3.047547 -0.982288 4.475912 0
M  V30 38 H 2.727285 0.352833 2.531312 0
M  V30 39 H 3.611749 1.194559 3.825956 0
M  V30 40 H 5.830544 0.170863 0.497757 0
M  V30 41 H 4.794166 -1.128713 1.146005 0
M  V30 42 H 3.003628 -0.523843 -0.158848 0
M  V30 43 H 4.213950 0.407345 -1.051402 0
M  V30 44 H 1.972143 3.984996 0.750446 0
M  V30 45 H -0.439427 4.387330 0.818378 0
M  V30 46 H -2.777356 3.548783 0.624645 0
M  V30 47 H -6.517380 0.592369 -0.002360 0
M  V30 48 H -7.531383 -1.716352 -0.486760 0
M  V30 49 H -7.956247 -4.141027 -0.993267 0
M  V30 50 H -3.838289 -4.838365 -1.131389 0
M  V30 51 H -1.125390 -1.823069 -0.428680 0
M  V30 52 H -0.839856 -3.449485 1.104853 0
M  V30 53 H -2.421997 -4.181902 0.802054 0
M  V30 54 H -1.468210 -5.546678 -0.970139 0
M  V30 55 H -0.030549 -5.321934 0.032408 0
M  V30 56 H 0.528544 -3.307427 -1.285883 0
M  V30 57 H 0.075401 -4.603710 -2.533296 0
M  V30 58 H -2.243758 -3.729070 -2.540999 0
M  V30 59 H -1.152165 -2.268298 -2.664602 0
M  V30 60 H 1.045363 -0.069686 -0.112552 0
M  V30 61 H 5.045279 2.413701 -0.253165 0
M  V30 62 H 3.927380 3.587707 0.483279 0
M  V30 63 H 4.111420 2.669479 2.598391 0
M  V30 64 H 5.832621 2.534939 2.005425 0
M  V30 END ATOM
M  V30 BEGIN BOND
M  V30 1 1 1 2
M  V30 2 1 2 3
M  V30 3 1 3 4
M  V30 4 1 4 5
M  V30 5 1 5 6
M  V30 6 1 6 7
M  V30 7 1 7 8
M  V30 8 2 8 9
M  V30 9 1 9 10
M  V30 10 2 10 11
M  V30 11 1 11 12
M  V30 12 1 12 13
M  V30 13 2 13 14
M  V30 14 1 14 15
M  V30 15 2 15 16
M  V30 16 1 16 17
M  V30 17 2 17 18
M  V30 18 1 18 19
M  V30 19 2 19 20
M  V30 20 1 20 21
M  V30 21 2 21 22
M  V30 22 1 22 23
M  V30 23 1 23 24
M  V30 24 1 24 25
M  V30 25 1 25 26
M  V30 26 1 26 27
M  V30 27 1 27 28
M  V30 28 1 23 29
M  V30 29 2 29 30
M  V30 30 1 11 31
M  V30 31 2 31 32
M  V30 32 1 7 33
M  V30 33 1 33 34
M  V30 34 1 34 4
M  V30 35 1 32 8
M  V30 36 1 30 13
M  V30 37 1 29 16
M  V30 38 1 22 17
M  V30 39 1 28 24
M  V30 40 1 1 35
M  V30 41 1 2 36
M  V30 42 1 2 37
M  V30 43 1 3 38
M  V30 44 1 3 39
M  V30 45 1 5 40
M  V30 46 1 5 41
M  V30 47 1 6 42
M  V30 48 1 6 43
M  V30 49 1 9 44
M  V30 50 1 10 45
M  V30 51 1 12 46
M  V30 52 1 15 47
M  V30 53 1 18 48
M  V30 54 1 19 49
M  V30 55 1 21 50
M  V30 56 1 24 51
M  V30 57 1 25 52
M  V30 58 1 25 53
M  V30 59 1 26 54
M  V30 60 1 26 55
M  V30 61 1 27 56
M  V30 62 1 27 57
M  V30 63 1 28 58
M  V30 64 1 28 59
M  V30 65 1 32 60
M  V30 66 1 33 61
M  V30 67 1 33 62
M  V30 68 1 34 63
M  V30 69 1 34 64
M  V30 END BOND
M  V30 END CTAB
M  END
>  <Dataset>  (409) 
ChEMBL_Kinases

>  <Ligand_Instance>  (409) 
nan

>  <PDB_ID>  (409) 
nan

>  <Standardized_SMILES>  (409) 
OCCN1CCN(c2ccc(Nc3ncc4c5ccncc5n(C5CCCC5)c4n3)nc2)CC1

>  <Name>  (409) 
nan

>  <Pocket>  (409) 
nan

>  <ATP_Site>  (409) 
nan

>  <Peripheral>  (409) 
nan

>  <Num_H_Atoms_ProtBoundConf>  (409) 
nan

>  <Num_Resolved_Atoms>  (409) 
nan

>  <Num_Not_Resolved_Atoms>  (409) 
nan

$$$$
CHEMBL2425635
     RDKit          3D

  0  0  0  0  0  0  0  0  0  0999 V3000
M  V30 BEGIN CTAB
M  V30 COUNTS 67 70 0 0 0
M  V30 BEGIN ATOM
M  V30 1 C 4.072273 -1.761401 2.585520 0
M  V30 2 C 2.710436 -1.332791 2.147953 0
M  V30 3 C 1.765231 -1.486266 3.325108 0
M  V30 4 O 2.266461 -2.178922 1.134416 0
M  V30 5 C 2.668316 0.083265 1.628899 0 CFG=1
M  V30 6 C 3.108428 1.081253 2.679872 0
M  V30 7 C 2.867791 2.450635 2.099097 0
M  V30 8 C 3.512620 2.717525 0.806717 0 CFG=2
M  V30 9 N 2.805825 3.787718 0.124061 0
M  V30 10 C 1.426137 3.754681 -0.291826 0
M  V30 11 N 0.781496 4.776326 -0.928473 0
M  V30 12 C -0.503523 4.614402 -1.263822 0
M  V30 13 C -1.227372 3.467736 -1.004444 0
M  V30 14 C -0.541443 2.462931 -0.361961 0
M  V30 15 N -1.248404 1.275518 -0.079752 0
M  V30 16 N -1.283677 0.692889 1.105347 0
M  V30 17 C -2.040256 -0.418198 1.052565 0
M  V30 18 C -2.540235 -0.596972 -0.225135 0
M  V30 19 C -3.352670 -1.510065 -0.908174 0
M  V30 20 O -3.757812 -2.493136 -0.063562 0
M  V30 21 C -4.554022 -3.605813 -0.288352 0
M  V30 22 C -4.052467 -4.606119 -1.257389 0
M  V30 23 C -2.740729 -5.242464 -0.944172 0
M  V30 24 S -2.637778 -6.138946 0.547127 0
M  V30 25 C -2.945875 -5.223552 2.008258 0
M  V30 26 O -3.472721 -7.410475 0.489738 0
M  V30 27 O -1.207149 -6.647616 0.649367 0
M  V30 28 C -3.554915 -1.220496 -2.232634 0
M  V30 29 C -3.035671 -0.143094 -2.901886 0
M  V30 30 C -2.237627 0.746161 -2.214832 0
M  V30 31 C -1.998909 0.511633 -0.889145 0
M  V30 32 N 0.747884 2.629860 -0.027390 0
M  V30 33 C 3.716267 1.571567 -0.113673 0
M  V30 34 C 3.703579 0.215081 0.523354 0
M  V30 35 H 4.665417 -1.002033 3.097203 0
M  V30 36 H 4.650943 -2.248265 1.757503 0
M  V30 37 H 3.924162 -2.591148 3.331735 0
M  V30 38 H 2.301187 -1.069890 4.223790 0
M  V30 39 H 1.479266 -2.544164 3.480500 0
M  V30 40 H 0.836345 -0.902065 3.165446 0
M  V30 41 H 1.357751 -2.515476 1.308748 0
M  V30 42 H 1.690949 0.297731 1.199674 0
M  V30 43 H 2.455744 0.987546 3.567598 0
M  V30 44 H 4.169302 0.966380 2.896521 0
M  V30 45 H 1.770751 2.610822 2.104920 0
M  V30 46 H 3.233590 3.160624 2.900875 0
M  V30 47 H 4.531165 3.134212 1.022922 0
M  V30 48 H 3.265657 4.708039 -0.130242 0
M  V30 49 H -0.922866 5.487210 -1.766336 0
M  V30 50 H -2.250148 3.436851 -1.312974 0
M  V30 51 H -2.254351 -1.105641 1.872356 0
M  V30 52 H -4.824411 -4.029504 0.702185 0
M  V30 53 H -5.540378 -3.198360 -0.681506 0
M  V30 54 H -4.853735 -5.399247 -1.401454 0
M  V30 55 H -3.962006 -4.152849 -2.257267 0
M  V30 56 H -2.557323 -5.985701 -1.775921 0
M  V30 57 H -1.901210 -4.547738 -1.002316 0
M  V30 58 H -2.260542 -5.530498 2.856580 0
M  V30 59 H -2.728937 -4.162191 1.852255 0
M  V30 60 H -3.968054 -5.411130 2.452037 0
M  V30 61 H -4.179086 -1.908379 -2.740322 0
M  V30 62 H -3.269477 -0.033313 -3.931907 0
M  V30 63 H -1.856463 1.574640 -2.790345 0
M  V30 64 H 2.904377 1.584853 -0.871701 0
M  V30 65 H 4.659847 1.649310 -0.695207 0
M  V30 66 H 3.537455 -0.579645 -0.232357 0
M  V30 67 H 4.686352 -0.004054 0.991010 0
M  V30 END ATOM
M  V30 BEGIN BOND
M  V30 1 1 1 2
M  V30 2 1 2 3
M  V30 3 1 2 4
M  V30 4 1 2 5
M  V30 5 1 5 6
M  V30 6 1 6 7
M  V30 7 1 7 8
M  V30 8 1 8 9
M  V30 9 1 9 10
M  V30 10 2 10 11
M  V30 11 1 11 12
M  V30 12 2 12 13
M  V30 13 1 13 14
M  V30 14 1 14 15
M  V30 15 1 15 16
M  V30 16 2 16 17
M  V30 17 1 17 18
M  V30 18 2 18 19
M  V30 19 1 19 20
M  V30 20 1 20 21
M  V30 21 1 21 22
M  V30 22 1 22 23
M  V30 23 1 23 24
M  V30 24 1 24 25
M  V30 25 2 24 26
M  V30 26 2 24 27
M  V30 27 1 19 28
M  V30 28 2 28 29
M  V30 29 1 29 30
M  V30 30 2 30 31
M  V30 31 2 14 32
M  V30 32 1 8 33
M  V30 33 1 33 34
M  V30 34 1 34 5
M  V30 35 1 32 10
M  V30 36 1 31 15
M  V30 37 1 31 18
M  V30 38 1 1 35
M  V30 39 1 1 36
M  V30 40 1 1 37
M  V30 41 1 3 38
M  V30 42 1 3 39
M  V30 43 1 3 40
M  V30 44 1 4 41
M  V30 45 1 5 42 CFG=3
M  V30 46 1 6 43
M  V30 47 1 6 44
M  V30 48 1 7 45
M  V30 49 1 7 46
M  V30 50 1 8 47 CFG=1
M  V30 51 1 9 48
M  V30 52 1 12 49
M  V30 53 1 13 50
M  V30 54 1 17 51
M  V30 55 1 21 52
M  V30 56 1 21 53
M  V30 57 1 22 54
M  V30 58 1 22 55
M  V30 59 1 23 56
M  V30 60 1 23 57
M  V30 61 1 25 58
M  V30 62 1 25 59
M  V30 63 1 25 60
M  V30 64 1 28 61
M  V30 65 1 29 62
M  V30 66 1 30 63
M  V30 67 1 33 64
M  V30 68 1 33 65
M  V30 69 1 34 66
M  V30 70 1 34 67
M  V30 END BOND
M  V30 END CTAB
M  END
>  <Dataset>  (410) 
ChEMBL_Kinases

>  <Ligand_Instance>  (410) 
nan

>  <PDB_ID>  (410) 
nan

>  <Standardized_SMILES>  (410) 
CC(C)(O)[C@H]1CC[C@H](Nc2nccc(-n3ncc4c(OCCCS(C)(=O)=O)cccc43)n2)CC1

>  <Name>  (410) 
nan

>  <Pocket>  (410) 
nan

>  <ATP_Site>  (410) 
nan

>  <Peripheral>  (410) 
nan

>  <Num_H_Atoms_ProtBoundConf>  (410) 
nan

>  <Num_Resolved_Atoms>  (410) 
nan

>  <Num_Not_Resolved_Atoms>  (410) 
nan

$$$$
CHEMBL3691913
     RDKit          3D

  0  0  0  0  0  0  0  0  0  0999 V3000
M  V30 BEGIN CTAB
M  V30 COUNTS 82 86 0 0 0
M  V30 BEGIN ATOM
M  V30 1 C 1.602436 -3.804870 1.388952 0
M  V30 2 C 2.588826 -3.263933 0.385271 0 CFG=1
M  V30 3 C 1.925515 -2.540948 -0.772597 0
M  V30 4 C 2.996223 -2.401421 -1.806524 0 CFG=1
M  V30 5 C 2.595704 -2.197836 -3.182673 0
M  V30 6 C 2.778248 -3.150265 -4.203224 0
M  V30 7 C 2.406288 -2.916243 -5.506691 0
M  V30 8 N 1.839267 -1.759053 -5.903195 0
M  V30 9 C 1.647268 -0.810978 -4.933653 0
M  V30 10 C 2.016905 -1.024513 -3.601925 0
M  V30 11 N 1.683364 0.089019 -2.818362 0
M  V30 12 C 2.050265 1.358055 -2.305792 0
M  V30 13 O 3.176268 1.795919 -2.634098 0
M  V30 14 C 1.100869 2.049926 -1.446674 0
M  V30 15 C 1.522859 3.276953 -0.976543 0
M  V30 16 C 0.643287 3.961583 -0.157299 0
M  V30 17 C -0.590741 3.446847 0.172169 0
M  V30 18 F -1.539221 4.006880 0.957024 0
M  V30 19 C -0.983712 2.222448 -0.312353 0
M  V30 20 C -2.201237 1.443058 -0.146801 0
M  V30 21 C -3.206879 1.663304 -1.061323 0
M  V30 22 F -3.094217 2.571288 -2.082110 0
M  V30 23 C -4.407805 0.973982 -1.006437 0
M  V30 24 C -4.642972 0.016546 -0.006888 0
M  V30 25 C -5.986269 -0.685750 -0.039955 0
M  V30 26 F -6.405192 -0.631304 -1.401871 0
M  V30 27 C -7.002792 0.073049 0.724828 0
M  V30 28 C -7.578252 -0.574665 1.940626 0
M  V30 29 O -7.650683 -1.963206 1.796554 0
M  V30 30 C -6.290772 -2.375113 1.754830 0
M  V30 31 C -5.827920 -2.102053 0.372947 0
M  V30 32 C -3.641013 -0.206290 0.907901 0
M  V30 33 C -2.467019 0.499435 0.816855 0
M  V30 34 F -1.473307 0.279675 1.722361 0
M  V30 35 N -0.091462 1.582577 -1.111908 0
M  V30 36 C 4.135394 -1.562771 -1.323206 0
M  V30 37 C 4.671807 -2.033603 0.012935 0 CFG=1
M  V30 38 N 5.681111 -1.113982 0.495233 0
M  V30 39 C 3.575556 -2.307751 1.003600 0 CFG=1
M  V30 40 O 2.883408 -1.096399 1.203872 0
M  V30 41 C 2.887305 -0.735562 2.547071 0
M  V30 42 C 2.146604 0.567538 2.758378 0
M  V30 43 S 2.195540 0.961608 4.490674 0
M  V30 44 C 1.370359 2.459046 4.891389 0
M  V30 45 O 3.644315 1.113767 4.906296 0
M  V30 46 O 1.578757 -0.164918 5.237074 0
M  V30 47 H 1.030360 -3.033281 1.900274 0
M  V30 48 H 2.196550 -4.408995 2.107805 0
M  V30 49 H 0.973694 -4.543269 0.841858 0
M  V30 50 H 3.182609 -4.127724 -0.002022 0
M  V30 51 H 1.588534 -1.562473 -0.358570 0
M  V30 52 H 1.082810 -3.180908 -1.109219 0
M  V30 53 H 3.463650 -3.462592 -1.822275 0
M  V30 54 H 3.233955 -4.113152 -3.943975 0
M  V30 55 H 2.574668 -3.687702 -6.237571 0
M  V30 56 H 1.186151 0.087782 -5.345285 0
M  V30 57 H 0.722122 -0.265988 -2.517913 0
M  V30 58 H 2.488471 3.668333 -1.241862 0
M  V30 59 H 0.878812 4.917854 0.257083 0
M  V30 60 H -5.190628 1.158864 -1.734245 0
M  V30 61 H -7.903616 0.245474 0.041702 0
M  V30 62 H -6.622248 1.109262 1.003217 0
M  V30 63 H -7.009465 -0.304806 2.863975 0
M  V30 64 H -8.611568 -0.214356 2.103018 0
M  V30 65 H -6.220507 -3.456536 2.013257 0
M  V30 66 H -5.805824 -1.807718 2.562768 0
M  V30 67 H -6.528495 -2.701282 -0.302174 0
M  V30 68 H -4.780817 -2.480927 0.188564 0
M  V30 69 H -3.810310 -0.931875 1.669032 0
M  V30 70 H 3.771793 -0.536606 -1.141321 0
M  V30 71 H 4.986935 -1.532072 -2.012217 0
M  V30 72 H 5.179096 -2.999655 -0.191260 0
M  V30 73 H 6.161817 -1.485476 1.358713 0
M  V30 74 H 6.448992 -1.101046 -0.224631 0
M  V30 75 H 3.961662 -2.697531 1.966554 0
M  V30 76 H 3.951661 -0.516967 2.815752 0
M  V30 77 H 2.475332 -1.547407 3.173579 0
M  V30 78 H 2.720416 1.366551 2.215929 0
M  V30 79 H 1.134649 0.504321 2.363963 0
M  V30 80 H 0.596892 2.703750 4.140594 0
M  V30 81 H 2.064157 3.324638 4.932168 0
M  V30 82 H 0.859025 2.365278 5.893717 0
M  V30 END ATOM
M  V30 BEGIN BOND
M  V30 1 1 1 2
M  V30 2 1 2 3
M  V30 3 1 3 4
M  V30 4 1 4 5
M  V30 5 2 5 6
M  V30 6 1 6 7
M  V30 7 2 7 8
M  V30 8 1 8 9
M  V30 9 2 9 10
M  V30 10 1 10 11
M  V30 11 1 11 12
M  V30 12 2 12 13
M  V30 13 1 12 14
M  V30 14 2 14 15
M  V30 15 1 15 16
M  V30 16 2 16 17
M  V30 17 1 17 18
M  V30 18 1 17 19
M  V30 19 1 19 20
M  V30 20 2 20 21
M  V30 21 1 21 22
M  V30 22 1 21 23
M  V30 23 2 23 24
M  V30 24 1 24 25
M  V30 25 1 25 26
M  V30 26 1 25 27
M  V30 27 1 27 28
M  V30 28 1 28 29
M  V30 29 1 29 30
M  V30 30 1 30 31
M  V30 31 1 24 32
M  V30 32 2 32 33
M  V30 33 1 33 34
M  V30 34 2 19 35
M  V30 35 1 4 36
M  V30 36 1 36 37
M  V30 37 1 37 38
M  V30 38 1 37 39
M  V30 39 1 39 40
M  V30 40 1 40 41
M  V30 41 1 41 42
M  V30 42 1 42 43
M  V30 43 1 43 44
M  V30 44 2 43 45
M  V30 45 2 43 46
M  V30 46 1 39 2
M  V30 47 1 10 5
M  V30 48 1 35 14
M  V30 49 1 33 20
M  V30 50 1 31 25
M  V30 51 1 1 47
M  V30 52 1 1 48
M  V30 53 1 1 49
M  V30 54 1 2 50 CFG=3
M  V30 55 1 3 51
M  V30 56 1 3 52
M  V30 57 1 4 53 CFG=3
M  V30 58 1 6 54
M  V30 59 1 7 55
M  V30 60 1 9 56
M  V30 61 1 11 57
M  V30 62 1 15 58
M  V30 63 1 16 59
M  V30 64 1 23 60
M  V30 65 1 27 61
M  V30 66 1 27 62
M  V30 67 1 28 63
M  V30 68 1 28 64
M  V30 69 1 30 65
M  V30 70 1 30 66
M  V30 71 1 31 67
M  V30 72 1 31 68
M  V30 73 1 32 69
M  V30 74 1 36 70
M  V30 75 1 36 71
M  V30 76 1 37 72 CFG=3
M  V30 77 1 38 73
M  V30 78 1 38 74
M  V30 79 1 39 75 CFG=1
M  V30 80 1 41 76
M  V30 81 1 41 77
M  V30 82 1 42 78
M  V30 83 1 42 79
M  V30 84 1 44 80
M  V30 85 1 44 81
M  V30 86 1 44 82
M  V30 END BOND
M  V30 END CTAB
M  END
>  <Dataset>  (411) 
ChEMBL_Kinases

>  <Ligand_Instance>  (411) 
nan

>  <PDB_ID>  (411) 
nan

>  <Standardized_SMILES>  (411) 
C[C@H]1C[C@@H](c2ccncc2NC(=O)c2ccc(F)c(-c3c(F)cc(C4(F)CCOCC4)cc3F)n2)C[C@@H](N)[C@H]1OCCS(C)(=O)=O

>  <Name>  (411) 
nan

>  <Pocket>  (411) 
nan

>  <ATP_Site>  (411) 
nan

>  <Peripheral>  (411) 
nan

>  <Num_H_Atoms_ProtBoundConf>  (411) 
nan

>  <Num_Resolved_Atoms>  (411) 
nan

>  <Num_Not_Resolved_Atoms>  (411) 
nan

$$$$
CHEMBL371415
     RDKit          3D

  0  0  0  0  0  0  0  0  0  0999 V3000
M  V30 BEGIN CTAB
M  V30 COUNTS 46 49 0 0 0
M  V30 BEGIN ATOM
M  V30 1 C -0.485715 -4.930035 1.344862 0
M  V30 2 C -0.585598 -4.796116 -0.138803 0
M  V30 3 O -1.818776 -4.274065 -0.455738 0
M  V30 4 C 0.549905 -4.022841 -0.748320 0
M  V30 5 N 0.500155 -2.660430 -0.263922 0
M  V30 6 C 1.533003 -1.815417 -0.758565 0
M  V30 7 N 2.460974 -2.316241 -1.597601 0
M  V30 8 C 3.465300 -1.527077 -2.082395 0
M  V30 9 N 3.619567 -0.209872 -1.776467 0
M  V30 10 C 2.735671 0.380221 -0.941505 0
M  V30 11 N 2.499426 1.601029 -0.379518 0
M  V30 12 C 1.395897 1.519621 0.402594 0
M  V30 13 C 0.973352 2.731909 1.098419 0
M  V30 14 C -0.257385 3.273635 0.791089 0
M  V30 15 C -0.724534 4.417408 1.406981 0
M  V30 16 C 0.099956 4.999309 2.350472 0
M  V30 17 C 1.350715 4.514780 2.714436 0
M  V30 18 C 1.764464 3.353923 2.053591 0
M  V30 19 C 0.845731 0.232821 0.395447 0
M  V30 20 C -0.345258 -0.033492 1.181975 0
M  V30 21 C -0.244008 -0.430855 2.522194 0
M  V30 22 C -1.408197 -0.660874 3.231611 0
M  V30 23 C -2.661688 -0.516641 2.678694 0
M  V30 24 C -2.796516 -0.127674 1.365059 0
M  V30 25 C -1.637177 0.104266 0.648958 0
M  V30 26 C 1.675267 -0.484668 -0.440036 0
M  V30 27 H -1.143133 -5.772836 1.646571 0
M  V30 28 H 0.538161 -5.235922 1.695539 0
M  V30 29 H -0.866393 -4.049409 1.895667 0
M  V30 30 H -0.536817 -5.839049 -0.565686 0
M  V30 31 H -2.353207 -3.975314 0.335445 0
M  V30 32 H 1.529765 -4.459436 -0.406600 0
M  V30 33 H 0.520236 -4.079014 -1.849638 0
M  V30 34 H -0.251136 -2.376263 0.393666 0
M  V30 35 H 2.470622 -3.314058 -1.921655 0
M  V30 36 H 4.204820 -1.966436 -2.763680 0
M  V30 37 H -0.942680 2.849574 0.052590 0
M  V30 38 H -1.689317 4.840141 1.166107 0
M  V30 39 H -0.279738 5.902303 2.832055 0
M  V30 40 H 1.967588 4.989364 3.451124 0
M  V30 41 H 2.748562 2.932321 2.308201 0
M  V30 42 H 0.728642 -0.551570 2.978674 0
M  V30 43 H -1.346292 -0.970638 4.273313 0
M  V30 44 H -3.522863 -0.710525 3.285262 0
M  V30 45 H -3.758174 0.000603 0.882320 0
M  V30 46 H -1.634880 0.417069 -0.404888 0
M  V30 END ATOM
M  V30 BEGIN BOND
M  V30 1 1 1 2
M  V30 2 1 2 3
M  V30 3 1 2 4
M  V30 4 1 4 5
M  V30 5 1 5 6
M  V30 6 1 6 7
M  V30 7 1 7 8
M  V30 8 2 8 9
M  V30 9 1 9 10
M  V30 10 2 10 11
M  V30 11 1 11 12
M  V30 12 1 12 13
M  V30 13 2 13 14
M  V30 14 1 14 15
M  V30 15 2 15 16
M  V30 16 1 16 17
M  V30 17 2 17 18
M  V30 18 2 12 19
M  V30 19 1 19 20
M  V30 20 2 20 21
M  V30 21 1 21 22
M  V30 22 2 22 23
M  V30 23 1 23 24
M  V30 24 2 24 25
M  V30 25 1 19 26
M  V30 26 2 26 6
M  V30 27 1 26 10
M  V30 28 1 18 13
M  V30 29 1 25 20
M  V30 30 1 1 27
M  V30 31 1 1 28
M  V30 32 1 1 29
M  V30 33 1 2 30
M  V30 34 1 3 31
M  V30 35 1 4 32
M  V30 36 1 4 33
M  V30 37 1 5 34
M  V30 38 1 7 35
M  V30 39 1 8 36
M  V30 40 1 14 37
M  V30 41 1 15 38
M  V30 42 1 16 39
M  V30 43 1 17 40
M  V30 44 1 18 41
M  V30 45 1 21 42
M  V30 46 1 22 43
M  V30 47 1 23 44
M  V30 48 1 24 45
M  V30 49 1 25 46
M  V30 END BOND
M  V30 END CTAB
M  END
>  <Dataset>  (412) 
ChEMBL_Kinases

>  <Ligand_Instance>  (412) 
nan

>  <PDB_ID>  (412) 
nan

>  <Standardized_SMILES>  (412) 
CC(O)CNc1[nH]cnc2nc(-c3ccccc3)c(-c3ccccc3)c1-2

>  <Name>  (412) 
nan

>  <Pocket>  (412) 
nan

>  <ATP_Site>  (412) 
nan

>  <Peripheral>  (412) 
nan

>  <Num_H_Atoms_ProtBoundConf>  (412) 
nan

>  <Num_Resolved_Atoms>  (412) 
nan

>  <Num_Not_Resolved_Atoms>  (412) 
nan

$$$$
CHEMBL3714849
     RDKit          3D

  0  0  0  0  0  0  0  0  0  0999 V3000
M  V30 BEGIN CTAB
M  V30 COUNTS 65 68 0 0 0
M  V30 BEGIN ATOM
M  V30 1 C -0.596528 -1.971370 1.608594 0
M  V30 2 C -0.247023 -0.540915 1.806304 0
M  V30 3 C -0.258539 -0.242977 3.295435 0
M  V30 4 C -1.161296 0.436209 1.162856 0
M  V30 5 C -1.280302 0.327404 -0.329243 0
M  V30 6 N -0.007852 0.522534 -0.940926 0
M  V30 7 C 0.351827 1.653327 -1.760934 0
M  V30 8 O -0.579967 2.487215 -1.900882 0
M  V30 9 C 1.684921 1.760621 -2.342830 0
M  V30 10 C 2.728337 0.869439 -2.215649 0
M  V30 11 C 3.941372 1.088690 -2.817319 0
M  V30 12 C 4.109162 2.251477 -3.576677 0
M  V30 13 C 5.410717 2.483037 -4.220404 0
M  V30 14 C 6.169369 1.399661 -4.652180 0
M  V30 15 C 7.403420 1.629542 -5.261839 0
M  V30 16 C 7.879486 2.932709 -5.440539 0
M  V30 17 C 7.089682 3.967974 -4.995323 0
M  V30 18 C 5.865714 3.789449 -4.388336 0
M  V30 19 C 3.103887 3.179794 -3.740828 0
M  V30 20 C 1.890083 2.907113 -3.106975 0
M  V30 21 C -2.037911 -0.842525 -0.783592 0
M  V30 22 O -1.670152 -1.690369 -1.667489 0
M  V30 23 N -3.321185 -1.023225 -0.147841 0
M  V30 24 C -4.115018 -2.168092 -0.560344 0
M  V30 25 C -5.454766 -1.680707 -0.995953 0
M  V30 26 C -6.327445 -1.106155 0.057003 0
M  V30 27 C -5.988662 -1.433684 1.466474 0
M  V30 28 C -5.172375 -2.656168 1.563406 0
M  V30 29 C -5.318946 -3.483226 2.681856 0
M  V30 30 C -4.575013 -4.648956 2.830004 0
M  V30 31 C -3.658486 -5.033663 1.870559 0
M  V30 32 C -3.516647 -4.219514 0.773059 0
M  V30 33 C -4.252874 -3.060372 0.620368 0
M  V30 34 H -0.250565 -2.346035 0.607149 0
M  V30 35 H -0.005898 -2.573207 2.344969 0
M  V30 36 H -1.655841 -2.212449 1.798051 0
M  V30 37 H 0.789762 -0.386651 1.456720 0
M  V30 38 H 0.417716 -0.896928 3.857342 0
M  V30 39 H 0.144775 0.797552 3.386535 0
M  V30 40 H -1.294022 -0.196854 3.701708 0
M  V30 41 H -2.148989 0.440860 1.656355 0
M  V30 42 H -0.739090 1.447850 1.362077 0
M  V30 43 H -1.905557 1.220145 -0.630583 0
M  V30 44 H 0.664211 -0.225389 -0.752019 0
M  V30 45 H 2.516098 -0.002791 -1.612545 0
M  V30 46 H 4.737339 0.389280 -2.708584 0
M  V30 47 H 5.842702 0.376446 -4.535808 0
M  V30 48 H 8.040192 0.807628 -5.620261 0
M  V30 49 H 8.820428 3.182113 -5.901978 0
M  V30 50 H 7.390160 5.017014 -5.097538 0
M  V30 51 H 5.263748 4.640637 -4.046011 0
M  V30 52 H 3.239942 4.079212 -4.330574 0
M  V30 53 H 1.117043 3.654174 -3.253137 0
M  V30 54 H -3.671869 -0.374076 0.570466 0
M  V30 55 H -3.591210 -2.755401 -1.348429 0
M  V30 56 H -5.346571 -0.978479 -1.863151 0
M  V30 57 H -6.001978 -2.559486 -1.444297 0
M  V30 58 H -6.241585 0.019922 -0.034004 0
M  V30 59 H -7.417906 -1.291815 -0.125848 0
M  V30 60 H -5.552726 -0.578884 2.028973 0
M  V30 61 H -6.953165 -1.639958 2.017835 0
M  V30 62 H -6.048294 -3.174068 3.442178 0
M  V30 63 H -4.761486 -5.232484 3.744242 0
M  V30 64 H -3.096227 -5.936086 2.005778 0
M  V30 65 H -2.799798 -4.489206 -0.010993 0
M  V30 END ATOM
M  V30 BEGIN BOND
M  V30 1 1 1 2
M  V30 2 1 2 3
M  V30 3 1 2 4
M  V30 4 1 4 5
M  V30 5 1 5 6
M  V30 6 1 6 7
M  V30 7 2 7 8
M  V30 8 1 7 9
M  V30 9 2 9 10
M  V30 10 1 10 11
M  V30 11 2 11 12
M  V30 12 1 12 13
M  V30 13 2 13 14
M  V30 14 1 14 15
M  V30 15 2 15 16
M  V30 16 1 16 17
M  V30 17 2 17 18
M  V30 18 1 12 19
M  V30 19 2 19 20
M  V30 20 1 5 21
M  V30 21 2 21 22
M  V30 22 1 21 23
M  V30 23 1 23 24
M  V30 24 1 24 25
M  V30 25 1 25 26
M  V30 26 1 26 27
M  V30 27 1 27 28
M  V30 28 2 28 29
M  V30 29 1 29 30
M  V30 30 2 30 31
M  V30 31 1 31 32
M  V30 32 2 32 33
M  V30 33 1 20 9
M  V30 34 1 33 24
M  V30 35 1 18 13
M  V30 36 1 33 28
M  V30 37 1 1 34
M  V30 38 1 1 35
M  V30 39 1 1 36
M  V30 40 1 2 37
M  V30 41 1 3 38
M  V30 42 1 3 39
M  V30 43 1 3 40
M  V30 44 1 4 41
M  V30 45 1 4 42
M  V30 46 1 5 43
M  V30 47 1 6 44
M  V30 48 1 10 45
M  V30 49 1 11 46
M  V30 50 1 14 47
M  V30 51 1 15 48
M  V30 52 1 16 49
M  V30 53 1 17 50
M  V30 54 1 18 51
M  V30 55 1 19 52
M  V30 56 1 20 53
M  V30 57 1 23 54
M  V30 58 1 24 55
M  V30 59 1 25 56
M  V30 60 1 25 57
M  V30 61 1 26 58
M  V30 62 1 26 59
M  V30 63 1 27 60
M  V30 64 1 27 61
M  V30 65 1 29 62
M  V30 66 1 30 63
M  V30 67 1 31 64
M  V30 68 1 32 65
M  V30 END BOND
M  V30 END CTAB
M  END
>  <Dataset>  (413) 
ChEMBL_Kinases

>  <Ligand_Instance>  (413) 
nan

>  <PDB_ID>  (413) 
nan

>  <Standardized_SMILES>  (413) 
CC(C)CC(NC(=O)c1ccc(-c2ccccc2)cc1)C(=O)NC1CCCc2ccccc21

>  <Name>  (413) 
nan

>  <Pocket>  (413) 
nan

>  <ATP_Site>  (413) 
nan

>  <Peripheral>  (413) 
nan

>  <Num_H_Atoms_ProtBoundConf>  (413) 
nan

>  <Num_Resolved_Atoms>  (413) 
nan

>  <Num_Not_Resolved_Atoms>  (413) 
nan

$$$$
CHEMBL2425629
     RDKit          3D

  0  0  0  0  0  0  0  0  0  0999 V3000
M  V30 BEGIN CTAB
M  V30 COUNTS 73 77 0 0 0
M  V30 BEGIN ATOM
M  V30 1 C 7.005754 0.226482 8.892690 0
M  V30 2 S 6.478000 -0.779718 7.515290 0
M  V30 3 O 5.747647 -1.971076 8.019843 0
M  V30 4 O 7.634160 -1.160571 6.657238 0
M  V30 5 C 5.379663 0.271394 6.541015 0
M  V30 6 C 4.263987 0.649572 7.431532 0
M  V30 7 C 3.198166 1.536487 6.907708 0
M  V30 8 O 2.451922 1.178597 5.846743 0
M  V30 9 C 2.547368 0.904431 4.544635 0
M  V30 10 C 3.558744 0.879465 3.613525 0
M  V30 11 C 3.466734 0.565884 2.277962 0
M  V30 12 C 2.197299 0.243295 1.851706 0
M  V30 13 C 1.112394 0.235104 2.690216 0
M  V30 14 C 1.276556 0.565168 4.043138 0
M  V30 15 C -0.018776 0.434916 4.501737 0
M  V30 16 C -0.890173 0.061635 3.524781 0
M  V30 17 N -0.165158 -0.058748 2.398143 0
M  V30 18 C -0.690444 -0.434967 1.128555 0
M  V30 19 C -1.057051 0.560380 0.246607 0
M  V30 20 C -1.554550 0.094201 -0.953563 0
M  V30 21 N -1.699577 -1.195575 -1.305639 0
M  V30 22 C -1.323993 -2.117488 -0.401903 0
M  V30 23 N -1.451652 -3.518224 -0.707275 0
M  V30 24 C -2.001383 -3.892696 -2.005096 0 CFG=1
M  V30 25 C -3.381754 -3.388913 -2.134789 0
M  V30 26 C -3.784441 -2.696067 -3.376312 0
M  V30 27 C -2.734763 -2.400523 -4.382581 0 CFG=2
M  V30 28 C -3.316079 -2.173218 -5.740134 0
M  V30 29 O -2.995097 -2.966973 -6.687767 0
M  V30 30 N -4.224922 -1.071489 -5.967602 0
M  V30 31 C -4.917601 0.081826 -5.377379 0
M  V30 32 C -4.557565 1.257049 -6.268351 0
M  V30 33 C -4.423014 0.594357 -7.622741 0 CFG=1
M  V30 34 O -3.084956 0.537620 -7.999296 0
M  V30 35 C -4.828758 -0.832704 -7.278548 0
M  V30 36 C -1.731739 -3.502017 -4.462449 0
M  V30 37 C -1.052287 -3.578295 -3.119923 0
M  V30 38 N -0.824462 -1.734146 0.802960 0
M  V30 39 H 6.200019 0.196583 9.643381 0
M  V30 40 H 7.129919 1.278854 8.576739 0
M  V30 41 H 7.956825 -0.148574 9.327453 0
M  V30 42 H 5.987889 1.111884 6.201909 0
M  V30 43 H 5.010816 -0.401270 5.733850 0
M  V30 44 H 3.801594 -0.318830 7.806551 0
M  V30 45 H 4.731161 1.059396 8.378367 0
M  V30 46 H 2.559961 1.816689 7.819739 0
M  V30 47 H 3.717940 2.543458 6.719146 0
M  V30 48 H 4.509061 1.153972 4.010887 0
M  V30 49 H 4.370427 0.596314 1.685892 0
M  V30 50 H 2.090157 -0.008606 0.804525 0
M  V30 51 H -0.288725 0.619064 5.548118 0
M  V30 52 H -1.934378 -0.096912 3.653188 0
M  V30 53 H -0.973667 1.615354 0.449400 0
M  V30 54 H -1.865469 0.813507 -1.701852 0
M  V30 55 H -1.137568 -4.212270 0.031265 0
M  V30 56 H -2.039670 -5.025880 -1.964144 0
M  V30 57 H -4.093744 -4.220583 -1.882184 0
M  V30 58 H -3.563261 -2.646642 -1.290437 0
M  V30 59 H -4.369462 -1.756476 -3.193881 0
M  V30 60 H -4.544967 -3.355233 -3.897567 0
M  V30 61 H -2.267447 -1.418340 -4.109565 0
M  V30 62 H -4.413164 0.288027 -4.408648 0
M  V30 63 H -5.993943 -0.075923 -5.307170 0
M  V30 64 H -3.620560 1.757816 -5.941846 0
M  V30 65 H -5.424181 1.959456 -6.300985 0
M  V30 66 H -5.069758 1.031631 -8.390885 0
M  V30 67 H -2.492095 1.039488 -7.389653 0
M  V30 68 H -5.933088 -0.858147 -7.238488 0
M  V30 69 H -4.453032 -1.508130 -8.046739 0
M  V30 70 H -0.955157 -3.256868 -5.213307 0
M  V30 71 H -2.256097 -4.438835 -4.659496 0
M  V30 72 H -0.270901 -4.385477 -3.235601 0
M  V30 73 H -0.472899 -2.658581 -2.899512 0
M  V30 END ATOM
M  V30 BEGIN BOND
M  V30 1 1 1 2
M  V30 2 2 2 3
M  V30 3 2 2 4
M  V30 4 1 2 5
M  V30 5 1 5 6
M  V30 6 1 6 7
M  V30 7 1 7 8
M  V30 8 1 8 9
M  V30 9 2 9 10
M  V30 10 1 10 11
M  V30 11 2 11 12
M  V30 12 1 12 13
M  V30 13 2 13 14
M  V30 14 1 14 15
M  V30 15 2 15 16
M  V30 16 1 16 17
M  V30 17 1 17 18
M  V30 18 2 18 19
M  V30 19 1 19 20
M  V30 20 2 20 21
M  V30 21 1 21 22
M  V30 22 1 22 23
M  V30 23 1 23 24
M  V30 24 1 24 25
M  V30 25 1 25 26
M  V30 26 1 26 27
M  V30 27 1 27 28
M  V30 28 2 28 29
M  V30 29 1 28 30
M  V30 30 1 30 31
M  V30 31 1 31 32
M  V30 32 1 32 33
M  V30 33 1 33 34
M  V30 34 1 33 35
M  V30 35 1 27 36
M  V30 36 1 36 37
M  V30 37 2 22 38
M  V30 38 1 14 9
M  V30 39 1 38 18
M  V30 40 1 17 13
M  V30 41 1 37 24
M  V30 42 1 35 30
M  V30 43 1 1 39
M  V30 44 1 1 40
M  V30 45 1 1 41
M  V30 46 1 5 42
M  V30 47 1 5 43
M  V30 48 1 6 44
M  V30 49 1 6 45
M  V30 50 1 7 46
M  V30 51 1 7 47
M  V30 52 1 10 48
M  V30 53 1 11 49
M  V30 54 1 12 50
M  V30 55 1 15 51
M  V30 56 1 16 52
M  V30 57 1 19 53
M  V30 58 1 20 54
M  V30 59 1 23 55
M  V30 60 1 24 56 CFG=1
M  V30 61 1 25 57
M  V30 62 1 25 58
M  V30 63 1 26 59
M  V30 64 1 26 60
M  V30 65 1 27 61 CFG=1
M  V30 66 1 31 62
M  V30 67 1 31 63
M  V30 68 1 32 64
M  V30 69 1 32 65
M  V30 70 1 33 66 CFG=3
M  V30 71 1 34 67
M  V30 72 1 35 68
M  V30 73 1 35 69
M  V30 74 1 36 70
M  V30 75 1 36 71
M  V30 76 1 37 72
M  V30 77 1 37 73
M  V30 END BOND
M  V30 END CTAB
M  END
>  <Dataset>  (414) 
ChEMBL_Kinases

>  <Ligand_Instance>  (414) 
nan

>  <PDB_ID>  (414) 
nan

>  <Standardized_SMILES>  (414) 
CS(=O)(=O)CCCOc1cccc2c1ccn2-c1ccnc(N[C@H]2CC[C@H](C(=O)N3CC[C@@H](O)C3)CC2)n1

>  <Name>  (414) 
nan

>  <Pocket>  (414) 
nan

>  <ATP_Site>  (414) 
nan

>  <Peripheral>  (414) 
nan

>  <Num_H_Atoms_ProtBoundConf>  (414) 
nan

>  <Num_Resolved_Atoms>  (414) 
nan

>  <Num_Not_Resolved_Atoms>  (414) 
nan

$$$$
CHEMBL2425630
     RDKit          3D

  0  0  0  0  0  0  0  0  0  0999 V3000
M  V30 BEGIN CTAB
M  V30 COUNTS 79 83 0 0 0
M  V30 BEGIN ATOM
M  V30 1 C 1.023961 -3.875935 5.203429 0
M  V30 2 O 1.987129 -3.088562 4.578249 0
M  V30 3 C 1.442670 -2.106557 3.785859 0
M  V30 4 C 1.806571 -0.709166 4.150162 0
M  V30 5 C 3.137706 -0.238704 3.627230 0
M  V30 6 N 3.540217 -0.815704 2.387726 0
M  V30 7 C 4.138621 0.025637 1.418796 0
M  V30 8 O 4.163353 1.168658 1.950543 0
M  V30 9 C 4.656407 -0.263466 0.057020 0 CFG=1
M  V30 10 C 3.605371 -0.781543 -0.841319 0
M  V30 11 C 3.024958 0.139324 -1.845513 0
M  V30 12 C 3.568962 1.544776 -1.777950 0 CFG=2
M  V30 13 N 3.191890 2.270869 -2.969776 0
M  V30 14 C 1.853817 2.536067 -3.382171 0
M  V30 15 N 1.498334 3.205836 -4.491485 0
M  V30 16 C 0.216239 3.427341 -4.827708 0
M  V30 17 C -0.811889 2.971586 -4.039433 0
M  V30 18 C -0.433265 2.288957 -2.909202 0
M  V30 19 N -1.453222 1.792918 -2.051209 0
M  V30 20 C -1.429242 2.068771 -0.736681 0
M  V30 21 C -2.519365 1.466201 -0.191830 0
M  V30 22 C -3.258926 0.795772 -1.144482 0
M  V30 23 C -4.429595 0.022636 -1.198405 0
M  V30 24 O -4.986068 -0.096834 0.026390 0
M  V30 25 C -6.117718 -0.752412 0.468710 0
M  V30 26 C -6.138049 -2.228969 0.271182 0
M  V30 27 C -4.976120 -2.870223 1.004085 0
M  V30 28 S -4.935637 -4.625615 0.816061 0
M  V30 29 C -3.557971 -5.316872 1.692449 0
M  V30 30 O -6.189349 -5.256306 1.347883 0
M  V30 31 O -4.833808 -4.959892 -0.627429 0
M  V30 32 C -4.766899 -0.443816 -2.447035 0
M  V30 33 C -4.059009 -0.209575 -3.592889 0
M  V30 34 C -2.920515 0.546761 -3.517282 0
M  V30 35 C -2.520765 1.046287 -2.308925 0
M  V30 36 N 0.845159 2.088544 -2.608233 0
M  V30 37 C 5.072138 1.404734 -1.780236 0
M  V30 38 C 5.468795 0.873936 -0.432871 0
M  V30 39 C 3.294288 -2.238767 2.238883 0
M  V30 40 C 1.795704 -2.433531 2.335303 0
M  V30 41 H 1.582498 -4.628870 5.813020 0
M  V30 42 H 0.409855 -4.465678 4.492161 0
M  V30 43 H 0.430560 -3.245411 5.891985 0
M  V30 44 H 0.317156 -2.183378 3.838496 0
M  V30 45 H 0.997522 -0.035274 3.765674 0
M  V30 46 H 1.799212 -0.598334 5.243666 0
M  V30 47 H 3.050972 0.861321 3.524130 0
M  V30 48 H 3.951885 -0.373743 4.398300 0
M  V30 49 H 5.382823 -1.116087 0.223193 0
M  V30 50 H 3.904433 -1.744087 -1.353167 0
M  V30 51 H 2.752240 -1.120191 -0.180376 0
M  V30 52 H 3.295584 -0.216514 -2.883942 0
M  V30 53 H 1.901518 0.103095 -1.863278 0
M  V30 54 H 3.205161 2.091968 -0.885315 0
M  V30 55 H 3.913638 2.664308 -3.632929 0
M  V30 56 H -0.011667 3.972557 -5.732714 0
M  V30 57 H -1.861895 3.114007 -4.249819 0
M  V30 58 H -0.694180 2.659933 -0.169020 0
M  V30 59 H -2.800468 1.490402 0.857639 0
M  V30 60 H -7.038448 -0.267043 0.032081 0
M  V30 61 H -6.220331 -0.555127 1.579181 0
M  V30 62 H -6.229100 -2.547063 -0.767408 0
M  V30 63 H -7.055275 -2.609524 0.803503 0
M  V30 64 H -4.009204 -2.451434 0.675599 0
M  V30 65 H -5.079425 -2.657865 2.086956 0
M  V30 66 H -3.865743 -5.713770 2.662811 0
M  V30 67 H -2.798203 -4.527942 1.871405 0
M  V30 68 H -3.055164 -6.136661 1.108359 0
M  V30 69 H -5.656462 -1.018785 -2.458643 0
M  V30 70 H -4.455249 -0.648046 -4.504765 0
M  V30 71 H -2.392653 0.705427 -4.453331 0
M  V30 72 H 5.490220 2.405489 -1.952293 0
M  V30 73 H 5.375591 0.714588 -2.570174 0
M  V30 74 H 5.363884 1.747227 0.266788 0
M  V30 75 H 6.559850 0.673679 -0.470977 0
M  V30 76 H 3.746491 -2.683285 1.341124 0
M  V30 77 H 3.706701 -2.785805 3.137380 0
M  V30 78 H 1.322673 -1.744170 1.634609 0
M  V30 79 H 1.488576 -3.479356 2.145997 0
M  V30 END ATOM
M  V30 BEGIN BOND
M  V30 1 1 1 2
M  V30 2 1 2 3
M  V30 3 1 3 4
M  V30 4 1 4 5
M  V30 5 1 5 6
M  V30 6 1 6 7
M  V30 7 2 7 8
M  V30 8 1 7 9
M  V30 9 1 9 10
M  V30 10 1 10 11
M  V30 11 1 11 12
M  V30 12 1 12 13
M  V30 13 1 13 14
M  V30 14 2 14 15
M  V30 15 1 15 16
M  V30 16 2 16 17
M  V30 17 1 17 18
M  V30 18 1 18 19
M  V30 19 1 19 20
M  V30 20 2 20 21
M  V30 21 1 21 22
M  V30 22 2 22 23
M  V30 23 1 23 24
M  V30 24 1 24 25
M  V30 25 1 25 26
M  V30 26 1 26 27
M  V30 27 1 27 28
M  V30 28 1 28 29
M  V30 29 2 28 30
M  V30 30 2 28 31
M  V30 31 1 23 32
M  V30 32 2 32 33
M  V30 33 1 33 34
M  V30 34 2 34 35
M  V30 35 2 18 36
M  V30 36 1 12 37
M  V30 37 1 37 38
M  V30 38 1 6 39
M  V30 39 1 39 40
M  V30 40 1 40 3
M  V30 41 1 38 9
M  V30 42 1 36 14
M  V30 43 1 35 19
M  V30 44 1 35 22
M  V30 45 1 1 41
M  V30 46 1 1 42
M  V30 47 1 1 43
M  V30 48 1 3 44
M  V30 49 1 4 45
M  V30 50 1 4 46
M  V30 51 1 5 47
M  V30 52 1 5 48
M  V30 53 1 9 49 CFG=1
M  V30 54 1 10 50
M  V30 55 1 10 51
M  V30 56 1 11 52
M  V30 57 1 11 53
M  V30 58 1 12 54 CFG=1
M  V30 59 1 13 55
M  V30 60 1 16 56
M  V30 61 1 17 57
M  V30 62 1 20 58
M  V30 63 1 21 59
M  V30 64 1 25 60
M  V30 65 1 25 61
M  V30 66 1 26 62
M  V30 67 1 26 63
M  V30 68 1 27 64
M  V30 69 1 27 65
M  V30 70 1 29 66
M  V30 71 1 29 67
M  V30 72 1 29 68
M  V30 73 1 32 69
M  V30 74 1 33 70
M  V30 75 1 34 71
M  V30 76 1 37 72
M  V30 77 1 37 73
M  V30 78 1 38 74
M  V30 79 1 38 75
M  V30 80 1 39 76
M  V30 81 1 39 77
M  V30 82 1 40 78
M  V30 83 1 40 79
M  V30 END BOND
M  V30 END CTAB
M  END
>  <Dataset>  (415) 
ChEMBL_Kinases

>  <Ligand_Instance>  (415) 
nan

>  <PDB_ID>  (415) 
nan

>  <Standardized_SMILES>  (415) 
COC1CCN(C(=O)[C@H]2CC[C@H](Nc3nccc(-n4ccc5c(OCCCS(C)(=O)=O)cccc54)n3)CC2)CC1

>  <Name>  (415) 
nan

>  <Pocket>  (415) 
nan

>  <ATP_Site>  (415) 
nan

>  <Peripheral>  (415) 
nan

>  <Num_H_Atoms_ProtBoundConf>  (415) 
nan

>  <Num_Resolved_Atoms>  (415) 
nan

>  <Num_Not_Resolved_Atoms>  (415) 
nan

$$$$
CHEMBL2425631
     RDKit          3D

  0  0  0  0  0  0  0  0  0  0999 V3000
M  V30 BEGIN CTAB
M  V30 COUNTS 75 79 0 0 0
M  V30 BEGIN ATOM
M  V30 1 C -8.534015 -0.687548 8.851580 0
M  V30 2 S -8.150761 1.025304 8.503362 0
M  V30 3 O -7.244453 1.593215 9.538051 0
M  V30 4 O -9.429513 1.816302 8.564717 0
M  V30 5 C -7.468930 1.086640 6.870170 0
M  V30 6 C -7.093126 2.493837 6.455275 0
M  V30 7 C -6.527904 2.434729 5.048248 0
M  V30 8 O -5.390266 1.617144 4.936308 0
M  V30 9 C -4.795160 1.496970 3.671559 0
M  V30 10 C -5.316247 2.173042 2.562590 0
M  V30 11 C -4.734230 2.057652 1.317795 0
M  V30 12 C -3.625401 1.254310 1.213530 0
M  V30 13 C -3.110782 0.586048 2.316731 0
M  V30 14 C -3.679071 0.684443 3.583657 0
M  V30 15 C -2.918753 -0.096722 4.403206 0
M  V30 16 C -1.910210 -0.661900 3.666221 0
M  V30 17 N -2.036083 -0.235752 2.381722 0
M  V30 18 C -1.214415 -0.574469 1.276614 0
M  V30 19 C -1.970793 -1.080558 0.222798 0
M  V30 20 C -1.332625 -1.465758 -0.947243 0
M  V30 21 N -0.012971 -1.313421 -0.961609 0
M  V30 22 C 0.756448 -0.837689 0.013285 0
M  V30 23 N 2.167928 -0.711099 -0.073601 0
M  V30 24 C 2.836594 -1.145194 -1.287131 0 CFG=1
M  V30 25 C 4.297130 -0.876334 -1.273716 0
M  V30 26 C 5.094692 -1.887019 -2.006862 0
M  V30 27 C 4.465688 -2.497829 -3.213099 0 CFG=2
M  V30 28 C 4.775788 -1.823738 -4.492469 0
M  V30 29 O 3.835431 -1.256093 -5.091593 0
M  V30 30 N 5.997459 -1.722071 -5.161924 0
M  V30 31 C 5.940452 -0.965199 -6.425497 0
M  V30 32 C 6.763631 -1.750795 -7.439966 0
M  V30 33 C 6.681258 -3.211975 -7.088459 0
M  V30 34 F 5.364565 -3.524299 -6.846628 0
M  V30 35 F 7.129189 -3.977150 -8.144529 0
M  V30 36 C 7.500156 -3.424149 -5.828831 0
M  V30 37 C 7.354494 -2.211108 -4.901981 0
M  V30 38 C 2.996901 -2.783631 -3.036215 0
M  V30 39 C 2.610184 -2.605976 -1.558620 0
M  V30 40 N 0.121823 -0.468205 1.141855 0
M  V30 41 H -8.881975 -0.798284 9.909185 0
M  V30 42 H -9.296352 -1.051028 8.131549 0
M  V30 43 H -7.630912 -1.304424 8.706756 0
M  V30 44 H -8.238665 0.701367 6.177905 0
M  V30 45 H -6.567423 0.438777 6.835219 0
M  V30 46 H -7.983517 3.136118 6.420172 0
M  V30 47 H -6.318922 2.920431 7.116125 0
M  V30 48 H -6.301956 3.481135 4.737483 0
M  V30 49 H -7.337302 2.043912 4.361813 0
M  V30 50 H -6.189452 2.782063 2.732721 0
M  V30 51 H -5.198041 2.608407 0.530693 0
M  V30 52 H -3.187367 1.180976 0.221594 0
M  V30 53 H -3.137453 -0.211186 5.460328 0
M  V30 54 H -1.139688 -1.332876 4.023953 0
M  V30 55 H -3.063970 -1.211922 0.220834 0
M  V30 56 H -1.834258 -1.869303 -1.819100 0
M  V30 57 H 2.699710 -0.310976 0.729770 0
M  V30 58 H 2.397301 -0.572034 -2.126651 0
M  V30 59 H 4.652249 -0.812353 -0.212289 0
M  V30 60 H 4.550824 0.143903 -1.687835 0
M  V30 61 H 6.064902 -1.437501 -2.360113 0
M  V30 62 H 5.408697 -2.700706 -1.314574 0
M  V30 63 H 4.932314 -3.527255 -3.329505 0
M  V30 64 H 6.378109 0.035484 -6.332272 0
M  V30 65 H 4.913386 -0.946765 -6.836005 0
M  V30 66 H 7.789319 -1.355730 -7.403484 0
M  V30 67 H 6.343138 -1.569720 -8.464281 0
M  V30 68 H 8.547066 -3.667154 -6.036062 0
M  V30 69 H 7.051396 -4.295798 -5.292971 0
M  V30 70 H 7.496064 -2.589030 -3.883377 0
M  V30 71 H 8.083363 -1.453594 -5.185534 0
M  V30 72 H 2.688748 -3.791828 -3.362499 0
M  V30 73 H 2.384666 -2.051800 -3.599380 0
M  V30 74 H 3.286147 -3.268191 -0.951661 0
M  V30 75 H 1.601867 -2.948185 -1.376959 0
M  V30 END ATOM
M  V30 BEGIN BOND
M  V30 1 1 1 2
M  V30 2 2 2 3
M  V30 3 2 2 4
M  V30 4 1 2 5
M  V30 5 1 5 6
M  V30 6 1 6 7
M  V30 7 1 7 8
M  V30 8 1 8 9
M  V30 9 2 9 10
M  V30 10 1 10 11
M  V30 11 2 11 12
M  V30 12 1 12 13
M  V30 13 2 13 14
M  V30 14 1 14 15
M  V30 15 2 15 16
M  V30 16 1 16 17
M  V30 17 1 17 18
M  V30 18 2 18 19
M  V30 19 1 19 20
M  V30 20 2 20 21
M  V30 21 1 21 22
M  V30 22 1 22 23
M  V30 23 1 23 24
M  V30 24 1 24 25
M  V30 25 1 25 26
M  V30 26 1 26 27
M  V30 27 1 27 28
M  V30 28 2 28 29
M  V30 29 1 28 30
M  V30 30 1 30 31
M  V30 31 1 31 32
M  V30 32 1 32 33
M  V30 33 1 33 34
M  V30 34 1 33 35
M  V30 35 1 33 36
M  V30 36 1 36 37
M  V30 37 1 27 38
M  V30 38 1 38 39
M  V30 39 2 22 40
M  V30 40 1 14 9
M  V30 41 1 40 18
M  V30 42 1 17 13
M  V30 43 1 39 24
M  V30 44 1 37 30
M  V30 45 1 1 41
M  V30 46 1 1 42
M  V30 47 1 1 43
M  V30 48 1 5 44
M  V30 49 1 5 45
M  V30 50 1 6 46
M  V30 51 1 6 47
M  V30 52 1 7 48
M  V30 53 1 7 49
M  V30 54 1 10 50
M  V30 55 1 11 51
M  V30 56 1 12 52
M  V30 57 1 15 53
M  V30 58 1 16 54
M  V30 59 1 19 55
M  V30 60 1 20 56
M  V30 61 1 23 57
M  V30 62 1 24 58 CFG=3
M  V30 63 1 25 59
M  V30 64 1 25 60
M  V30 65 1 26 61
M  V30 66 1 26 62
M  V30 67 1 27 63 CFG=3
M  V30 68 1 31 64
M  V30 69 1 31 65
M  V30 70 1 32 66
M  V30 71 1 32 67
M  V30 72 1 36 68
M  V30 73 1 36 69
M  V30 74 1 37 70
M  V30 75 1 37 71
M  V30 76 1 38 72
M  V30 77 1 38 73
M  V30 78 1 39 74
M  V30 79 1 39 75
M  V30 END BOND
M  V30 END CTAB
M  END
>  <Dataset>  (416) 
ChEMBL_Kinases

>  <Ligand_Instance>  (416) 
nan

>  <PDB_ID>  (416) 
nan

>  <Standardized_SMILES>  (416) 
CS(=O)(=O)CCCOc1cccc2c1ccn2-c1ccnc(N[C@H]2CC[C@H](C(=O)N3CCC(F)(F)CC3)CC2)n1

>  <Name>  (416) 
nan

>  <Pocket>  (416) 
nan

>  <ATP_Site>  (416) 
nan

>  <Peripheral>  (416) 
nan

>  <Num_H_Atoms_ProtBoundConf>  (416) 
nan

>  <Num_Resolved_Atoms>  (416) 
nan

>  <Num_Not_Resolved_Atoms>  (416) 
nan

$$$$
CHEMBL2425632
     RDKit          3D

  0  0  0  0  0  0  0  0  0  0999 V3000
M  V30 BEGIN CTAB
M  V30 COUNTS 72 76 0 0 0
M  V30 BEGIN ATOM
M  V30 1 C 5.785248 -1.745867 6.553492 0
M  V30 2 S 4.460796 -2.320064 5.549410 0
M  V30 3 O 3.588118 -3.235338 6.334819 0
M  V30 4 O 5.035692 -3.063139 4.377344 0
M  V30 5 C 3.516698 -0.959932 4.863401 0
M  V30 6 C 2.926129 -0.112137 5.936875 0
M  V30 7 C 2.146368 1.081499 5.496393 0
M  V30 8 O 1.061662 0.946111 4.706232 0
M  V30 9 C 0.682453 0.556221 3.491004 0
M  V30 10 C 1.291087 0.082247 2.365295 0
M  V30 11 C 0.714943 -0.274333 1.169843 0
M  V30 12 C -0.653316 -0.123230 1.130303 0
M  V30 13 C -1.384289 0.343478 2.192067 0
M  V30 14 C -0.714655 0.682080 3.369836 0
M  V30 15 C -1.785645 1.094917 4.166941 0
M  V30 16 C -2.967462 0.994339 3.484437 0
M  V30 17 N -2.700996 0.524041 2.253596 0
M  V30 18 C -3.688539 0.293871 1.275316 0
M  V30 19 C -4.995132 0.702635 1.483072 0
M  V30 20 C -6.047364 0.536151 0.611931 0
M  V30 21 N -5.725259 -0.081699 -0.522677 0
M  V30 22 C -4.465115 -0.519239 -0.813904 0
M  V30 23 N -4.243024 -1.168067 -2.055461 0
M  V30 24 C -2.971979 -1.677298 -2.507682 0 CFG=1
M  V30 25 C -2.425390 -2.709064 -1.544806 0
M  V30 26 C -1.150967 -3.292000 -2.055251 0
M  V30 27 C -0.664909 -2.737312 -3.359071 0 CFG=2
M  V30 28 C 0.148672 -1.515086 -3.191885 0
M  V30 29 O 0.503898 -0.819052 -2.207632 0
M  V30 30 N 0.789143 -0.753886 -4.181400 0
M  V30 31 C 1.553898 0.438867 -3.830322 0
M  V30 32 C 0.900229 1.472005 -4.736629 0
M  V30 33 C 0.437268 0.668573 -5.958435 0 CFG=1
M  V30 34 F 1.014732 1.212288 -7.072504 0
M  V30 35 C 1.004293 -0.709586 -5.626984 0
M  V30 36 C -1.729245 -2.578860 -4.407125 0
M  V30 37 C -3.120081 -2.407699 -3.841009 0
M  V30 38 N -3.497086 -0.314659 0.095186 0
M  V30 39 H 5.412210 -1.611522 7.580120 0
M  V30 40 H 6.143731 -0.784815 6.093403 0
M  V30 41 H 6.601052 -2.511001 6.514072 0
M  V30 42 H 2.718248 -1.462370 4.261954 0
M  V30 43 H 4.152399 -0.376739 4.196834 0
M  V30 44 H 3.794782 0.249634 6.576387 0
M  V30 45 H 2.290845 -0.737465 6.619173 0
M  V30 46 H 1.818449 1.591044 6.465872 0
M  V30 47 H 2.879505 1.850913 5.041251 0
M  V30 48 H 2.353500 0.007414 2.462682 0
M  V30 49 H 1.363491 -0.633059 0.384830 0
M  V30 50 H -1.125745 -0.400371 0.191946 0
M  V30 51 H -1.651747 1.445454 5.196696 0
M  V30 52 H -3.914374 1.279451 3.965646 0
M  V30 53 H -5.241985 1.212862 2.428722 0
M  V30 54 H -7.041842 0.884128 0.847354 0
M  V30 55 H -5.052658 -1.295154 -2.705512 0
M  V30 56 H -2.231509 -0.869791 -2.675830 0
M  V30 57 H -3.216460 -3.515622 -1.507645 0
M  V30 58 H -2.376984 -2.324705 -0.505603 0
M  V30 59 H -0.359616 -3.019816 -1.296526 0
M  V30 60 H -1.154152 -4.400617 -2.047618 0
M  V30 61 H 0.047847 -3.510840 -3.769619 0
M  V30 62 H 1.508616 0.713866 -2.779608 0
M  V30 63 H 2.574860 0.287540 -4.223598 0
M  V30 64 H 1.617323 2.259170 -5.046022 0
M  V30 65 H 0.066874 1.977012 -4.229783 0
M  V30 66 H -0.656574 0.674290 -5.970041 0
M  V30 67 H 2.110092 -0.638422 -5.770499 0
M  V30 68 H 0.546700 -1.524584 -6.176335 0
M  V30 69 H -1.778596 -3.475331 -5.090614 0
M  V30 70 H -1.556775 -1.669916 -5.055258 0
M  V30 71 H -3.638245 -3.347721 -3.628881 0
M  V30 72 H -3.751864 -1.752826 -4.471336 0
M  V30 END ATOM
M  V30 BEGIN BOND
M  V30 1 1 1 2
M  V30 2 2 2 3
M  V30 3 2 2 4
M  V30 4 1 2 5
M  V30 5 1 5 6
M  V30 6 1 6 7
M  V30 7 1 7 8
M  V30 8 1 8 9
M  V30 9 2 9 10
M  V30 10 1 10 11
M  V30 11 2 11 12
M  V30 12 1 12 13
M  V30 13 2 13 14
M  V30 14 1 14 15
M  V30 15 2 15 16
M  V30 16 1 16 17
M  V30 17 1 17 18
M  V30 18 2 18 19
M  V30 19 1 19 20
M  V30 20 2 20 21
M  V30 21 1 21 22
M  V30 22 1 22 23
M  V30 23 1 23 24
M  V30 24 1 24 25
M  V30 25 1 25 26
M  V30 26 1 26 27
M  V30 27 1 27 28
M  V30 28 2 28 29
M  V30 29 1 28 30
M  V30 30 1 30 31
M  V30 31 1 31 32
M  V30 32 1 32 33
M  V30 33 1 33 34
M  V30 34 1 33 35
M  V30 35 1 27 36
M  V30 36 1 36 37
M  V30 37 2 22 38
M  V30 38 1 14 9
M  V30 39 1 38 18
M  V30 40 1 17 13
M  V30 41 1 37 24
M  V30 42 1 35 30
M  V30 43 1 1 39
M  V30 44 1 1 40
M  V30 45 1 1 41
M  V30 46 1 5 42
M  V30 47 1 5 43
M  V30 48 1 6 44
M  V30 49 1 6 45
M  V30 50 1 7 46
M  V30 51 1 7 47
M  V30 52 1 10 48
M  V30 53 1 11 49
M  V30 54 1 12 50
M  V30 55 1 15 51
M  V30 56 1 16 52
M  V30 57 1 19 53
M  V30 58 1 20 54
M  V30 59 1 23 55
M  V30 60 1 24 56 CFG=3
M  V30 61 1 25 57
M  V30 62 1 25 58
M  V30 63 1 26 59
M  V30 64 1 26 60
M  V30 65 1 27 61 CFG=3
M  V30 66 1 31 62
M  V30 67 1 31 63
M  V30 68 1 32 64
M  V30 69 1 32 65
M  V30 70 1 33 66 CFG=3
M  V30 71 1 35 67
M  V30 72 1 35 68
M  V30 73 1 36 69
M  V30 74 1 36 70
M  V30 75 1 37 71
M  V30 76 1 37 72
M  V30 END BOND
M  V30 END CTAB
M  END
>  <Dataset>  (417) 
ChEMBL_Kinases

>  <Ligand_Instance>  (417) 
nan

>  <PDB_ID>  (417) 
nan

>  <Standardized_SMILES>  (417) 
CS(=O)(=O)CCCOc1cccc2c1ccn2-c1ccnc(N[C@H]2CC[C@H](C(=O)N3CC[C@@H](F)C3)CC2)n1

>  <Name>  (417) 
nan

>  <Pocket>  (417) 
nan

>  <ATP_Site>  (417) 
nan

>  <Peripheral>  (417) 
nan

>  <Num_H_Atoms_ProtBoundConf>  (417) 
nan

>  <Num_Resolved_Atoms>  (417) 
nan

>  <Num_Not_Resolved_Atoms>  (417) 
nan

$$$$
CHEMBL2425633
     RDKit          3D

  0  0  0  0  0  0  0  0  0  0999 V3000
M  V30 BEGIN CTAB
M  V30 COUNTS 74 77 0 0 0
M  V30 BEGIN ATOM
M  V30 1 C 6.960668 0.666110 4.248959 0
M  V30 2 C 5.820942 -0.313320 4.092925 0
M  V30 3 N 4.847413 0.122026 3.125300 0
M  V30 4 C 3.748115 0.928483 3.674163 0
M  V30 5 C 2.643376 -0.026632 4.076197 0
M  V30 6 C 5.085609 -0.288373 1.796302 0
M  V30 7 O 6.168527 -0.941190 1.987486 0
M  V30 8 C 4.587100 -0.242141 0.407488 0 CFG=1
M  V30 9 C 4.577210 1.170171 -0.067839 0
M  V30 10 C 4.065482 1.326509 -1.472229 0
M  V30 11 C 3.969545 0.046182 -2.238647 0 CFG=2
M  V30 12 N 2.628749 -0.495751 -2.120178 0
M  V30 13 C 1.472280 0.183345 -2.562315 0
M  V30 14 N 1.511738 1.395360 -3.144301 0
M  V30 15 C 0.405043 2.042654 -3.559597 0
M  V30 16 C -0.829169 1.437205 -3.381297 0
M  V30 17 C -0.893643 0.195498 -2.787411 0
M  V30 18 N -2.101487 -0.539857 -2.540275 0
M  V30 19 C -2.402938 -1.792821 -2.922512 0
M  V30 20 C -3.666515 -2.080399 -2.460672 0
M  V30 21 C -4.189977 -0.985315 -1.764975 0
M  V30 22 C -5.378172 -0.682349 -1.092761 0
M  V30 23 O -6.242397 -1.715269 -1.124589 0
M  V30 24 C -7.508480 -1.886562 -0.606240 0
M  V30 25 C -7.648689 -1.797081 0.877241 0
M  V30 26 C -6.803554 -2.828847 1.597829 0
M  V30 27 S -7.258547 -4.479815 1.139788 0
M  V30 28 C -6.228761 -5.644238 2.039249 0
M  V30 29 O -8.698193 -4.756391 1.395632 0
M  V30 30 O -6.922781 -4.711194 -0.319133 0
M  V30 31 C -5.449775 0.573931 -0.538434 0
M  V30 32 C -4.474487 1.541711 -0.584835 0
M  V30 33 C -3.324182 1.191369 -1.258905 0
M  V30 34 C -3.151849 -0.048974 -1.853461 0
M  V30 35 N 0.265539 -0.364435 -2.409519 0
M  V30 36 C 4.996636 -0.982270 -1.896488 0
M  V30 37 C 5.511398 -0.988263 -0.515897 0
M  V30 38 H 7.886982 0.049123 4.450250 0
M  V30 39 H 6.772749 1.266679 5.151131 0
M  V30 40 H 7.179837 1.251365 3.341553 0
M  V30 41 H 5.301502 -0.432875 5.071659 0
M  V30 42 H 6.162359 -1.326963 3.817724 0
M  V30 43 H 3.358897 1.600343 2.906565 0
M  V30 44 H 4.108575 1.561616 4.499995 0
M  V30 45 H 3.040022 -1.070388 4.208200 0
M  V30 46 H 1.870071 -0.099611 3.291272 0
M  V30 47 H 2.166326 0.248481 5.028126 0
M  V30 48 H 3.582289 -0.710565 0.432354 0
M  V30 49 H 4.026037 1.802416 0.651143 0
M  V30 50 H 5.638101 1.519646 -0.013636 0
M  V30 51 H 4.685624 2.100545 -1.967500 0
M  V30 52 H 3.051159 1.766394 -1.376553 0
M  V30 53 H 4.112496 0.302224 -3.309322 0
M  V30 54 H 2.530556 -1.439038 -1.682711 0
M  V30 55 H 0.429234 3.026083 -4.032268 0
M  V30 56 H -1.767889 1.879867 -3.681874 0
M  V30 57 H -1.738020 -2.405935 -3.483681 0
M  V30 58 H -4.203906 -3.003537 -2.596541 0
M  V30 59 H -8.031503 -2.794966 -0.969463 0
M  V30 60 H -8.142874 -1.041967 -1.033184 0
M  V30 61 H -8.716846 -2.049356 1.173029 0
M  V30 62 H -7.496719 -0.783488 1.291469 0
M  V30 63 H -6.796314 -2.679970 2.682208 0
M  V30 64 H -5.758830 -2.681162 1.229885 0
M  V30 65 H -6.061880 -5.260646 3.079981 0
M  V30 66 H -6.754277 -6.622543 2.037540 0
M  V30 67 H -5.275131 -5.766773 1.501305 0
M  V30 68 H -6.369104 0.785188 -0.035185 0
M  V30 69 H -4.651470 2.492363 -0.109046 0
M  V30 70 H -2.544134 1.947717 -1.303083 0
M  V30 71 H 4.560580 -1.980153 -2.119782 0
M  V30 72 H 5.886420 -0.936576 -2.591863 0
M  V30 73 H 5.591520 -2.017915 -0.122589 0
M  V30 74 H 6.511994 -0.539896 -0.461693 0
M  V30 END ATOM
M  V30 BEGIN BOND
M  V30 1 1 1 2
M  V30 2 1 2 3
M  V30 3 1 3 4
M  V30 4 1 4 5
M  V30 5 1 3 6
M  V30 6 2 6 7
M  V30 7 1 6 8
M  V30 8 1 8 9
M  V30 9 1 9 10
M  V30 10 1 10 11
M  V30 11 1 11 12
M  V30 12 1 12 13
M  V30 13 2 13 14
M  V30 14 1 14 15
M  V30 15 2 15 16
M  V30 16 1 16 17
M  V30 17 1 17 18
M  V30 18 1 18 19
M  V30 19 2 19 20
M  V30 20 1 20 21
M  V30 21 2 21 22
M  V30 22 1 22 23
M  V30 23 1 23 24
M  V30 24 1 24 25
M  V30 25 1 25 26
M  V30 26 1 26 27
M  V30 27 1 27 28
M  V30 28 2 27 29
M  V30 29 2 27 30
M  V30 30 1 22 31
M  V30 31 2 31 32
M  V30 32 1 32 33
M  V30 33 2 33 34
M  V30 34 2 17 35
M  V30 35 1 11 36
M  V30 36 1 36 37
M  V30 37 1 37 8
M  V30 38 1 35 13
M  V30 39 1 34 18
M  V30 40 1 34 21
M  V30 41 1 1 38
M  V30 42 1 1 39
M  V30 43 1 1 40
M  V30 44 1 2 41
M  V30 45 1 2 42
M  V30 46 1 4 43
M  V30 47 1 4 44
M  V30 48 1 5 45
M  V30 49 1 5 46
M  V30 50 1 5 47
M  V30 51 1 8 48 CFG=1
M  V30 52 1 9 49
M  V30 53 1 9 50
M  V30 54 1 10 51
M  V30 55 1 10 52
M  V30 56 1 11 53 CFG=3
M  V30 57 1 12 54
M  V30 58 1 15 55
M  V30 59 1 16 56
M  V30 60 1 19 57
M  V30 61 1 20 58
M  V30 62 1 24 59
M  V30 63 1 24 60
M  V30 64 1 25 61
M  V30 65 1 25 62
M  V30 66 1 26 63
M  V30 67 1 26 64
M  V30 68 1 28 65
M  V30 69 1 28 66
M  V30 70 1 28 67
M  V30 71 1 31 68
M  V30 72 1 32 69
M  V30 73 1 33 70
M  V30 74 1 36 71
M  V30 75 1 36 72
M  V30 76 1 37 73
M  V30 77 1 37 74
M  V30 END BOND
M  V30 END CTAB
M  END
>  <Dataset>  (418) 
ChEMBL_Kinases

>  <Ligand_Instance>  (418) 
nan

>  <PDB_ID>  (418) 
nan

>  <Standardized_SMILES>  (418) 
CCN(CC)C(=O)[C@H]1CC[C@H](Nc2nccc(-n3ccc4c(OCCCS(C)(=O)=O)cccc43)n2)CC1

>  <Name>  (418) 
nan

>  <Pocket>  (418) 
nan

>  <ATP_Site>  (418) 
nan

>  <Peripheral>  (418) 
nan

>  <Num_H_Atoms_ProtBoundConf>  (418) 
nan

>  <Num_Resolved_Atoms>  (418) 
nan

>  <Num_Not_Resolved_Atoms>  (418) 
nan

$$$$
CHEMBL2425634
     RDKit          3D

  0  0  0  0  0  0  0  0  0  0999 V3000
M  V30 BEGIN CTAB
M  V30 COUNTS 68 71 0 0 0
M  V30 BEGIN ATOM
M  V30 1 C 5.450623 -2.875242 3.271613 0
M  V30 2 C 4.165097 -2.574798 2.550529 0
M  V30 3 C 3.086593 -2.318601 3.561784 0
M  V30 4 O 3.813259 -3.730226 1.838897 0
M  V30 5 C 4.343826 -1.394126 1.626623 0 CFG=1
M  V30 6 C 3.071522 -1.062443 0.884280 0
M  V30 7 C 3.356411 0.117794 -0.013635 0
M  V30 8 C 3.679141 1.278074 0.885772 0 CFG=2
M  V30 9 N 3.637943 2.565059 0.229453 0
M  V30 10 C 2.424684 3.016522 -0.364041 0
M  V30 11 N 2.374785 4.218124 -0.982063 0
M  V30 12 C 1.233472 4.653822 -1.545044 0
M  V30 13 C 0.080445 3.897303 -1.513324 0
M  V30 14 C 0.124566 2.667145 -0.882728 0
M  V30 15 N -0.939880 1.730479 -0.733921 0
M  V30 16 C -1.225126 1.180654 0.482787 0
M  V30 17 C -2.290871 0.319699 0.329576 0
M  V30 18 C -2.673305 0.332249 -0.991502 0
M  V30 19 C -3.653196 -0.297718 -1.769022 0
M  V30 20 O -4.447833 -1.158606 -1.020874 0
M  V30 21 C -5.471178 -1.857429 -1.672082 0
M  V30 22 C -6.245186 -2.757647 -0.699748 0
M  V30 23 C -5.197527 -3.706874 -0.153945 0
M  V30 24 S -5.872626 -4.854065 1.005134 0
M  V30 25 C -6.597012 -4.082799 2.398948 0
M  V30 26 O -6.910380 -5.696638 0.312235 0
M  V30 27 O -4.772346 -5.782515 1.422118 0
M  V30 28 C -3.754349 -0.036176 -3.135476 0
M  V30 29 C -2.866912 0.856760 -3.701074 0
M  V30 30 C -1.889017 1.494304 -2.959974 0
M  V30 31 C -1.810340 1.222070 -1.626196 0
M  V30 32 N 1.304441 2.301668 -0.343322 0
M  V30 33 C 4.998522 0.994051 1.527788 0
M  V30 34 C 4.774082 -0.213767 2.445705 0
M  V30 35 H 5.338930 -3.893690 3.742847 0
M  V30 36 H 6.322613 -2.956954 2.595888 0
M  V30 37 H 5.637869 -2.103980 4.057905 0
M  V30 38 H 3.395390 -1.550465 4.281164 0
M  V30 39 H 2.952188 -3.269552 4.145049 0
M  V30 40 H 2.105981 -2.093249 3.109439 0
M  V30 41 H 3.168614 -4.287455 2.361288 0
M  V30 42 H 5.107938 -1.627795 0.873048 0
M  V30 43 H 2.789356 -1.936935 0.265725 0
M  V30 44 H 2.307937 -0.732907 1.598756 0
M  V30 45 H 4.319142 -0.129358 -0.546734 0
M  V30 46 H 2.563183 0.328077 -0.750777 0
M  V30 47 H 2.915677 1.221655 1.717200 0
M  V30 48 H 4.485406 3.172227 0.182527 0
M  V30 49 H 1.106715 5.604537 -2.060287 0
M  V30 50 H -0.881065 4.154938 -1.932773 0
M  V30 51 H -0.725593 1.359479 1.439730 0
M  V30 52 H -2.777902 -0.287814 1.102385 0
M  V30 53 H -6.157272 -1.239646 -2.254830 0
M  V30 54 H -5.007259 -2.585090 -2.397777 0
M  V30 55 H -6.676334 -2.125646 0.091653 0
M  V30 56 H -7.028819 -3.277308 -1.277292 0
M  V30 57 H -4.812636 -4.263680 -1.030568 0
M  V30 58 H -4.376980 -3.120180 0.257969 0
M  V30 59 H -6.471195 -2.987817 2.376720 0
M  V30 60 H -7.681050 -4.350770 2.530757 0
M  V30 61 H -6.104736 -4.457431 3.319758 0
M  V30 62 H -4.539491 -0.570942 -3.640737 0
M  V30 63 H -2.964882 1.042944 -4.760169 0
M  V30 64 H -1.228747 2.181020 -3.469244 0
M  V30 65 H 5.432325 1.836316 2.070203 0
M  V30 66 H 5.687193 0.624304 0.724271 0
M  V30 67 H 3.970035 0.063808 3.163758 0
M  V30 68 H 5.707914 -0.367613 2.982647 0
M  V30 END ATOM
M  V30 BEGIN BOND
M  V30 1 1 1 2
M  V30 2 1 2 3
M  V30 3 1 2 4
M  V30 4 1 2 5
M  V30 5 1 5 6
M  V30 6 1 6 7
M  V30 7 1 7 8
M  V30 8 1 8 9
M  V30 9 1 9 10
M  V30 10 2 10 11
M  V30 11 1 11 12
M  V30 12 2 12 13
M  V30 13 1 13 14
M  V30 14 1 14 15
M  V30 15 1 15 16
M  V30 16 2 16 17
M  V30 17 1 17 18
M  V30 18 2 18 19
M  V30 19 1 19 20
M  V30 20 1 20 21
M  V30 21 1 21 22
M  V30 22 1 22 23
M  V30 23 1 23 24
M  V30 24 1 24 25
M  V30 25 2 24 26
M  V30 26 2 24 27
M  V30 27 1 19 28
M  V30 28 2 28 29
M  V30 29 1 29 30
M  V30 30 2 30 31
M  V30 31 2 14 32
M  V30 32 1 8 33
M  V30 33 1 33 34
M  V30 34 1 34 5
M  V30 35 1 32 10
M  V30 36 1 31 15
M  V30 37 1 31 18
M  V30 38 1 1 35
M  V30 39 1 1 36
M  V30 40 1 1 37
M  V30 41 1 3 38
M  V30 42 1 3 39
M  V30 43 1 3 40
M  V30 44 1 4 41
M  V30 45 1 5 42 CFG=3
M  V30 46 1 6 43
M  V30 47 1 6 44
M  V30 48 1 7 45
M  V30 49 1 7 46
M  V30 50 1 8 47 CFG=1
M  V30 51 1 9 48
M  V30 52 1 12 49
M  V30 53 1 13 50
M  V30 54 1 16 51
M  V30 55 1 17 52
M  V30 56 1 21 53
M  V30 57 1 21 54
M  V30 58 1 22 55
M  V30 59 1 22 56
M  V30 60 1 23 57
M  V30 61 1 23 58
M  V30 62 1 25 59
M  V30 63 1 25 60
M  V30 64 1 25 61
M  V30 65 1 28 62
M  V30 66 1 29 63
M  V30 67 1 30 64
M  V30 68 1 33 65
M  V30 69 1 33 66
M  V30 70 1 34 67
M  V30 71 1 34 68
M  V30 END BOND
M  V30 END CTAB
M  END
>  <Dataset>  (419) 
ChEMBL_Kinases

>  <Ligand_Instance>  (419) 
nan

>  <PDB_ID>  (419) 
nan

>  <Standardized_SMILES>  (419) 
CC(C)(O)[C@H]1CC[C@H](Nc2nccc(-n3ccc4c(OCCCS(C)(=O)=O)cccc43)n2)CC1

>  <Name>  (419) 
nan

>  <Pocket>  (419) 
nan

>  <ATP_Site>  (419) 
nan

>  <Peripheral>  (419) 
nan

>  <Num_H_Atoms_ProtBoundConf>  (419) 
nan

>  <Num_Resolved_Atoms>  (419) 
nan

>  <Num_Not_Resolved_Atoms>  (419) 
nan

$$$$
CHEMBL3691914
     RDKit          3D

  0  0  0  0  0  0  0  0  0  0999 V3000
M  V30 BEGIN CTAB
M  V30 COUNTS 79 82 0 0 0
M  V30 BEGIN ATOM
M  V30 1 C 1.827364 -4.739874 3.103608 0
M  V30 2 O 2.851773 -4.277668 2.279569 0
M  V30 3 C 3.107010 -5.100723 1.204080 0
M  V30 4 C 4.214230 -4.557578 0.354027 0
M  V30 5 O 4.045694 -3.336874 -0.207824 0
M  V30 6 C 3.873981 -2.066066 0.136190 0
M  V30 7 C 3.750662 -1.344338 -1.067229 0
M  V30 8 C 3.556393 0.045987 -1.087876 0
M  V30 9 F 3.425460 0.837607 -2.176547 0
M  V30 10 C 3.487186 0.705673 0.121197 0
M  V30 11 C 3.286507 2.154347 0.202482 0
M  V30 12 N 2.034011 2.616581 0.258458 0
M  V30 13 C 1.715260 3.915131 0.335305 0
M  V30 14 C 0.323001 4.325400 0.391942 0
M  V30 15 O 0.077780 5.554598 0.464266 0
M  V30 16 N -0.763493 3.418454 0.370022 0
M  V30 17 C -2.151930 3.671632 0.418478 0
M  V30 18 C -2.766929 4.895357 0.512086 0
M  V30 19 N -4.083685 5.136028 0.560307 0
M  V30 20 C -4.951468 4.110620 0.516352 0
M  V30 21 C -4.392748 2.846277 0.421433 0
M  V30 22 C -3.021642 2.609687 0.371989 0
M  V30 23 C -2.645703 1.187161 0.264987 0 CFG=1
M  V30 24 C -2.393264 0.506032 1.573626 0
M  V30 25 C -1.917099 -0.888870 1.284178 0 CFG=1
M  V30 26 N -2.622532 -1.904164 2.067865 0
M  V30 27 C -1.870644 -1.219535 -0.167183 0 CFG=1
M  V30 28 O -1.696401 -2.602316 -0.310069 0
M  V30 29 C -0.463188 -2.794317 -0.894163 0
M  V30 30 C -0.102528 -4.238530 -1.127100 0
M  V30 31 S -1.347168 -4.938036 -2.214101 0
M  V30 32 C -1.343800 -4.033529 -3.742141 0
M  V30 33 O -0.970242 -6.362930 -2.574765 0
M  V30 34 O -2.676187 -4.974483 -1.551001 0
M  V30 35 C -3.092065 -0.859916 -0.955727 0 CFG=1
M  V30 36 C -4.052830 -2.015016 -1.103212 0
M  V30 37 C -3.771950 0.370627 -0.393271 0
M  V30 38 C 2.735318 4.819591 0.357596 0
M  V30 39 C 4.041968 4.383128 0.301599 0
M  V30 40 C 4.336946 3.030417 0.222483 0
M  V30 41 F 5.596058 2.557084 0.165832 0
M  V30 42 C 3.601706 0.049570 1.327225 0
M  V30 43 F 3.544794 0.623313 2.550058 0
M  V30 44 C 3.788974 -1.299847 1.264782 0
M  V30 45 H 0.877787 -4.827558 2.536109 0
M  V30 46 H 1.681086 -3.988439 3.900944 0
M  V30 47 H 2.116755 -5.722429 3.537949 0
M  V30 48 H 2.168117 -5.269064 0.628315 0
M  V30 49 H 3.475819 -6.075534 1.609052 0
M  V30 50 H 4.383637 -5.339975 -0.452223 0
M  V30 51 H 5.142353 -4.634964 0.987580 0
M  V30 52 H 3.777585 -1.679199 -2.119969 0
M  V30 53 H -0.423840 2.437370 0.310758 0
M  V30 54 H -2.168216 5.789398 0.554546 0
M  V30 55 H -6.012283 4.261061 0.552472 0
M  V30 56 H -5.116927 2.039414 0.387875 0
M  V30 57 H -1.741536 1.083332 -0.366110 0
M  V30 58 H -1.748253 1.075849 2.258021 0
M  V30 59 H -3.402407 0.414004 2.066594 0
M  V30 60 H -0.861972 -0.929667 1.661249 0
M  V30 61 H -1.972346 -2.709863 2.218497 0
M  V30 62 H -2.985620 -1.473640 2.929108 0
M  V30 63 H -0.924080 -0.771334 -0.588361 0
M  V30 64 H 0.294558 -2.291897 -0.253588 0
M  V30 65 H -0.449005 -2.239549 -1.852127 0
M  V30 66 H 0.844987 -4.239808 -1.703975 0
M  V30 67 H -0.037936 -4.791573 -0.186353 0
M  V30 68 H -1.597512 -4.655342 -4.619506 0
M  V30 69 H -2.115532 -3.220050 -3.721574 0
M  V30 70 H -0.328246 -3.614523 -3.919719 0
M  V30 71 H -2.752799 -0.586096 -1.986180 0
M  V30 72 H -3.895169 -2.816110 -0.358048 0
M  V30 73 H -3.999292 -2.487731 -2.105782 0
M  V30 74 H -5.093895 -1.619229 -0.956798 0
M  V30 75 H -4.463365 0.011600 0.400679 0
M  V30 76 H -4.292884 0.964936 -1.166996 0
M  V30 77 H 2.469635 5.874687 0.420206 0
M  V30 78 H 4.848540 5.103604 0.319612 0
M  V30 79 H 3.898130 -1.863655 2.151731 0
M  V30 END ATOM
M  V30 BEGIN BOND
M  V30 1 1 1 2
M  V30 2 1 2 3
M  V30 3 1 3 4
M  V30 4 1 4 5
M  V30 5 1 5 6
M  V30 6 2 6 7
M  V30 7 1 7 8
M  V30 8 1 8 9
M  V30 9 2 8 10
M  V30 10 1 10 11
M  V30 11 2 11 12
M  V30 12 1 12 13
M  V30 13 1 13 14
M  V30 14 2 14 15
M  V30 15 1 14 16
M  V30 16 1 16 17
M  V30 17 2 17 18
M  V30 18 1 18 19
M  V30 19 2 19 20
M  V30 20 1 20 21
M  V30 21 2 21 22
M  V30 22 1 22 23
M  V30 23 1 23 24
M  V30 24 1 24 25
M  V30 25 1 25 26
M  V30 26 1 25 27
M  V30 27 1 27 28
M  V30 28 1 28 29
M  V30 29 1 29 30
M  V30 30 1 30 31
M  V30 31 1 31 32
M  V30 32 2 31 33
M  V30 33 2 31 34
M  V30 34 1 27 35
M  V30 35 1 35 36
M  V30 36 1 35 37
M  V30 37 2 13 38
M  V30 38 1 38 39
M  V30 39 2 39 40
M  V30 40 1 40 41
M  V30 41 1 10 42
M  V30 42 1 42 43
M  V30 43 2 42 44
M  V30 44 1 44 6
M  V30 45 1 40 11
M  V30 46 1 22 17
M  V30 47 1 37 23
M  V30 48 1 1 45
M  V30 49 1 1 46
M  V30 50 1 1 47
M  V30 51 1 3 48
M  V30 52 1 3 49
M  V30 53 1 4 50
M  V30 54 1 4 51
M  V30 55 1 7 52
M  V30 56 1 16 53
M  V30 57 1 18 54
M  V30 58 1 20 55
M  V30 59 1 21 56
M  V30 60 1 23 57 CFG=3
M  V30 61 1 24 58
M  V30 62 1 24 59
M  V30 63 1 25 60 CFG=1
M  V30 64 1 26 61
M  V30 65 1 26 62
M  V30 66 1 27 63 CFG=3
M  V30 67 1 29 64
M  V30 68 1 29 65
M  V30 69 1 30 66
M  V30 70 1 30 67
M  V30 71 1 32 68
M  V30 72 1 32 69
M  V30 73 1 32 70
M  V30 74 1 35 71 CFG=3
M  V30 75 1 36 72
M  V30 76 1 36 73
M  V30 77 1 36 74
M  V30 78 1 37 75
M  V30 79 1 37 76
M  V30 80 1 38 77
M  V30 81 1 39 78
M  V30 82 1 44 79
M  V30 END BOND
M  V30 END CTAB
M  END
>  <Dataset>  (420) 
ChEMBL_Kinases

>  <Ligand_Instance>  (420) 
nan

>  <PDB_ID>  (420) 
nan

>  <Standardized_SMILES>  (420) 
COCCOc1cc(F)c(-c2nc(C(=O)Nc3cnccc3[C@H]3C[C@@H](N)[C@@H](OCCS(C)(=O)=O)[C@@H](C)C3)ccc2F)c(F)c1

>  <Name>  (420) 
nan

>  <Pocket>  (420) 
nan

>  <ATP_Site>  (420) 
nan

>  <Peripheral>  (420) 
nan

>  <Num_H_Atoms_ProtBoundConf>  (420) 
nan

>  <Num_Resolved_Atoms>  (420) 
nan

>  <Num_Not_Resolved_Atoms>  (420) 
nan

$$$$
CHEMBL4454440
     RDKit          3D

  0  0  0  0  0  0  0  0  0  0999 V3000
M  V30 BEGIN CTAB
M  V30 COUNTS 39 41 0 0 0
M  V30 BEGIN ATOM
M  V30 1 C 1.592837 -2.794987 1.882647 0
M  V30 2 C 0.338147 -3.176081 1.153018 0
M  V30 3 C -0.096988 -4.580715 1.567840 0
M  V30 4 C 0.636611 -3.174739 -0.341343 0
M  V30 5 N -0.734209 -2.270159 1.501242 0
M  V30 6 C -0.674023 -0.873348 1.244558 0
M  V30 7 C 0.403792 -0.263611 0.640552 0
M  V30 8 C 0.494476 1.084512 0.375281 0
M  V30 9 C 1.632996 1.729017 -0.262754 0
M  V30 10 C 1.594104 3.092578 -0.470092 0
M  V30 11 C 2.652382 3.748635 -1.072586 0
M  V30 12 N 3.760600 3.112550 -1.484703 0
M  V30 13 C 3.819887 1.780308 -1.292073 0
M  V30 14 C 2.780351 1.099449 -0.694223 0
M  V30 15 N -0.536420 1.879989 0.724937 0
M  V30 16 C -1.642016 1.371601 1.325085 0
M  V30 17 C -2.685191 2.199007 1.675206 0
M  V30 18 N -3.803795 1.704617 2.279168 0
M  V30 19 C -3.885399 0.366274 2.538623 0
M  V30 20 C -2.824924 -0.436746 2.176383 0
M  V30 21 C -1.677287 0.015815 1.565789 0
M  V30 22 H 1.495429 -1.837308 2.470566 0
M  V30 23 H 1.815108 -3.569378 2.680661 0
M  V30 24 H 2.423450 -2.728450 1.163755 0
M  V30 25 H 0.804414 -5.173861 1.860888 0
M  V30 26 H -0.641743 -5.018311 0.722448 0
M  V30 27 H -0.781617 -4.475712 2.421271 0
M  V30 28 H 1.696229 -2.996343 -0.549376 0
M  V30 29 H -0.032143 -2.446739 -0.842559 0
M  V30 30 H 0.375664 -4.157472 -0.794590 0
M  V30 31 H -1.573452 -2.672420 1.955774 0
M  V30 32 H 1.262663 -0.819624 0.330130 0
M  V30 33 H 0.765921 3.726061 -0.188271 0
M  V30 34 H 2.668227 4.824523 -1.257898 0
M  V30 35 H 4.690780 1.231704 -1.607884 0
M  V30 36 H 2.861732 0.046292 -0.558021 0
M  V30 37 H -2.596455 3.258409 1.458559 0
M  V30 38 H -4.790319 0.020412 3.018253 0
M  V30 39 H -3.002855 -1.466553 2.429852 0
M  V30 END ATOM
M  V30 BEGIN BOND
M  V30 1 1 1 2
M  V30 2 1 2 3
M  V30 3 1 2 4
M  V30 4 1 2 5
M  V30 5 1 5 6
M  V30 6 2 6 7
M  V30 7 1 7 8
M  V30 8 1 8 9
M  V30 9 2 9 10
M  V30 10 1 10 11
M  V30 11 2 11 12
M  V30 12 1 12 13
M  V30 13 2 13 14
M  V30 14 2 8 15
M  V30 15 1 15 16
M  V30 16 2 16 17
M  V30 17 1 17 18
M  V30 18 2 18 19
M  V30 19 1 19 20
M  V30 20 2 20 21
M  V30 21 1 21 6
M  V30 22 1 14 9
M  V30 23 1 21 16
M  V30 24 1 1 22
M  V30 25 1 1 23
M  V30 26 1 1 24
M  V30 27 1 3 25
M  V30 28 1 3 26
M  V30 29 1 3 27
M  V30 30 1 4 28
M  V30 31 1 4 29
M  V30 32 1 4 30
M  V30 33 1 5 31
M  V30 34 1 7 32
M  V30 35 1 10 33
M  V30 36 1 11 34
M  V30 37 1 13 35
M  V30 38 1 14 36
M  V30 39 1 17 37
M  V30 40 1 19 38
M  V30 41 1 20 39
M  V30 END BOND
M  V30 END CTAB
M  END
>  <Dataset>  (421) 
ChEMBL_Kinases

>  <Ligand_Instance>  (421) 
nan

>  <PDB_ID>  (421) 
nan

>  <Standardized_SMILES>  (421) 
CC(C)(C)Nc1cc(-c2ccncc2)nc2cnccc12

>  <Name>  (421) 
nan

>  <Pocket>  (421) 
nan

>  <ATP_Site>  (421) 
nan

>  <Peripheral>  (421) 
nan

>  <Num_H_Atoms_ProtBoundConf>  (421) 
nan

>  <Num_Resolved_Atoms>  (421) 
nan

>  <Num_Not_Resolved_Atoms>  (421) 
nan

$$$$
CHEMBL3691968
     RDKit          3D

  0  0  0  0  0  0  0  0  0  0999 V3000
M  V30 BEGIN CTAB
M  V30 COUNTS 74 78 0 0 0
M  V30 BEGIN ATOM
M  V30 1 C 3.974258 1.502733 3.114630 0
M  V30 2 C 2.994673 0.572505 2.384687 0 CFG=1
M  V30 3 C 2.528502 1.158258 1.116215 0
M  V30 4 C 2.110932 0.255314 0.034548 0 CFG=1
M  V30 5 C 2.317679 0.762630 -1.345581 0
M  V30 6 C 3.498689 0.560460 -2.029864 0
M  V30 7 C 3.644492 1.051494 -3.309929 0
M  V30 8 N 2.706436 1.729865 -3.966597 0
M  V30 9 C 1.535717 1.947922 -3.328950 0
M  V30 10 C 1.335521 1.478534 -2.045555 0
M  V30 11 N 0.118548 1.683548 -1.336001 0
M  V30 12 C -0.403576 2.679805 -0.465171 0
M  V30 13 O 0.287783 3.666931 -0.181575 0
M  V30 14 C -1.753995 2.410102 0.014258 0
M  V30 15 C -2.272063 3.365813 0.862247 0
M  V30 16 C -3.544958 3.182711 1.361118 0
M  V30 17 C -4.291483 2.075957 1.028022 0
M  V30 18 F -5.544300 1.765269 1.437494 0
M  V30 19 C -3.737150 1.139805 0.174769 0
M  V30 20 C -4.313950 -0.102026 -0.325419 0
M  V30 21 C -4.024958 -1.179065 0.494407 0
M  V30 22 F -3.290615 -1.128539 1.644772 0
M  V30 23 C -4.472889 -2.451270 0.208929 0
M  V30 24 C -5.235356 -2.678409 -0.926239 0
M  V30 25 C -5.815689 -3.951608 -1.424404 0
M  V30 26 O -5.545238 -4.220224 -2.756643 0
M  V30 27 C -5.513359 -5.155762 -0.553766 0
M  V30 28 C -6.919817 -5.654972 -0.903120 0
M  V30 29 C -7.279268 -4.173937 -1.083158 0
M  V30 30 C -5.518397 -1.596067 -1.738239 0
M  V30 31 C -5.065428 -0.320290 -1.446034 0
M  V30 32 F -5.296583 0.789988 -2.185569 0
M  V30 33 N -2.505259 1.318642 -0.306984 0
M  V30 34 C 2.547907 -1.174729 0.157209 0
M  V30 35 C 2.523100 -1.649420 1.590541 0 CFG=1
M  V30 36 N 2.758943 -3.049641 1.682670 0
M  V30 37 C 3.574454 -0.824440 2.302739 0 CFG=1
M  V30 38 O 4.776205 -0.805499 1.644879 0
M  V30 39 C 5.835175 -1.304320 2.384110 0
M  V30 40 C 7.078775 -1.215189 1.524233 0
M  V30 41 C 8.257070 -1.722062 2.223605 0
M  V30 42 N 9.178665 -2.119496 2.765117 0
M  V30 43 H 4.007307 1.301406 4.186652 0
M  V30 44 H 3.607198 2.544780 2.987247 0
M  V30 45 H 5.009171 1.378666 2.720052 0
M  V30 46 H 2.130847 0.460093 3.106092 0
M  V30 47 H 1.764534 1.936238 1.356463 0
M  V30 48 H 3.384041 1.777734 0.710635 0
M  V30 49 H 0.980272 0.190711 0.117787 0
M  V30 50 H 4.311857 0.035286 -1.605062 0
M  V30 51 H 4.571640 0.910526 -3.887708 0
M  V30 52 H 0.737997 2.495783 -3.819811 0
M  V30 53 H -0.412969 0.829833 -1.613912 0
M  V30 54 H -1.713395 4.258525 1.151752 0
M  V30 55 H -4.040185 3.870267 2.030752 0
M  V30 56 H -4.295626 -3.345271 0.788744 0
M  V30 57 H -6.300382 -4.737930 -3.121671 0
M  V30 58 H -5.489953 -4.968265 0.531483 0
M  V30 59 H -4.708365 -5.815155 -0.900999 0
M  V30 60 H -6.888176 -6.220559 -1.853967 0
M  V30 61 H -7.431897 -6.149015 -0.049164 0
M  V30 62 H -7.975049 -4.003152 -1.935076 0
M  V30 63 H -7.597190 -3.727206 -0.123370 0
M  V30 64 H -6.102231 -1.645962 -2.648836 0
M  V30 65 H 1.902846 -1.874516 -0.412064 0
M  V30 66 H 3.571290 -1.286992 -0.252769 0
M  V30 67 H 1.509117 -1.368936 1.978130 0
M  V30 68 H 2.677702 -3.517922 0.754381 0
M  V30 69 H 2.181027 -3.476786 2.423249 0
M  V30 70 H 3.634204 -1.238695 3.329718 0
M  V30 71 H 5.731203 -2.346585 2.688442 0
M  V30 72 H 6.040847 -0.709768 3.295501 0
M  V30 73 H 6.954338 -1.817944 0.583587 0
M  V30 74 H 7.244999 -0.175716 1.182805 0
M  V30 END ATOM
M  V30 BEGIN BOND
M  V30 1 1 1 2
M  V30 2 1 2 3
M  V30 3 1 3 4
M  V30 4 1 4 5
M  V30 5 2 5 6
M  V30 6 1 6 7
M  V30 7 2 7 8
M  V30 8 1 8 9
M  V30 9 2 9 10
M  V30 10 1 10 11
M  V30 11 1 11 12
M  V30 12 2 12 13
M  V30 13 1 12 14
M  V30 14 2 14 15
M  V30 15 1 15 16
M  V30 16 2 16 17
M  V30 17 1 17 18
M  V30 18 1 17 19
M  V30 19 1 19 20
M  V30 20 2 20 21
M  V30 21 1 21 22
M  V30 22 1 21 23
M  V30 23 2 23 24
M  V30 24 1 24 25
M  V30 25 1 25 26
M  V30 26 1 25 27
M  V30 27 1 27 28
M  V30 28 1 28 29
M  V30 29 1 24 30
M  V30 30 2 30 31
M  V30 31 1 31 32
M  V30 32 2 19 33
M  V30 33 1 4 34
M  V30 34 1 34 35
M  V30 35 1 35 36
M  V30 36 1 35 37
M  V30 37 1 37 38
M  V30 38 1 38 39
M  V30 39 1 39 40
M  V30 40 1 40 41
M  V30 41 3 41 42
M  V30 42 1 37 2
M  V30 43 1 10 5
M  V30 44 1 33 14
M  V30 45 1 31 20
M  V30 46 1 29 25
M  V30 47 1 1 43
M  V30 48 1 1 44
M  V30 49 1 1 45
M  V30 50 1 2 46 CFG=1
M  V30 51 1 3 47
M  V30 52 1 3 48
M  V30 53 1 4 49 CFG=1
M  V30 54 1 6 50
M  V30 55 1 7 51
M  V30 56 1 9 52
M  V30 57 1 11 53
M  V30 58 1 15 54
M  V30 59 1 16 55
M  V30 60 1 23 56
M  V30 61 1 26 57
M  V30 62 1 27 58
M  V30 63 1 27 59
M  V30 64 1 28 60
M  V30 65 1 28 61
M  V30 66 1 29 62
M  V30 67 1 29 63
M  V30 68 1 30 64
M  V30 69 1 34 65
M  V30 70 1 34 66
M  V30 71 1 35 67 CFG=1
M  V30 72 1 36 68
M  V30 73 1 36 69
M  V30 74 1 37 70 CFG=1
M  V30 75 1 39 71
M  V30 76 1 39 72
M  V30 77 1 40 73
M  V30 78 1 40 74
M  V30 END BOND
M  V30 END CTAB
M  END
>  <Dataset>  (422) 
ChEMBL_Kinases

>  <Ligand_Instance>  (422) 
nan

>  <PDB_ID>  (422) 
nan

>  <Standardized_SMILES>  (422) 
C[C@H]1C[C@@H](c2ccncc2NC(=O)c2ccc(F)c(-c3c(F)cc(C4(O)CCC4)cc3F)n2)C[C@@H](N)[C@H]1OCCC#N

>  <Name>  (422) 
nan

>  <Pocket>  (422) 
nan

>  <ATP_Site>  (422) 
nan

>  <Peripheral>  (422) 
nan

>  <Num_H_Atoms_ProtBoundConf>  (422) 
nan

>  <Num_Resolved_Atoms>  (422) 
nan

>  <Num_Not_Resolved_Atoms>  (422) 
nan

$$$$
CHEMBL4454334
     RDKit          3D

  0  0  0  0  0  0  0  0  0  0999 V3000
M  V30 BEGIN CTAB
M  V30 COUNTS 42 45 0 0 0
M  V30 BEGIN ATOM
M  V30 1 O 5.505961 -0.697844 0.377513 0
M  V30 2 C 4.264251 -0.890219 0.352747 0
M  V30 3 N 3.652611 -1.662671 -0.673529 0
M  V30 4 C 2.181801 -1.753858 -0.546656 0
M  V30 5 C 1.771594 -3.163701 -0.475885 0
M  V30 6 C 0.786863 -3.632159 -1.465420 0
M  V30 7 C -0.226181 -2.624754 -1.907395 0
M  V30 8 C 0.256117 -1.236419 -2.078422 0
M  V30 9 C 1.674936 -0.989950 -1.727314 0
M  V30 10 N 1.990739 -0.997757 0.671360 0
M  V30 11 C 3.130454 -0.495717 1.183288 0
M  V30 12 C 3.187759 0.263349 2.333040 0
M  V30 13 Cl 4.697366 0.892595 2.954993 0
M  V30 14 C 2.035531 0.549696 3.032524 0
M  V30 15 C 0.845059 0.056210 2.546309 0
M  V30 16 N -0.322444 0.355242 3.273879 0
M  V30 17 C -1.459664 1.059356 2.850888 0
M  V30 18 C -1.591830 1.647574 1.613699 0
M  V30 19 C -2.710175 2.327800 1.219748 0
M  V30 20 N -3.752400 2.439756 2.076640 0
M  V30 21 C -3.673531 1.882508 3.298680 0
M  V30 22 O -4.747553 1.998239 4.180993 0
M  V30 23 C -2.533613 1.192558 3.692147 0
M  V30 24 C 0.858014 -0.706629 1.374732 0
M  V30 25 O -0.278515 -1.091083 1.045704 0
M  V30 26 H 4.106426 -2.153298 -1.474743 0
M  V30 27 H 2.665813 -3.819987 -0.504255 0
M  V30 28 H 1.333122 -3.357631 0.546922 0
M  V30 29 H 0.210943 -4.519420 -1.092122 0
M  V30 30 H 1.317772 -3.989972 -2.373518 0
M  V30 31 H -1.036927 -2.598441 -1.119205 0
M  V30 32 H -0.760111 -2.976927 -2.812616 0
M  V30 33 H -0.390288 -0.466939 -1.605606 0
M  V30 34 H 0.168274 -0.989545 -3.184982 0
M  V30 35 H 1.784795 0.104508 -1.478045 0
M  V30 36 H 2.358584 -1.144274 -2.599188 0
M  V30 37 H 2.091621 1.145413 3.932197 0
M  V30 38 H -0.255062 -0.024770 4.224642 0
M  V30 39 H -0.803896 1.592076 0.902710 0
M  V30 40 H -2.785997 2.779616 0.241694 0
M  V30 41 H -5.160536 1.143936 4.530993 0
M  V30 42 H -2.522794 0.760986 4.692570 0
M  V30 END ATOM
M  V30 BEGIN BOND
M  V30 1 2 1 2
M  V30 2 1 2 3
M  V30 3 1 3 4
M  V30 4 1 4 5
M  V30 5 1 5 6
M  V30 6 1 6 7
M  V30 7 1 7 8
M  V30 8 1 8 9
M  V30 9 1 4 10
M  V30 10 1 10 11
M  V30 11 2 11 12
M  V30 12 1 12 13
M  V30 13 1 12 14
M  V30 14 2 14 15
M  V30 15 1 15 16
M  V30 16 1 16 17
M  V30 17 2 17 18
M  V30 18 1 18 19
M  V30 19 2 19 20
M  V30 20 1 20 21
M  V30 21 1 21 22
M  V30 22 2 21 23
M  V30 23 1 15 24
M  V30 24 2 24 25
M  V30 25 1 11 2
M  V30 26 1 23 17
M  V30 27 1 9 4
M  V30 28 1 24 10
M  V30 29 1 3 26
M  V30 30 1 5 27
M  V30 31 1 5 28
M  V30 32 1 6 29
M  V30 33 1 6 30
M  V30 34 1 7 31
M  V30 35 1 7 32
M  V30 36 1 8 33
M  V30 37 1 8 34
M  V30 38 1 9 35
M  V30 39 1 9 36
M  V30 40 1 14 37
M  V30 41 1 16 38
M  V30 42 1 18 39
M  V30 43 1 19 40
M  V30 44 1 22 41
M  V30 45 1 23 42
M  V30 END BOND
M  V30 END CTAB
M  END
>  <Dataset>  (423) 
ChEMBL_Kinases

>  <Ligand_Instance>  (423) 
nan

>  <PDB_ID>  (423) 
nan

>  <Standardized_SMILES>  (423) 
O=C1NC2(CCCCC2)n2c1c(Cl)cc(Nc1ccnc(O)c1)c2=O

>  <Name>  (423) 
nan

>  <Pocket>  (423) 
nan

>  <ATP_Site>  (423) 
nan

>  <Peripheral>  (423) 
nan

>  <Num_H_Atoms_ProtBoundConf>  (423) 
nan

>  <Num_Resolved_Atoms>  (423) 
nan

>  <Num_Not_Resolved_Atoms>  (423) 
nan

$$$$
CHEMBL3702117
     RDKit          3D

  0  0  0  0  0  0  0  0  0  0999 V3000
M  V30 BEGIN CTAB
M  V30 COUNTS 62 67 0 0 0
M  V30 BEGIN ATOM
M  V30 1 O 3.079835 -1.339475 7.696577 0
M  V30 2 C 3.604159 -0.866293 6.499126 0
M  V30 3 C 4.118985 -2.025034 5.641376 0
M  V30 4 C 4.846644 -1.408177 4.477883 0
M  V30 5 N 4.021112 -0.492853 3.706698 0
M  V30 6 C 3.988750 -0.996152 2.347796 0
M  V30 7 C 3.218776 -0.170224 1.413000 0
M  V30 8 C 3.711564 0.859777 0.646681 0
M  V30 9 C 2.847459 1.537647 -0.184779 0
M  V30 10 C 1.501480 1.268810 -0.319959 0
M  V30 11 N 0.640620 1.976639 -1.205093 0
M  V30 12 C -0.744418 1.584147 -1.195228 0
M  V30 13 N -1.626700 2.476281 -0.764230 0
M  V30 14 C -2.941201 2.150453 -0.724147 0
M  V30 15 C -3.326387 0.877115 -1.140101 0
M  V30 16 C -4.587779 0.333299 -1.179863 0
M  V30 17 C -5.858551 0.781217 -0.860272 0
M  V30 18 C -6.977391 -0.050951 -1.018710 0
M  V30 19 N -6.719032 -1.279226 -1.490997 0
M  V30 20 C -5.497473 -1.717887 -1.801036 0
M  V30 21 C -4.382338 -0.924429 -1.656468 0
M  V30 22 N -3.090952 -1.176483 -1.907267 0
M  V30 23 C -2.360241 -2.273905 -2.384889 0
M  V30 24 C -2.955753 -3.448458 -2.972993 0
M  V30 25 C -3.468887 -3.050687 -4.301727 0
M  V30 26 C -2.528408 -1.920140 -4.680977 0
M  V30 27 C -1.481221 -1.884111 -3.590738 0
M  V30 28 C -2.401748 -0.053793 -1.589593 0
M  V30 29 N -1.131075 0.384718 -1.584289 0
M  V30 30 N 1.080726 0.251159 0.455829 0
M  V30 31 C 1.871724 -0.451192 1.288350 0
M  V30 32 C 2.650116 -0.496503 4.193036 0
M  V30 33 C 2.552575 -0.157342 5.662279 0
M  V30 34 H 2.278357 -1.884329 7.421087 0
M  V30 35 H 4.464553 -0.180814 6.644764 0
M  V30 36 H 3.253908 -2.611342 5.296972 0
M  V30 37 H 4.837071 -2.654314 6.185190 0
M  V30 38 H 5.251974 -2.218367 3.875263 0
M  V30 39 H 5.667210 -0.777200 4.930721 0
M  V30 40 H 5.071757 -0.990465 2.016569 0
M  V30 41 H 3.604168 -2.018798 2.343566 0
M  V30 42 H 4.753878 1.087967 0.734975 0
M  V30 43 H 3.291219 2.338235 -0.763354 0
M  V30 44 H 1.068104 2.719906 -1.790433 0
M  V30 45 H -3.696605 2.842933 -0.381759 0
M  V30 46 H -5.941184 1.796395 -0.486136 0
M  V30 47 H -7.931481 0.371408 -0.747568 0
M  V30 48 H -5.382606 -2.723906 -2.170454 0
M  V30 49 H -1.569887 -2.633052 -1.642028 0
M  V30 50 H -2.063227 -4.117724 -3.247309 0
M  V30 51 H -3.521161 -4.149489 -2.361498 0
M  V30 52 H -3.359258 -3.839965 -5.082309 0
M  V30 53 H -4.475254 -2.637643 -4.363389 0
M  V30 54 H -1.998950 -2.137161 -5.635213 0
M  V30 55 H -3.028590 -0.938124 -4.714609 0
M  V30 56 H -0.771937 -2.744842 -3.735957 0
M  V30 57 H -0.916984 -0.989534 -3.489460 0
M  V30 58 H 1.296961 -1.214041 1.795680 0
M  V30 59 H 2.139237 -1.452498 4.015425 0
M  V30 60 H 2.107038 0.289011 3.633148 0
M  V30 61 H 1.572859 -0.563735 6.040124 0
M  V30 62 H 2.542676 0.911300 5.886422 0
M  V30 END ATOM
M  V30 BEGIN BOND
M  V30 1 1 1 2
M  V30 2 1 2 3
M  V30 3 1 3 4
M  V30 4 1 4 5
M  V30 5 1 5 6
M  V30 6 1 6 7
M  V30 7 2 7 8
M  V30 8 1 8 9
M  V30 9 2 9 10
M  V30 10 1 10 11
M  V30 11 1 11 12
M  V30 12 2 12 13
M  V30 13 1 13 14
M  V30 14 2 14 15
M  V30 15 1 15 16
M  V30 16 2 16 17
M  V30 17 1 17 18
M  V30 18 2 18 19
M  V30 19 1 19 20
M  V30 20 2 20 21
M  V30 21 1 21 22
M  V30 22 1 22 23
M  V30 23 1 23 24
M  V30 24 1 24 25
M  V30 25 1 25 26
M  V30 26 1 26 27
M  V30 27 1 22 28
M  V30 28 2 28 29
M  V30 29 1 10 30
M  V30 30 2 30 31
M  V30 31 1 5 32
M  V30 32 1 32 33
M  V30 33 1 33 2
M  V30 34 1 31 7
M  V30 35 1 29 12
M  V30 36 1 28 15
M  V30 37 1 21 16
M  V30 38 1 27 23
M  V30 39 1 1 34
M  V30 40 1 2 35
M  V30 41 1 3 36
M  V30 42 1 3 37
M  V30 43 1 4 38
M  V30 44 1 4 39
M  V30 45 1 6 40
M  V30 46 1 6 41
M  V30 47 1 8 42
M  V30 48 1 9 43
M  V30 49 1 11 44
M  V30 50 1 14 45
M  V30 51 1 17 46
M  V30 52 1 18 47
M  V30 53 1 20 48
M  V30 54 1 23 49
M  V30 55 1 24 50
M  V30 56 1 24 51
M  V30 57 1 25 52
M  V30 58 1 25 53
M  V30 59 1 26 54
M  V30 60 1 26 55
M  V30 61 1 27 56
M  V30 62 1 27 57
M  V30 63 1 31 58
M  V30 64 1 32 59
M  V30 65 1 32 60
M  V30 66 1 33 61
M  V30 67 1 33 62
M  V30 END BOND
M  V30 END CTAB
M  END
>  <Dataset>  (424) 
ChEMBL_Kinases

>  <Ligand_Instance>  (424) 
nan

>  <PDB_ID>  (424) 
nan

>  <Standardized_SMILES>  (424) 
OC1CCN(Cc2ccc(Nc3ncc4c5ccncc5n(C5CCCC5)c4n3)nc2)CC1

>  <Name>  (424) 
nan

>  <Pocket>  (424) 
nan

>  <ATP_Site>  (424) 
nan

>  <Peripheral>  (424) 
nan

>  <Num_H_Atoms_ProtBoundConf>  (424) 
nan

>  <Num_Resolved_Atoms>  (424) 
nan

>  <Num_Not_Resolved_Atoms>  (424) 
nan

$$$$
CHEMBL3691967
     RDKit          3D

  0  0  0  0  0  0  0  0  0  0999 V3000
M  V30 BEGIN CTAB
M  V30 COUNTS 78 82 0 0 0
M  V30 BEGIN ATOM
M  V30 1 C 2.967049 -0.740189 -4.247210 0
M  V30 2 C 3.773465 0.345729 -3.542112 0 CFG=1
M  V30 3 C 2.902022 1.515532 -3.240418 0
M  V30 4 C 2.762469 1.800742 -1.722711 0 CFG=1
M  V30 5 C 1.823336 2.919050 -1.576050 0
M  V30 6 C 1.867177 3.992473 -2.428386 0
M  V30 7 C 1.053555 5.097654 -2.458751 0
M  V30 8 N 0.084161 5.175748 -1.555858 0
M  V30 9 C -0.080156 4.203068 -0.658503 0
M  V30 10 C 0.761049 3.109125 -0.665165 0
M  V30 11 N 0.517798 2.165937 0.369644 0
M  V30 12 C 1.167538 2.203218 1.671812 0
M  V30 13 O 2.000897 3.076966 2.007608 0
M  V30 14 C 0.740028 1.091211 2.550545 0
M  V30 15 C 1.467992 0.942370 3.713278 0
M  V30 16 C 1.176188 -0.105332 4.563114 0
M  V30 17 C 0.143792 -0.985590 4.213388 0
M  V30 18 F -0.264545 -2.062467 4.934320 0
M  V30 19 C -0.569442 -0.819055 3.052510 0
M  V30 20 C -1.692402 -1.669079 2.651923 0
M  V30 21 C -2.768567 -1.304390 3.442049 0
M  V30 22 F -2.819439 -0.348415 4.433602 0
M  V30 23 C -4.022940 -1.913895 3.310736 0
M  V30 24 C -4.220379 -2.919676 2.363087 0
M  V30 25 O -5.386662 -3.616011 2.112248 0
M  V30 26 C -6.594869 -3.504281 2.801499 0
M  V30 27 C -7.727362 -3.028074 1.912953 0
M  V30 28 C -8.415580 -4.175809 1.223663 0
M  V30 29 O -7.718068 -5.356402 1.341439 0
M  V30 30 C -7.598564 -5.804055 2.634367 0
M  V30 31 C -6.943734 -4.801052 3.512606 0
M  V30 32 C -3.119880 -3.265017 1.583367 0
M  V30 33 C -1.887785 -2.663566 1.715665 0
M  V30 34 F -0.743857 -2.890892 1.036039 0
M  V30 35 N -0.239561 0.223670 2.259104 0
M  V30 36 C 2.291467 0.470701 -1.199327 0
M  V30 37 C 3.389457 -0.561585 -1.301036 0 CFG=1
M  V30 38 N 2.881012 -1.873272 -1.580588 0
M  V30 39 C 4.470557 -0.168767 -2.302471 0 CFG=1
M  V30 40 O 5.297825 -1.230698 -2.520725 0
M  V30 41 C 6.614339 -1.102642 -2.241321 0
M  V30 42 C 7.451128 -0.169839 -3.026173 0
M  V30 43 C 7.119062 1.221778 -3.019015 0
M  V30 44 N 6.867634 2.354431 -3.006763 0
M  V30 45 H 3.251961 -1.753450 -3.909573 0
M  V30 46 H 3.082280 -0.645439 -5.362589 0
M  V30 47 H 1.878239 -0.634316 -4.082009 0
M  V30 48 H 4.529025 0.684290 -4.303004 0
M  V30 49 H 3.245966 2.399956 -3.795003 0
M  V30 50 H 1.859983 1.272325 -3.548870 0
M  V30 51 H 3.789150 2.053945 -1.387851 0
M  V30 52 H 2.593309 4.132918 -3.235997 0
M  V30 53 H 1.086513 5.942171 -3.129462 0
M  V30 54 H -0.870430 4.274653 0.081322 0
M  V30 55 H -0.174599 1.511887 0.010373 0
M  V30 56 H 2.274100 1.620595 4.005773 0
M  V30 57 H 1.667633 -0.332210 5.495167 0
M  V30 58 H -4.892687 -1.660413 3.905762 0
M  V30 59 H -6.509018 -2.748324 3.602234 0
M  V30 60 H -8.480268 -2.478588 2.534253 0
M  V30 61 H -7.320714 -2.308816 1.192214 0
M  V30 62 H -8.558195 -3.938570 0.152365 0
M  V30 63 H -9.432583 -4.319470 1.646134 0
M  V30 64 H -7.002143 -6.740130 2.640679 0
M  V30 65 H -8.628307 -6.058469 2.990289 0
M  V30 66 H -7.596424 -4.641834 4.407437 0
M  V30 67 H -5.982711 -5.198869 3.944160 0
M  V30 68 H -3.149436 -4.020575 0.825899 0
M  V30 69 H 1.929918 0.413495 -0.191705 0
M  V30 70 H 1.462572 0.146917 -1.864878 0
M  V30 71 H 3.947444 -0.646535 -0.313655 0
M  V30 72 H 2.842437 -2.459426 -0.698144 0
M  V30 73 H 1.866759 -1.815235 -1.888451 0
M  V30 74 H 5.080512 0.643773 -1.881555 0
M  V30 75 H 7.120174 -2.122257 -2.320889 0
M  V30 76 H 6.716034 -0.802154 -1.154942 0
M  V30 77 H 8.502053 -0.234189 -2.581973 0
M  V30 78 H 7.629103 -0.517481 -4.079577 0
M  V30 END ATOM
M  V30 BEGIN BOND
M  V30 1 1 1 2
M  V30 2 1 2 3
M  V30 3 1 3 4
M  V30 4 1 4 5
M  V30 5 2 5 6
M  V30 6 1 6 7
M  V30 7 2 7 8
M  V30 8 1 8 9
M  V30 9 2 9 10
M  V30 10 1 10 11
M  V30 11 1 11 12
M  V30 12 2 12 13
M  V30 13 1 12 14
M  V30 14 2 14 15
M  V30 15 1 15 16
M  V30 16 2 16 17
M  V30 17 1 17 18
M  V30 18 1 17 19
M  V30 19 1 19 20
M  V30 20 2 20 21
M  V30 21 1 21 22
M  V30 22 1 21 23
M  V30 23 2 23 24
M  V30 24 1 24 25
M  V30 25 1 25 26
M  V30 26 1 26 27
M  V30 27 1 27 28
M  V30 28 1 28 29
M  V30 29 1 29 30
M  V30 30 1 30 31
M  V30 31 1 24 32
M  V30 32 2 32 33
M  V30 33 1 33 34
M  V30 34 2 19 35
M  V30 35 1 4 36
M  V30 36 1 36 37
M  V30 37 1 37 38
M  V30 38 1 37 39
M  V30 39 1 39 40
M  V30 40 1 40 41
M  V30 41 1 41 42
M  V30 42 1 42 43
M  V30 43 3 43 44
M  V30 44 1 39 2
M  V30 45 1 10 5
M  V30 46 1 35 14
M  V30 47 1 33 20
M  V30 48 1 31 26
M  V30 49 1 1 45
M  V30 50 1 1 46
M  V30 51 1 1 47
M  V30 52 1 2 48 CFG=3
M  V30 53 1 3 49
M  V30 54 1 3 50
M  V30 55 1 4 51 CFG=1
M  V30 56 1 6 52
M  V30 57 1 7 53
M  V30 58 1 9 54
M  V30 59 1 11 55
M  V30 60 1 15 56
M  V30 61 1 16 57
M  V30 62 1 23 58
M  V30 63 1 26 59
M  V30 64 1 27 60
M  V30 65 1 27 61
M  V30 66 1 28 62
M  V30 67 1 28 63
M  V30 68 1 30 64
M  V30 69 1 30 65
M  V30 70 1 31 66
M  V30 71 1 31 67
M  V30 72 1 32 68
M  V30 73 1 36 69
M  V30 74 1 36 70
M  V30 75 1 37 71 CFG=1
M  V30 76 1 38 72
M  V30 77 1 38 73
M  V30 78 1 39 74 CFG=1
M  V30 79 1 41 75
M  V30 80 1 41 76
M  V30 81 1 42 77
M  V30 82 1 42 78
M  V30 END BOND
M  V30 END CTAB
M  END
>  <Dataset>  (425) 
ChEMBL_Kinases

>  <Ligand_Instance>  (425) 
nan

>  <PDB_ID>  (425) 
nan

>  <Standardized_SMILES>  (425) 
C[C@H]1C[C@@H](c2ccncc2NC(=O)c2ccc(F)c(-c3c(F)cc(OC4CCOCC4)cc3F)n2)C[C@@H](N)[C@H]1OCCC#N

>  <Name>  (425) 
nan

>  <Pocket>  (425) 
nan

>  <ATP_Site>  (425) 
nan

>  <Peripheral>  (425) 
nan

>  <Num_H_Atoms_ProtBoundConf>  (425) 
nan

>  <Num_Resolved_Atoms>  (425) 
nan

>  <Num_Not_Resolved_Atoms>  (425) 
nan

$$$$
CHEMBL3691966
     RDKit          3D

  0  0  0  0  0  0  0  0  0  0999 V3000
M  V30 BEGIN CTAB
M  V30 COUNTS 71 75 0 0 0
M  V30 BEGIN ATOM
M  V30 1 C 3.901455 -3.735770 2.511076 0
M  V30 2 O 3.261163 -2.615326 1.954248 0
M  V30 3 C 3.295513 -2.362264 0.590592 0
M  V30 4 O 3.973478 -3.308959 0.116635 0
M  V30 5 N 2.699039 -1.275128 -0.123329 0
M  V30 6 C 2.918441 -1.292692 -1.563271 0 CFG=2
M  V30 7 C 3.721365 -0.057400 -1.909569 0 CFG=2
M  V30 8 N 4.872835 -0.051127 -1.015959 0
M  V30 9 C 2.973862 1.231313 -1.709261 0
M  V30 10 C 1.552367 1.166776 -2.226387 0 CFG=2
M  V30 11 C 0.907756 2.446304 -2.007412 0
M  V30 12 C 0.949009 3.472843 -2.963647 0
M  V30 13 C 0.349015 4.704703 -2.802317 0
M  V30 14 N -0.324499 4.992480 -1.690012 0
M  V30 15 C -0.400081 4.058417 -0.743267 0
M  V30 16 C 0.205588 2.824654 -0.914118 0
M  V30 17 N 0.037821 1.932957 0.179346 0
M  V30 18 C 0.790531 1.695905 1.388033 0
M  V30 19 O 1.835248 2.331933 1.674158 0
M  V30 20 C 0.212611 0.652383 2.227065 0
M  V30 21 C 0.885149 0.374991 3.398781 0
M  V30 22 C 0.422836 -0.594909 4.264517 0
M  V30 23 C -0.722129 -1.312525 3.983108 0
M  V30 24 F -1.287051 -2.285183 4.734957 0
M  V30 25 C -1.370581 -1.005677 2.796691 0
M  V30 26 C -2.591406 -1.627962 2.291236 0
M  V30 27 C -3.788009 -1.025545 2.678652 0
M  V30 28 F -3.791817 0.065402 3.472772 0
M  V30 29 C -5.004482 -1.531770 2.257937 0
M  V30 30 C -5.053540 -2.658106 1.435694 0
M  V30 31 C -6.346569 -3.242002 0.955183 0
M  V30 32 C -7.434839 -3.324129 1.991773 0
M  V30 33 O -8.309643 -2.539726 1.265764 0
M  V30 34 C -7.310229 -2.210290 0.383893 0
M  V30 35 C -3.848117 -3.255817 1.052054 0
M  V30 36 C -2.637930 -2.742825 1.477438 0
M  V30 37 F -1.449486 -3.301308 1.121762 0
M  V30 38 N -0.888468 -0.055312 1.981783 0
M  V30 39 C 0.838033 -0.065021 -1.811816 0
M  V30 40 C 1.646241 -1.223610 -2.362547 0 CFG=2
M  V30 41 C 0.867424 -2.510452 -2.359301 0
M  V30 42 H 4.984774 -3.475681 2.577802 0
M  V30 43 H 3.517079 -3.899427 3.543044 0
M  V30 44 H 3.724368 -4.668889 1.958950 0
M  V30 45 H 2.219297 -0.684374 0.577424 0
M  V30 46 H 3.544136 -2.168591 -1.848988 0
M  V30 47 H 4.082263 -0.208542 -2.942101 0
M  V30 48 H 5.420568 -0.932803 -1.091151 0
M  V30 49 H 5.486646 0.742567 -1.305865 0
M  V30 50 H 3.522470 2.005792 -2.284312 0
M  V30 51 H 3.037495 1.494603 -0.645088 0
M  V30 52 H 1.684330 1.074440 -3.350117 0
M  V30 53 H 1.482089 3.331382 -3.917656 0
M  V30 54 H 0.415324 5.456530 -3.575045 0
M  V30 55 H -0.958659 4.328050 0.152783 0
M  V30 56 H -0.833321 1.412296 -0.070459 0
M  V30 57 H 1.792906 0.907364 3.674276 0
M  V30 58 H 0.914793 -0.855549 5.204657 0
M  V30 59 H -5.943485 -1.064097 2.558125 0
M  V30 60 H -6.233047 -4.137445 0.309378 0
M  V30 61 H -7.850622 -4.335204 2.182724 0
M  V30 62 H -7.122073 -2.786406 2.920246 0
M  V30 63 H -7.555651 -2.346321 -0.689750 0
M  V30 64 H -6.928750 -1.195326 0.588652 0
M  V30 65 H -3.855148 -4.132200 0.413728 0
M  V30 66 H 0.750237 -0.255328 -0.743861 0
M  V30 67 H -0.129052 -0.106943 -2.355376 0
M  V30 68 H 1.904343 -0.947767 -3.395411 0
M  V30 69 H 0.146567 -2.466601 -3.201714 0
M  V30 70 H 0.314421 -2.600066 -1.403563 0
M  V30 71 H 1.545066 -3.355121 -2.554669 0
M  V30 END ATOM
M  V30 BEGIN BOND
M  V30 1 1 1 2
M  V30 2 1 2 3
M  V30 3 2 3 4
M  V30 4 1 3 5
M  V30 5 1 5 6
M  V30 6 1 6 7
M  V30 7 1 7 8
M  V30 8 1 7 9
M  V30 9 1 9 10
M  V30 10 1 10 11
M  V30 11 2 11 12
M  V30 12 1 12 13
M  V30 13 2 13 14
M  V30 14 1 14 15
M  V30 15 2 15 16
M  V30 16 1 16 17
M  V30 17 1 17 18
M  V30 18 2 18 19
M  V30 19 1 18 20
M  V30 20 2 20 21
M  V30 21 1 21 22
M  V30 22 2 22 23
M  V30 23 1 23 24
M  V30 24 1 23 25
M  V30 25 1 25 26
M  V30 26 2 26 27
M  V30 27 1 27 28
M  V30 28 1 27 29
M  V30 29 2 29 30
M  V30 30 1 30 31
M  V30 31 1 31 32
M  V30 32 1 32 33
M  V30 33 1 33 34
M  V30 34 1 30 35
M  V30 35 2 35 36
M  V30 36 1 36 37
M  V30 37 2 25 38
M  V30 38 1 10 39
M  V30 39 1 39 40
M  V30 40 1 40 41
M  V30 41 1 40 6
M  V30 42 1 16 11
M  V30 43 1 38 20
M  V30 44 1 36 26
M  V30 45 1 34 31
M  V30 46 1 1 42
M  V30 47 1 1 43
M  V30 48 1 1 44
M  V30 49 1 5 45
M  V30 50 1 6 46 CFG=1
M  V30 51 1 7 47 CFG=3
M  V30 52 1 8 48
M  V30 53 1 8 49
M  V30 54 1 9 50
M  V30 55 1 9 51
M  V30 56 1 10 52 CFG=3
M  V30 57 1 12 53
M  V30 58 1 13 54
M  V30 59 1 15 55
M  V30 60 1 17 56
M  V30 61 1 21 57
M  V30 62 1 22 58
M  V30 63 1 29 59
M  V30 64 1 31 60
M  V30 65 1 32 61
M  V30 66 1 32 62
M  V30 67 1 34 63
M  V30 68 1 34 64
M  V30 69 1 35 65
M  V30 70 1 39 66
M  V30 71 1 39 67
M  V30 72 1 40 68 CFG=3
M  V30 73 1 41 69
M  V30 74 1 41 70
M  V30 75 1 41 71
M  V30 END BOND
M  V30 END CTAB
M  END
>  <Dataset>  (426) 
ChEMBL_Kinases

>  <Ligand_Instance>  (426) 
nan

>  <PDB_ID>  (426) 
nan

>  <Standardized_SMILES>  (426) 
COC(=O)N[C@@H]1[C@H](N)C[C@H](c2ccncc2NC(=O)c2ccc(F)c(-c3c(F)cc(C4COC4)cc3F)n2)C[C@@H]1C

>  <Name>  (426) 
nan

>  <Pocket>  (426) 
nan

>  <ATP_Site>  (426) 
nan

>  <Peripheral>  (426) 
nan

>  <Num_H_Atoms_ProtBoundConf>  (426) 
nan

>  <Num_Resolved_Atoms>  (426) 
nan

>  <Num_Not_Resolved_Atoms>  (426) 
nan

$$$$
CHEMBL2407903
     RDKit          3D

  0  0  0  0  0  0  0  0  0  0999 V3000
M  V30 BEGIN CTAB
M  V30 COUNTS 33 35 0 0 0
M  V30 BEGIN ATOM
M  V30 1 C -0.128796 -5.123130 0.994177 0
M  V30 2 O -1.329122 -4.807241 0.328321 0
M  V30 3 C -1.527779 -3.515739 -0.120640 0
M  V30 4 C -0.606343 -2.511429 0.049247 0
M  V30 5 C -0.853160 -1.262987 -0.410766 0
M  V30 6 C -0.048865 -0.057890 -0.308781 0
M  V30 7 C 0.496141 0.513918 0.725388 0
M  V30 8 C 0.381112 0.004354 2.085059 0
M  V30 9 O -0.247281 -1.004962 2.446350 0
M  V30 10 N 1.135502 0.910720 2.883871 0
M  V30 11 C 1.685167 1.927250 2.054240 0
M  V30 12 C 2.475599 2.999231 2.411441 0
M  V30 13 C 2.930494 3.905439 1.464900 0
M  V30 14 C 2.557919 3.691054 0.138025 0
M  V30 15 Br 3.048540 4.782968 -1.340862 0
M  V30 16 C 1.767842 2.620775 -0.222867 0
M  V30 17 C 1.316201 1.717487 0.732964 0
M  V30 18 C -2.071358 -1.066427 -1.053225 0
M  V30 19 C -3.019275 -2.048090 -1.242501 0
M  V30 20 Cl -4.544144 -1.772816 -2.055391 0
M  V30 21 C -2.749227 -3.332963 -0.760301 0
M  V30 22 O -3.681225 -4.345047 -0.932936 0
M  V30 23 H 0.127937 -4.408732 1.817263 0
M  V30 24 H -0.300626 -6.094360 1.524240 0
M  V30 25 H 0.709875 -5.197000 0.267007 0
M  V30 26 H 0.328557 -2.699509 0.526973 0
M  V30 27 H 0.122471 0.444617 -1.276575 0
M  V30 28 H 1.218993 0.770413 3.924175 0
M  V30 29 H 2.793274 3.208384 3.437131 0
M  V30 30 H 3.550564 4.773615 1.637828 0
M  V30 31 H 1.429321 2.372880 -1.214166 0
M  V30 32 H -2.382066 -0.113099 -1.464528 0
M  V30 33 H -4.645262 -4.263751 -0.609950 0
M  V30 END ATOM
M  V30 BEGIN BOND
M  V30 1 1 1 2
M  V30 2 1 2 3
M  V30 3 2 3 4
M  V30 4 1 4 5
M  V30 5 1 5 6
M  V30 6 2 6 7
M  V30 7 1 7 8
M  V30 8 2 8 9
M  V30 9 1 8 10
M  V30 10 1 10 11
M  V30 11 2 11 12
M  V30 12 1 12 13
M  V30 13 2 13 14
M  V30 14 1 14 15
M  V30 15 1 14 16
M  V30 16 2 16 17
M  V30 17 2 5 18
M  V30 18 1 18 19
M  V30 19 1 19 20
M  V30 20 2 19 21
M  V30 21 1 21 22
M  V30 22 1 21 3
M  V30 23 1 17 7
M  V30 24 1 17 11
M  V30 25 1 1 23
M  V30 26 1 1 24
M  V30 27 1 1 25
M  V30 28 1 4 26
M  V30 29 1 6 27
M  V30 30 1 10 28
M  V30 31 1 12 29
M  V30 32 1 13 30
M  V30 33 1 16 31
M  V30 34 1 18 32
M  V30 35 1 22 33
M  V30 END BOND
M  V30 END CTAB
M  END
>  <Dataset>  (427) 
ChEMBL_Kinases

>  <Ligand_Instance>  (427) 
nan

>  <PDB_ID>  (427) 
nan

>  <Standardized_SMILES>  (427) 
COc1cc(/C=C2\C(=O)Nc3ccc(Br)cc32)cc(Cl)c1O

>  <Name>  (427) 
nan

>  <Pocket>  (427) 
nan

>  <ATP_Site>  (427) 
nan

>  <Peripheral>  (427) 
nan

>  <Num_H_Atoms_ProtBoundConf>  (427) 
nan

>  <Num_Resolved_Atoms>  (427) 
nan

>  <Num_Not_Resolved_Atoms>  (427) 
nan

$$$$
CHEMBL218219
     RDKit          3D

  0  0  0  0  0  0  0  0  0  0999 V3000
M  V30 BEGIN CTAB
M  V30 COUNTS 46 47 0 0 0
M  V30 BEGIN ATOM
M  V30 1 C -0.412624 -6.596689 0.494135 0
M  V30 2 S -1.246287 -6.233771 -1.028719 0
M  V30 3 O -0.444331 -6.894101 -2.140284 0
M  V30 4 O -2.631286 -6.796694 -1.074187 0
M  V30 5 C -1.289797 -4.508434 -1.341557 0
M  V30 6 C -0.345068 -3.829578 -2.079262 0
M  V30 7 C -0.447128 -2.468776 -2.273894 0
M  V30 8 C -1.521860 -1.816284 -1.706834 0
M  V30 9 C -1.757721 -0.362078 -1.839277 0
M  V30 10 N -1.034464 0.285348 -0.732818 0
M  V30 11 C -1.139617 1.691348 -0.451816 0
M  V30 12 O -1.871654 2.404569 -1.165082 0
M  V30 13 C -0.323004 2.193034 0.724031 0
M  V30 14 C -0.538028 3.542410 0.873833 0
M  V30 15 C 0.159455 4.086903 1.913717 0
M  V30 16 N 0.270036 5.382498 2.457032 0
M  V30 17 C 0.865591 3.110357 2.492604 0
M  V30 18 C 1.686977 3.475181 3.731655 0
M  V30 19 N 2.336237 3.787195 4.718762 0
M  V30 20 C 1.259431 1.907002 2.610661 0
M  V30 21 N 1.697642 0.567903 2.741974 0
M  V30 22 C 2.719154 0.415334 3.764007 0
M  V30 23 C 4.098597 0.771439 3.328280 0
M  V30 24 O 4.323621 2.045552 2.892846 0
M  V30 25 N 0.478845 1.453699 1.496338 0
M  V30 26 C -2.487595 -2.478710 -0.958877 0
M  V30 27 C -2.374280 -3.860152 -0.767985 0
M  V30 28 H 0.676818 -6.803159 0.329620 0
M  V30 29 H -0.834801 -7.494764 0.973834 0
M  V30 30 H -0.463811 -5.724146 1.190097 0
M  V30 31 H 0.467451 -4.411539 -2.493474 0
M  V30 32 H 0.283984 -1.912013 -2.851139 0
M  V30 33 H -1.275515 -0.015314 -2.786635 0
M  V30 34 H -2.809959 -0.084690 -1.775982 0
M  V30 35 H -0.398523 -0.284354 -0.095253 0
M  V30 36 H -1.136582 4.266372 0.351102 0
M  V30 37 H 1.064850 5.867800 1.993281 0
M  V30 38 H -0.285515 5.883993 3.200971 0
M  V30 39 H 1.616152 -0.384635 2.425400 0
M  V30 40 H 2.439918 1.039862 4.660590 0
M  V30 41 H 2.755748 -0.628364 4.131670 0
M  V30 42 H 4.816788 0.536508 4.173530 0
M  V30 43 H 4.461808 0.072050 2.512765 0
M  V30 44 H 3.967655 2.088237 1.949213 0
M  V30 45 H -3.335226 -1.982024 -0.508828 0
M  V30 46 H -3.153789 -4.350791 -0.172144 0
M  V30 END ATOM
M  V30 BEGIN BOND
M  V30 1 1 1 2
M  V30 2 2 2 3
M  V30 3 2 2 4
M  V30 4 1 2 5
M  V30 5 2 5 6
M  V30 6 1 6 7
M  V30 7 2 7 8
M  V30 8 1 8 9
M  V30 9 1 9 10
M  V30 10 1 10 11
M  V30 11 2 11 12
M  V30 12 1 11 13
M  V30 13 2 13 14
M  V30 14 1 14 15
M  V30 15 1 15 16
M  V30 16 2 15 17
M  V30 17 1 17 18
M  V30 18 3 18 19
M  V30 19 1 17 20
M  V30 20 1 20 21
M  V30 21 1 21 22
M  V30 22 1 22 23
M  V30 23 1 23 24
M  V30 24 2 20 25
M  V30 25 1 8 26
M  V30 26 2 26 27
M  V30 27 1 27 5
M  V30 28 1 25 13
M  V30 29 1 1 28
M  V30 30 1 1 29
M  V30 31 1 1 30
M  V30 32 1 6 31
M  V30 33 1 7 32
M  V30 34 1 9 33
M  V30 35 1 9 34
M  V30 36 1 10 35
M  V30 37 1 14 36
M  V30 38 1 16 37
M  V30 39 1 16 38
M  V30 40 1 21 39
M  V30 41 1 22 40
M  V30 42 1 22 41
M  V30 43 1 23 42
M  V30 44 1 23 43
M  V30 45 1 24 44
M  V30 46 1 26 45
M  V30 47 1 27 46
M  V30 END BOND
M  V30 END CTAB
M  END
>  <Dataset>  (428) 
ChEMBL_Kinases

>  <Ligand_Instance>  (428) 
nan

>  <PDB_ID>  (428) 
nan

>  <Standardized_SMILES>  (428) 
CS(=O)(=O)c1ccc(CNC(=O)c2cc(N)c(C#N)c(NCCO)n2)cc1

>  <Name>  (428) 
nan

>  <Pocket>  (428) 
nan

>  <ATP_Site>  (428) 
nan

>  <Peripheral>  (428) 
nan

>  <Num_H_Atoms_ProtBoundConf>  (428) 
nan

>  <Num_Resolved_Atoms>  (428) 
nan

>  <Num_Not_Resolved_Atoms>  (428) 
nan

$$$$
CHEMBL4452981
     RDKit          3D

  0  0  0  0  0  0  0  0  0  0999 V3000
M  V30 BEGIN CTAB
M  V30 COUNTS 52 55 0 0 0
M  V30 BEGIN ATOM
M  V30 1 C 5.134518 -2.642063 2.258549 0
M  V30 2 C 5.870015 -1.340319 2.495623 0
M  V30 3 N 5.054208 -0.398099 3.236968 0
M  V30 4 N 4.937485 -0.199804 4.538828 0
M  V30 5 C 4.047534 0.792812 4.741760 0
M  V30 6 C 3.570562 1.254549 3.536210 0
M  V30 7 C 4.229912 0.476713 2.589017 0
M  V30 8 N 4.050189 0.607038 1.183103 0
M  V30 9 C 3.132813 1.568787 0.635207 0
M  V30 10 N 3.410027 2.869933 0.336081 0
M  V30 11 C 2.410115 3.632847 -0.181138 0
M  V30 12 C 1.144349 3.118228 -0.403100 0
M  V30 13 C 0.878742 1.813235 -0.099631 0
M  V30 14 C -0.410928 1.160348 -0.291548 0
M  V30 15 C -0.522039 -0.168218 0.060207 0
M  V30 16 C -1.670746 -0.919375 -0.061706 0
M  V30 17 N -2.755771 -0.264447 -0.571553 0
M  V30 18 C -4.007849 -0.979875 -0.732934 0 CFG=2
M  V30 19 C -5.049475 -0.589486 0.284942 0
M  V30 20 O -6.238130 -1.324011 0.067718 0
M  V30 21 C -3.845472 -2.435250 -0.857626 0
M  V30 22 C -3.692171 -3.145988 -2.036033 0
M  V30 23 C -3.545122 -4.526326 -2.041966 0
M  V30 24 C -3.553493 -5.201338 -0.825210 0
M  V30 25 Cl -3.365888 -6.943396 -0.855288 0
M  V30 26 C -3.704373 -4.519780 0.364065 0
M  V30 27 F -3.702131 -5.249303 1.507198 0
M  V30 28 C -3.849095 -3.140841 0.335247 0
M  V30 29 C -2.671348 1.032686 -0.922082 0
M  V30 30 O -3.691459 1.612560 -1.391169 0
M  V30 31 C -1.517708 1.800941 -0.803869 0
M  V30 32 N 1.896953 1.098609 0.409077 0
M  V30 33 H 5.265550 -3.380619 3.068646 0
M  V30 34 H 4.037461 -2.479714 2.162319 0
M  V30 35 H 5.476181 -3.116520 1.316586 0
M  V30 36 H 6.206896 -0.874639 1.553435 0
M  V30 37 H 6.779535 -1.610879 3.088910 0
M  V30 38 H 3.669460 1.258751 5.658310 0
M  V30 39 H 2.845507 2.042574 3.308886 0
M  V30 40 H 4.585092 0.001666 0.522846 0
M  V30 41 H 2.664535 4.656387 -0.405023 0
M  V30 42 H 0.357181 3.728093 -0.813103 0
M  V30 43 H 0.335296 -0.710857 0.470092 0
M  V30 44 H -1.695155 -1.959154 0.231773 0
M  V30 45 H -4.433847 -0.645057 -1.725240 0
M  V30 46 H -4.771725 -0.777263 1.319102 0
M  V30 47 H -5.285268 0.478135 0.155205 0
M  V30 48 H -6.105691 -1.934061 -0.713641 0
M  V30 49 H -3.695222 -2.550703 -2.940857 0
M  V30 50 H -3.430506 -5.017660 -2.989219 0
M  V30 51 H -3.960423 -2.689456 1.293677 0
M  V30 52 H -1.454740 2.833067 -1.083962 0
M  V30 END ATOM
M  V30 BEGIN BOND
M  V30 1 1 1 2
M  V30 2 1 2 3
M  V30 3 1 3 4
M  V30 4 2 4 5
M  V30 5 1 5 6
M  V30 6 2 6 7
M  V30 7 1 7 8
M  V30 8 1 8 9
M  V30 9 2 9 10
M  V30 10 1 10 11
M  V30 11 2 11 12
M  V30 12 1 12 13
M  V30 13 1 13 14
M  V30 14 1 14 15
M  V30 15 2 15 16
M  V30 16 1 16 17
M  V30 17 1 17 18
M  V30 18 1 18 19
M  V30 19 1 19 20
M  V30 20 1 18 21
M  V30 21 2 21 22
M  V30 22 1 22 23
M  V30 23 2 23 24
M  V30 24 1 24 25
M  V30 25 1 24 26
M  V30 26 1 26 27
M  V30 27 2 26 28
M  V30 28 1 17 29
M  V30 29 2 29 30
M  V30 30 1 29 31
M  V30 31 2 13 32
M  V30 32 1 7 3
M  V30 33 1 32 9
M  V30 34 2 31 14
M  V30 35 1 28 21
M  V30 36 1 1 33
M  V30 37 1 1 34
M  V30 38 1 1 35
M  V30 39 1 2 36
M  V30 40 1 2 37
M  V30 41 1 5 38
M  V30 42 1 6 39
M  V30 43 1 8 40
M  V30 44 1 11 41
M  V30 45 1 12 42
M  V30 46 1 15 43
M  V30 47 1 16 44
M  V30 48 1 18 45 CFG=3
M  V30 49 1 19 46
M  V30 50 1 19 47
M  V30 51 1 20 48
M  V30 52 1 22 49
M  V30 53 1 23 50
M  V30 54 1 28 51
M  V30 55 1 31 52
M  V30 END BOND
M  V30 END CTAB
M  END
>  <Dataset>  (429) 
ChEMBL_Kinases

>  <Ligand_Instance>  (429) 
nan

>  <PDB_ID>  (429) 
nan

>  <Standardized_SMILES>  (429) 
CCn1nccc1Nc1nccc(-c2ccn([C@H](CO)c3ccc(Cl)c(F)c3)c(=O)c2)n1

>  <Name>  (429) 
nan

>  <Pocket>  (429) 
nan

>  <ATP_Site>  (429) 
nan

>  <Peripheral>  (429) 
nan

>  <Num_H_Atoms_ProtBoundConf>  (429) 
nan

>  <Num_Resolved_Atoms>  (429) 
nan

>  <Num_Not_Resolved_Atoms>  (429) 
nan

$$$$
CHEMBL2407907
     RDKit          3D

  0  0  0  0  0  0  0  0  0  0999 V3000
M  V30 BEGIN CTAB
M  V30 COUNTS 29 31 0 0 0
M  V30 BEGIN ATOM
M  V30 1 O 1.281478 -2.399407 1.810052 0
M  V30 2 C 1.307250 -1.838189 0.689860 0
M  V30 3 N 2.132373 -2.194653 -0.402925 0
M  V30 4 C 1.836266 -1.300648 -1.479584 0
M  V30 5 C 2.398828 -1.266217 -2.758494 0
M  V30 6 C 1.967954 -0.311111 -3.662634 0
M  V30 7 C 0.987606 0.592777 -3.283862 0
M  V30 8 C 0.419654 0.566164 -2.008303 0
M  V30 9 C 0.861196 -0.388094 -1.128767 0
M  V30 10 C 0.512389 -0.713099 0.247702 0
M  V30 11 C -0.342055 -0.118232 1.024227 0
M  V30 12 C -0.740193 -0.327263 2.399983 0
M  V30 13 C -2.096859 -0.609930 2.591827 0
M  V30 14 C -2.704662 -0.809198 3.813351 0
M  V30 15 C -1.908942 -0.722366 4.935537 0
M  V30 16 C -0.565292 -0.445541 4.808337 0
M  V30 17 C -0.007764 -0.253981 3.563649 0
M  V30 18 O 1.333498 0.028135 3.462272 0
M  V30 19 H 2.815758 -2.983625 -0.361307 0
M  V30 20 H 3.171024 -2.000051 -3.014847 0
M  V30 21 H 2.431781 -0.324298 -4.637266 0
M  V30 22 H 0.664513 1.336795 -4.015261 0
M  V30 23 H -0.344864 1.271127 -1.713026 0
M  V30 24 H -0.897699 0.724312 0.580968 0
M  V30 25 H -2.781562 -0.691447 1.732311 0
M  V30 26 H -3.760784 -1.024800 3.893118 0
M  V30 27 H -2.303910 -0.865615 5.933990 0
M  V30 28 H 0.084010 -0.371178 5.670143 0
M  V30 29 H 1.971905 -0.612769 3.957644 0
M  V30 END ATOM
M  V30 BEGIN BOND
M  V30 1 2 1 2
M  V30 2 1 2 3
M  V30 3 1 3 4
M  V30 4 2 4 5
M  V30 5 1 5 6
M  V30 6 2 6 7
M  V30 7 1 7 8
M  V30 8 2 8 9
M  V30 9 1 9 10
M  V30 10 2 10 11
M  V30 11 1 11 12
M  V30 12 2 12 13
M  V30 13 1 13 14
M  V30 14 2 14 15
M  V30 15 1 15 16
M  V30 16 2 16 17
M  V30 17 1 17 18
M  V30 18 1 10 2
M  V30 19 1 17 12
M  V30 20 1 9 4
M  V30 21 1 3 19
M  V30 22 1 5 20
M  V30 23 1 6 21
M  V30 24 1 7 22
M  V30 25 1 8 23
M  V30 26 1 11 24
M  V30 27 1 13 25
M  V30 28 1 14 26
M  V30 29 1 15 27
M  V30 30 1 16 28
M  V30 31 1 18 29
M  V30 END BOND
M  V30 END CTAB
M  END
>  <Dataset>  (430) 
ChEMBL_Kinases

>  <Ligand_Instance>  (430) 
nan

>  <PDB_ID>  (430) 
nan

>  <Standardized_SMILES>  (430) 
O=C1Nc2ccccc2/C1=C/c1ccccc1O

>  <Name>  (430) 
nan

>  <Pocket>  (430) 
nan

>  <ATP_Site>  (430) 
nan

>  <Peripheral>  (430) 
nan

>  <Num_H_Atoms_ProtBoundConf>  (430) 
nan

>  <Num_Resolved_Atoms>  (430) 
nan

>  <Num_Not_Resolved_Atoms>  (430) 
nan

$$$$
CHEMBL3691965
     RDKit          3D

  0  0  0  0  0  0  0  0  0  0999 V3000
M  V30 BEGIN CTAB
M  V30 COUNTS 64 68 0 0 0
M  V30 BEGIN ATOM
M  V30 1 C 5.837599 -0.210781 4.535302 0
M  V30 2 C 5.066639 0.104481 3.281337 0
M  V30 3 C 4.576792 -0.940079 2.525938 0
M  V30 4 C 3.855838 -0.715760 1.355563 0
M  V30 5 F 3.329828 -1.636336 0.537927 0
M  V30 6 C 3.643857 0.591694 0.970167 0
M  V30 7 C 2.918945 1.075701 -0.214977 0
M  V30 8 N 1.614827 1.265798 0.027421 0
M  V30 9 C 0.737054 1.704374 -0.892922 0
M  V30 10 C -0.687861 1.921249 -0.659800 0
M  V30 11 O -1.444188 2.334080 -1.576301 0
M  V30 12 N -1.122918 1.622751 0.685524 0
M  V30 13 C -2.412733 1.707585 1.280446 0
M  V30 14 C -2.756663 2.928028 1.825973 0
M  V30 15 N -3.958182 3.098237 2.412591 0
M  V30 16 C -4.794600 2.055543 2.446728 0
M  V30 17 C -4.439825 0.859109 1.904322 0
M  V30 18 C -3.215508 0.588308 1.275415 0
M  V30 19 C -2.930849 -0.722028 0.737992 0 CFG=1
M  V30 20 C -3.367277 -0.777835 -0.709984 0
M  V30 21 C -3.156846 -2.127261 -1.320733 0 CFG=1
M  V30 22 N -2.323575 -2.079126 -2.478156 0
M  V30 23 C -2.762630 -3.136995 -0.282585 0 CFG=1
M  V30 24 N -2.532371 -4.455931 -0.795927 0
M  V30 25 C -1.715322 -4.714770 -1.831776 0
M  V30 26 C -1.746328 -6.077614 -2.035871 0
M  V30 27 N -2.573013 -6.619447 -1.130349 0
M  V30 28 N -3.028057 -5.617502 -0.401347 0
M  V30 29 C -1.618127 -2.749242 0.597831 0 CFG=1
M  V30 30 C -0.273686 -3.260509 0.113059 0
M  V30 31 C -1.533381 -1.225073 0.786544 0
M  V30 32 C 1.248330 1.956548 -2.127715 0
M  V30 33 C 2.581876 1.778637 -2.433133 0
M  V30 34 C 3.453423 1.327151 -1.463345 0
M  V30 35 F 4.782454 1.098970 -1.590344 0
M  V30 36 C 4.131285 1.650582 1.721180 0
M  V30 37 F 3.985503 2.966178 1.442336 0
M  V30 38 C 4.849144 1.414300 2.886959 0
M  V30 39 H 5.779628 0.657020 5.211741 0
M  V30 40 H 5.326277 -1.057404 5.078522 0
M  V30 41 H 6.853668 -0.524418 4.277460 0
M  V30 42 H 4.718380 -1.979996 2.789198 0
M  V30 43 H -0.458500 1.282727 1.416002 0
M  V30 44 H -2.069730 3.772181 1.793933 0
M  V30 45 H -5.756476 2.201420 2.919228 0
M  V30 46 H -5.196559 0.063285 1.982740 0
M  V30 47 H -3.539944 -1.453250 1.358877 0
M  V30 48 H -4.401683 -0.393003 -0.815523 0
M  V30 49 H -2.727421 -0.063585 -1.264571 0
M  V30 50 H -4.173126 -2.464856 -1.682805 0
M  V30 51 H -2.741951 -2.577852 -3.320116 0
M  V30 52 H -2.023000 -1.117147 -2.772131 0
M  V30 53 H -3.673332 -3.234113 0.382005 0
M  V30 54 H -1.096459 -4.109248 -2.473653 0
M  V30 55 H -1.240585 -6.709663 -2.760673 0
M  V30 56 H -1.772095 -3.261639 1.571213 0
M  V30 57 H 0.054939 -2.792920 -0.834026 0
M  V30 58 H 0.460198 -2.960304 0.918086 0
M  V30 59 H -0.268930 -4.354036 0.129137 0
M  V30 60 H -0.997229 -1.074896 1.740295 0
M  V30 61 H -0.955681 -0.886530 -0.112090 0
M  V30 62 H 0.604844 2.316246 -2.935576 0
M  V30 63 H 3.022232 1.967773 -3.398626 0
M  V30 64 H 5.263547 2.185812 3.529777 0
M  V30 END ATOM
M  V30 BEGIN BOND
M  V30 1 1 1 2
M  V30 2 2 2 3
M  V30 3 1 3 4
M  V30 4 1 4 5
M  V30 5 2 4 6
M  V30 6 1 6 7
M  V30 7 2 7 8
M  V30 8 1 8 9
M  V30 9 1 9 10
M  V30 10 2 10 11
M  V30 11 1 10 12
M  V30 12 1 12 13
M  V30 13 2 13 14
M  V30 14 1 14 15
M  V30 15 2 15 16
M  V30 16 1 16 17
M  V30 17 2 17 18
M  V30 18 1 18 19
M  V30 19 1 19 20
M  V30 20 1 20 21
M  V30 21 1 21 22
M  V30 22 1 21 23
M  V30 23 1 23 24
M  V30 24 1 24 25
M  V30 25 2 25 26
M  V30 26 1 26 27
M  V30 27 2 27 28
M  V30 28 1 23 29
M  V30 29 1 29 30
M  V30 30 1 29 31
M  V30 31 2 9 32
M  V30 32 1 32 33
M  V30 33 2 33 34
M  V30 34 1 34 35
M  V30 35 1 6 36
M  V30 36 1 36 37
M  V30 37 2 36 38
M  V30 38 1 38 2
M  V30 39 1 34 7
M  V30 40 1 18 13
M  V30 41 1 31 19
M  V30 42 1 28 24
M  V30 43 1 1 39
M  V30 44 1 1 40
M  V30 45 1 1 41
M  V30 46 1 3 42
M  V30 47 1 12 43
M  V30 48 1 14 44
M  V30 49 1 16 45
M  V30 50 1 17 46
M  V30 51 1 19 47 CFG=1
M  V30 52 1 20 48
M  V30 53 1 20 49
M  V30 54 1 21 50 CFG=3
M  V30 55 1 22 51
M  V30 56 1 22 52
M  V30 57 1 23 53 CFG=1
M  V30 58 1 25 54
M  V30 59 1 26 55
M  V30 60 1 29 56 CFG=1
M  V30 61 1 30 57
M  V30 62 1 30 58
M  V30 63 1 30 59
M  V30 64 1 31 60
M  V30 65 1 31 61
M  V30 66 1 32 62
M  V30 67 1 33 63
M  V30 68 1 38 64
M  V30 END BOND
M  V30 END CTAB
M  END
>  <Dataset>  (431) 
ChEMBL_Kinases

>  <Ligand_Instance>  (431) 
nan

>  <PDB_ID>  (431) 
nan

>  <Standardized_SMILES>  (431) 
Cc1cc(F)c(-c2nc(C(=O)Nc3cnccc3[C@H]3C[C@@H](N)[C@@H](n4ccnn4)[C@@H](C)C3)ccc2F)c(F)c1

>  <Name>  (431) 
nan

>  <Pocket>  (431) 
nan

>  <ATP_Site>  (431) 
nan

>  <Peripheral>  (431) 
nan

>  <Num_H_Atoms_ProtBoundConf>  (431) 
nan

>  <Num_Resolved_Atoms>  (431) 
nan

>  <Num_Not_Resolved_Atoms>  (431) 
nan

$$$$
CHEMBL3691964
     RDKit          3D

  0  0  0  0  0  0  0  0  0  0999 V3000
M  V30 BEGIN CTAB
M  V30 COUNTS 66 69 0 0 0
M  V30 BEGIN ATOM
M  V30 1 C 4.518398 -4.129262 2.307705 0
M  V30 2 O 3.365520 -3.351854 2.110734 0
M  V30 3 C 3.345155 -2.167899 1.377223 0
M  V30 4 O 4.462934 -1.840192 0.893328 0
M  V30 5 N 2.150594 -1.378208 1.184169 0
M  V30 6 C 2.259855 -0.146458 0.383274 0 CFG=2
M  V30 7 C 1.746716 1.016074 1.139534 0 CFG=2
M  V30 8 N 0.543760 0.719705 1.875574 0
M  V30 9 C 1.742477 2.231504 0.310992 0
M  V30 10 C 1.181482 2.168835 -1.079961 0 CFG=2
M  V30 11 C 0.186919 3.235748 -1.182816 0
M  V30 12 C 0.568767 4.523222 -1.640621 0
M  V30 13 C -0.218196 5.622437 -1.805863 0
M  V30 14 N -1.523482 5.493133 -1.503559 0
M  V30 15 C -1.940529 4.299595 -1.065514 0
M  V30 16 C -1.176258 3.171094 -0.886478 0
M  V30 17 N -1.713286 1.978034 -0.427383 0
M  V30 18 C -3.056684 1.633302 -0.137393 0
M  V30 19 O -3.962777 2.513802 -0.305882 0
M  V30 20 C -3.567926 0.353467 0.347102 0
M  V30 21 C -4.911857 0.154216 0.566257 0
M  V30 22 C -5.437038 -1.036878 1.014183 0
M  V30 23 C -4.618668 -2.113054 1.271669 0
M  V30 24 F -5.024432 -3.326492 1.716281 0
M  V30 25 C -3.275122 -1.912738 1.052713 0
M  V30 26 C -2.278294 -2.954608 1.280036 0
M  V30 27 C -1.608750 -3.269661 2.461506 0
M  V30 28 F -1.965644 -2.493212 3.512899 0
M  V30 29 C -0.681645 -4.289806 2.499395 0
M  V30 30 C -0.395380 -5.023087 1.366902 0
M  V30 31 C 0.607562 -6.127364 1.397650 0
M  V30 32 C -1.030200 -4.752545 0.171680 0
M  V30 33 C -1.954080 -3.727073 0.158395 0
M  V30 34 F -2.539993 -3.515743 -1.051998 0
M  V30 35 N -2.842062 -0.726233 0.616175 0
M  V30 36 C 1.020445 0.844993 -1.592500 0
M  V30 37 C 1.451776 -0.365952 -0.852515 0 CFG=2
M  V30 38 C 0.318441 -1.342353 -0.578331 0
M  V30 39 H 4.393183 -4.750760 3.236853 0
M  V30 40 H 5.398180 -3.470775 2.470571 0
M  V30 41 H 4.660480 -4.875866 1.503071 0
M  V30 42 H 1.332125 -1.803396 1.657581 0
M  V30 43 H 3.339704 -0.054987 0.119898 0
M  V30 44 H 2.515549 1.216247 1.960084 0
M  V30 45 H 0.169406 1.503329 2.413652 0
M  V30 46 H 0.808446 -0.024810 2.586143 0
M  V30 47 H 2.808688 2.619459 0.313524 0
M  V30 48 H 1.221315 3.021061 0.932353 0
M  V30 49 H 2.062832 2.628891 -1.689381 0
M  V30 50 H 1.621775 4.726162 -1.913272 0
M  V30 51 H 0.192157 6.576887 -2.172203 0
M  V30 52 H -3.000446 4.377027 -0.873090 0
M  V30 53 H -1.162624 1.123138 -0.211831 0
M  V30 54 H -5.630450 0.963582 0.384924 0
M  V30 55 H -6.500726 -1.162233 1.178175 0
M  V30 56 H -0.196389 -4.486952 3.445481 0
M  V30 57 H 0.270989 -6.967805 0.777202 0
M  V30 58 H 1.559192 -5.712924 0.951209 0
M  V30 59 H 0.833301 -6.350428 2.440536 0
M  V30 60 H -0.785348 -5.341329 -0.704163 0
M  V30 61 H 0.026748 0.562542 -2.067576 0
M  V30 62 H 1.633778 0.797821 -2.574216 0
M  V30 63 H 2.150073 -0.978605 -1.507273 0
M  V30 64 H 0.682448 -2.362483 -0.712773 0
M  V30 65 H -0.456933 -1.152001 -1.348286 0
M  V30 66 H -0.139169 -1.163584 0.415486 0
M  V30 END ATOM
M  V30 BEGIN BOND
M  V30 1 1 1 2
M  V30 2 1 2 3
M  V30 3 2 3 4
M  V30 4 1 3 5
M  V30 5 1 5 6
M  V30 6 1 6 7
M  V30 7 1 7 8
M  V30 8 1 7 9
M  V30 9 1 9 10
M  V30 10 1 10 11
M  V30 11 2 11 12
M  V30 12 1 12 13
M  V30 13 2 13 14
M  V30 14 1 14 15
M  V30 15 2 15 16
M  V30 16 1 16 17
M  V30 17 1 17 18
M  V30 18 2 18 19
M  V30 19 1 18 20
M  V30 20 2 20 21
M  V30 21 1 21 22
M  V30 22 2 22 23
M  V30 23 1 23 24
M  V30 24 1 23 25
M  V30 25 1 25 26
M  V30 26 2 26 27
M  V30 27 1 27 28
M  V30 28 1 27 29
M  V30 29 2 29 30
M  V30 30 1 30 31
M  V30 31 1 30 32
M  V30 32 2 32 33
M  V30 33 1 33 34
M  V30 34 2 25 35
M  V30 35 1 10 36
M  V30 36 1 36 37
M  V30 37 1 37 38
M  V30 38 1 37 6
M  V30 39 1 16 11
M  V30 40 1 35 20
M  V30 41 1 33 26
M  V30 42 1 1 39
M  V30 43 1 1 40
M  V30 44 1 1 41
M  V30 45 1 5 42
M  V30 46 1 6 43 CFG=3
M  V30 47 1 7 44 CFG=1
M  V30 48 1 8 45
M  V30 49 1 8 46
M  V30 50 1 9 47
M  V30 51 1 9 48
M  V30 52 1 10 49 CFG=3
M  V30 53 1 12 50
M  V30 54 1 13 51
M  V30 55 1 15 52
M  V30 56 1 17 53
M  V30 57 1 21 54
M  V30 58 1 22 55
M  V30 59 1 29 56
M  V30 60 1 31 57
M  V30 61 1 31 58
M  V30 62 1 31 59
M  V30 63 1 32 60
M  V30 64 1 36 61
M  V30 65 1 36 62
M  V30 66 1 37 63 CFG=3
M  V30 67 1 38 64
M  V30 68 1 38 65
M  V30 69 1 38 66
M  V30 END BOND
M  V30 END CTAB
M  END
>  <Dataset>  (432) 
ChEMBL_Kinases

>  <Ligand_Instance>  (432) 
nan

>  <PDB_ID>  (432) 
nan

>  <Standardized_SMILES>  (432) 
COC(=O)N[C@@H]1[C@H](N)C[C@H](c2ccncc2NC(=O)c2ccc(F)c(-c3c(F)cc(C)cc3F)n2)C[C@@H]1C

>  <Name>  (432) 
nan

>  <Pocket>  (432) 
nan

>  <ATP_Site>  (432) 
nan

>  <Peripheral>  (432) 
nan

>  <Num_H_Atoms_ProtBoundConf>  (432) 
nan

>  <Num_Resolved_Atoms>  (432) 
nan

>  <Num_Not_Resolved_Atoms>  (432) 
nan

$$$$
CHEMBL3691963
     RDKit          3D

  0  0  0  0  0  0  0  0  0  0999 V3000
M  V30 BEGIN CTAB
M  V30 COUNTS 76 81 0 0 0
M  V30 BEGIN ATOM
M  V30 1 C 5.170866 -2.057821 -2.610662 0
M  V30 2 C 3.936431 -1.286834 -2.257577 0 CFG=1
M  V30 3 C 2.694626 -1.915382 -2.801811 0
M  V30 4 C 1.852361 -2.491062 -1.700467 0 CFG=1
M  V30 5 C 0.825949 -3.433572 -2.196128 0
M  V30 6 C 1.002541 -4.794265 -2.360646 0
M  V30 7 C 0.025239 -5.627675 -2.822467 0
M  V30 8 N -1.193406 -5.131976 -3.146517 0
M  V30 9 C -1.410397 -3.813233 -3.002327 0
M  V30 10 C -0.423998 -2.961179 -2.534403 0
M  V30 11 N -0.803957 -1.595200 -2.435403 0
M  V30 12 C -0.787656 -0.439540 -3.262837 0
M  V30 13 O -0.343433 -0.472414 -4.439222 0
M  V30 14 C -1.328394 0.742631 -2.605407 0
M  V30 15 C -1.333258 1.890202 -3.369511 0
M  V30 16 C -1.820810 3.095423 -2.871705 0
M  V30 17 C -2.313373 3.155210 -1.584701 0
M  V30 18 F -2.815422 4.233925 -0.962153 0
M  V30 19 C -2.291282 1.979385 -0.847897 0
M  V30 20 C -2.761968 1.817056 0.530688 0
M  V30 21 C -1.916773 2.010175 1.605471 0
M  V30 22 F -0.637173 2.353874 1.391397 0
M  V30 23 C -2.336698 1.862376 2.934141 0
M  V30 24 C -3.667134 1.504356 3.182919 0
M  V30 25 C -4.012239 1.373141 4.619375 0
M  V30 26 O -3.793957 2.556901 5.314785 0
M  V30 27 C -5.454617 0.984712 4.821229 0
M  V30 28 C -5.669320 -0.493622 4.583459 0
M  V30 29 O -4.631268 -1.070282 3.885570 0
M  V30 30 C -3.408890 -1.037216 4.525636 0
M  V30 31 C -3.180709 0.271125 5.258443 0
M  V30 32 C -4.530350 1.306208 2.118568 0
M  V30 33 C -4.066965 1.464805 0.814168 0
M  V30 34 F -4.961155 1.257076 -0.200236 0
M  V30 35 N -1.817572 0.820188 -1.339522 0
M  V30 36 C 2.745500 -3.266836 -0.762551 0
M  V30 37 C 3.673210 -2.341817 0.005734 0 CFG=1
M  V30 38 N 4.933407 -2.949532 0.338303 0
M  V30 39 C 3.789643 -1.059963 -0.769496 0 CFG=1
M  V30 40 N 4.875660 -0.222230 -0.258951 0
M  V30 41 C 5.269857 -0.138798 1.024494 0
M  V30 42 C 6.320140 0.752836 1.112865 0
M  V30 43 N 6.529630 1.189709 -0.158498 0
M  V30 44 N 5.653058 0.592439 -0.963376 0
M  V30 45 H 4.856205 -3.052037 -3.031103 0
M  V30 46 H 5.722856 -1.576550 -3.451380 0
M  V30 47 H 5.838147 -2.273577 -1.759271 0
M  V30 48 H 4.039378 -0.270927 -2.717312 0
M  V30 49 H 2.087108 -1.185254 -3.373818 0
M  V30 50 H 2.971758 -2.726977 -3.516005 0
M  V30 51 H 1.307139 -1.673799 -1.175370 0
M  V30 52 H 1.968642 -5.205438 -2.106683 0
M  V30 53 H 0.153442 -6.685030 -2.953257 0
M  V30 54 H -2.396288 -3.455316 -3.271591 0
M  V30 55 H -1.168219 -1.616097 -1.438672 0
M  V30 56 H -0.954073 1.901085 -4.398773 0
M  V30 57 H -1.841652 4.012339 -3.436555 0
M  V30 58 H -1.615159 2.030288 3.743352 0
M  V30 59 H -4.380808 2.538543 6.121638 0
M  V30 60 H -5.675933 1.157144 5.909862 0
M  V30 61 H -6.170685 1.631579 4.277778 0
M  V30 62 H -6.593795 -0.710971 4.005818 0
M  V30 63 H -5.812000 -1.065833 5.544098 0
M  V30 64 H -2.624562 -1.138848 3.740168 0
M  V30 65 H -3.288751 -1.923884 5.198883 0
M  V30 66 H -3.401050 0.187141 6.320870 0
M  V30 67 H -2.124680 0.593101 5.152914 0
M  V30 68 H -5.545895 1.031418 2.367316 0
M  V30 69 H 2.129110 -3.873715 -0.037825 0
M  V30 70 H 3.380814 -3.938029 -1.359583 0
M  V30 71 H 3.169956 -2.088391 0.973169 0
M  V30 72 H 5.050501 -3.894638 -0.130121 0
M  V30 73 H 5.010148 -3.189053 1.370506 0
M  V30 74 H 2.859456 -0.476809 -0.613987 0
M  V30 75 H 4.859737 -0.669230 1.897479 0
M  V30 76 H 6.835817 1.014631 2.032134 0
M  V30 END ATOM
M  V30 BEGIN BOND
M  V30 1 1 1 2
M  V30 2 1 2 3
M  V30 3 1 3 4
M  V30 4 1 4 5
M  V30 5 2 5 6
M  V30 6 1 6 7
M  V30 7 2 7 8
M  V30 8 1 8 9
M  V30 9 2 9 10
M  V30 10 1 10 11
M  V30 11 1 11 12
M  V30 12 2 12 13
M  V30 13 1 12 14
M  V30 14 2 14 15
M  V30 15 1 15 16
M  V30 16 2 16 17
M  V30 17 1 17 18
M  V30 18 1 17 19
M  V30 19 1 19 20
M  V30 20 2 20 21
M  V30 21 1 21 22
M  V30 22 1 21 23
M  V30 23 2 23 24
M  V30 24 1 24 25
M  V30 25 1 25 26
M  V30 26 1 25 27
M  V30 27 1 27 28
M  V30 28 1 28 29
M  V30 29 1 29 30
M  V30 30 1 30 31
M  V30 31 1 24 32
M  V30 32 2 32 33
M  V30 33 1 33 34
M  V30 34 2 19 35
M  V30 35 1 4 36
M  V30 36 1 36 37
M  V30 37 1 37 38
M  V30 38 1 37 39
M  V30 39 1 39 40
M  V30 40 1 40 41
M  V30 41 2 41 42
M  V30 42 1 42 43
M  V30 43 2 43 44
M  V30 44 1 39 2
M  V30 45 1 44 40
M  V30 46 1 10 5
M  V30 47 1 35 14
M  V30 48 1 33 20
M  V30 49 1 31 25
M  V30 50 1 1 45
M  V30 51 1 1 46
M  V30 52 1 1 47
M  V30 53 1 2 48 CFG=3
M  V30 54 1 3 49
M  V30 55 1 3 50
M  V30 56 1 4 51 CFG=1
M  V30 57 1 6 52
M  V30 58 1 7 53
M  V30 59 1 9 54
M  V30 60 1 11 55
M  V30 61 1 15 56
M  V30 62 1 16 57
M  V30 63 1 23 58
M  V30 64 1 26 59
M  V30 65 1 27 60
M  V30 66 1 27 61
M  V30 67 1 28 62
M  V30 68 1 28 63
M  V30 69 1 30 64
M  V30 70 1 30 65
M  V30 71 1 31 66
M  V30 72 1 31 67
M  V30 73 1 32 68
M  V30 74 1 36 69
M  V30 75 1 36 70
M  V30 76 1 37 71 CFG=1
M  V30 77 1 38 72
M  V30 78 1 38 73
M  V30 79 1 39 74 CFG=3
M  V30 80 1 41 75
M  V30 81 1 42 76
M  V30 END BOND
M  V30 END CTAB
M  END
>  <Dataset>  (433) 
ChEMBL_Kinases

>  <Ligand_Instance>  (433) 
nan

>  <PDB_ID>  (433) 
nan

>  <Standardized_SMILES>  (433) 
C[C@H]1C[C@@H](c2ccncc2NC(=O)c2ccc(F)c(-c3c(F)cc(C4(O)CCOCC4)cc3F)n2)C[C@@H](N)[C@H]1n1ccnn1

>  <Name>  (433) 
nan

>  <Pocket>  (433) 
nan

>  <ATP_Site>  (433) 
nan

>  <Peripheral>  (433) 
nan

>  <Num_H_Atoms_ProtBoundConf>  (433) 
nan

>  <Num_Resolved_Atoms>  (433) 
nan

>  <Num_Not_Resolved_Atoms>  (433) 
nan

$$$$
CHEMBL3691962
     RDKit          3D

  0  0  0  0  0  0  0  0  0  0999 V3000
M  V30 BEGIN CTAB
M  V30 COUNTS 78 82 0 0 0
M  V30 BEGIN ATOM
M  V30 1 C 4.484233 -4.814265 4.923723 0
M  V30 2 O 4.442944 -4.653251 3.502165 0
M  V30 3 C 3.408118 -3.915872 2.941313 0
M  V30 4 O 2.465720 -3.349639 3.549829 0
M  V30 5 N 3.483374 -3.833070 1.531502 0
M  V30 6 C 2.587944 -3.154122 0.610674 0 CFG=2
M  V30 7 C 1.931820 -4.172161 -0.230706 0 CFG=2
M  V30 8 N 2.541529 -5.496067 -0.052661 0
M  V30 9 C 1.895618 -3.934906 -1.699378 0
M  V30 10 C 1.889096 -2.419991 -1.917608 0 CFG=2
M  V30 11 C 1.461800 -2.066269 -3.272608 0
M  V30 12 C 2.420624 -1.956886 -4.267551 0
M  V30 13 C 1.990488 -1.626054 -5.519786 0
M  V30 14 N 0.689068 -1.396093 -5.861442 0
M  V30 15 C -0.223049 -1.513636 -4.854562 0
M  V30 16 C 0.121197 -1.845196 -3.553685 0
M  V30 17 N -0.886945 -1.948864 -2.557437 0
M  V30 18 C -1.737550 -2.961202 -2.034602 0
M  V30 19 O -1.693643 -4.128679 -2.480545 0
M  V30 20 C -2.618100 -2.496994 -0.973918 0
M  V30 21 C -3.455415 -3.450064 -0.443519 0
M  V30 22 C -4.335147 -3.125389 0.568409 0
M  V30 23 C -4.394208 -1.835916 1.070993 0
M  V30 24 F -5.204485 -1.381019 2.056567 0
M  V30 25 C -3.539112 -0.913094 0.511991 0
M  V30 26 C -3.420430 0.496094 0.873452 0
M  V30 27 C -4.180340 1.463975 0.249851 0
M  V30 28 F -5.032387 1.031215 -0.706429 0
M  V30 29 C -4.037995 2.794653 0.622666 0
M  V30 30 C -3.135822 3.177878 1.622476 0
M  V30 31 C -3.194103 4.649640 1.809532 0
M  V30 32 O -4.520077 4.915408 2.188604 0
M  V30 33 C -2.308383 5.194759 2.851969 0
M  V30 34 C -0.951836 5.633825 2.401443 0
M  V30 35 O -0.892740 5.944279 1.047731 0
M  V30 36 C -2.121759 6.502535 0.625601 0
M  V30 37 C -3.030956 5.281818 0.450139 0
M  V30 38 C -2.386231 2.199630 2.233561 0
M  V30 39 C -2.534709 0.882668 1.856708 0
M  V30 40 F -1.747989 -0.002666 2.521986 0
M  V30 41 N -2.686939 -1.246848 -0.474824 0
M  V30 42 C 3.262127 -1.983168 -1.531146 0
M  V30 43 C 3.332828 -2.050309 -0.027436 0 CFG=2
M  V30 44 C 4.818342 -2.102297 0.310408 0
M  V30 45 H 4.533583 -5.911474 5.089911 0
M  V30 46 H 3.538015 -4.488509 5.400341 0
M  V30 47 H 5.305698 -4.267353 5.397362 0
M  V30 48 H 4.208604 -4.251391 0.878763 0
M  V30 49 H 1.807922 -2.702632 1.290098 0
M  V30 50 H 0.855602 -4.342739 0.071759 0
M  V30 51 H 2.695453 -6.003498 -0.928516 0
M  V30 52 H 2.075844 -6.060033 0.676153 0
M  V30 53 H 1.025563 -4.399698 -2.175837 0
M  V30 54 H 2.849518 -4.357736 -2.132151 0
M  V30 55 H 1.174911 -2.001119 -1.163266 0
M  V30 56 H 3.473983 -2.123248 -4.079156 0
M  V30 57 H 2.675413 -1.520255 -6.353949 0
M  V30 58 H -1.285569 -1.343825 -5.053211 0
M  V30 59 H -0.849687 -0.943522 -2.250127 0
M  V30 60 H -3.457919 -4.481938 -0.794813 0
M  V30 61 H -5.026522 -3.825422 1.036041 0
M  V30 62 H -4.708338 3.444252 0.038023 0
M  V30 63 H -5.097041 5.117568 1.421632 0
M  V30 64 H -2.775243 6.093776 3.352214 0
M  V30 65 H -2.191549 4.460786 3.669985 0
M  V30 66 H -0.600803 6.533592 2.949336 0
M  V30 67 H -0.176050 4.853015 2.571724 0
M  V30 68 H -2.553251 7.182581 1.368654 0
M  V30 69 H -1.997352 6.980201 -0.358191 0
M  V30 70 H -2.439902 4.589440 -0.183410 0
M  V30 71 H -3.978384 5.511892 -0.034523 0
M  V30 72 H -1.730082 2.616729 2.982510 0
M  V30 73 H 4.063181 -2.677148 -1.915242 0
M  V30 74 H 3.532552 -0.980114 -1.871969 0
M  V30 75 H 2.994724 -1.045696 0.328266 0
M  V30 76 H 5.004626 -2.373665 1.363922 0
M  V30 77 H 5.242749 -1.071593 0.155965 0
M  V30 78 H 5.388081 -2.756081 -0.399830 0
M  V30 END ATOM
M  V30 BEGIN BOND
M  V30 1 1 1 2
M  V30 2 1 2 3
M  V30 3 2 3 4
M  V30 4 1 3 5
M  V30 5 1 5 6
M  V30 6 1 6 7
M  V30 7 1 7 8
M  V30 8 1 7 9
M  V30 9 1 9 10
M  V30 10 1 10 11
M  V30 11 2 11 12
M  V30 12 1 12 13
M  V30 13 2 13 14
M  V30 14 1 14 15
M  V30 15 2 15 16
M  V30 16 1 16 17
M  V30 17 1 17 18
M  V30 18 2 18 19
M  V30 19 1 18 20
M  V30 20 2 20 21
M  V30 21 1 21 22
M  V30 22 2 22 23
M  V30 23 1 23 24
M  V30 24 1 23 25
M  V30 25 1 25 26
M  V30 26 2 26 27
M  V30 27 1 27 28
M  V30 28 1 27 29
M  V30 29 2 29 30
M  V30 30 1 30 31
M  V30 31 1 31 32
M  V30 32 1 31 33
M  V30 33 1 33 34
M  V30 34 1 34 35
M  V30 35 1 35 36
M  V30 36 1 36 37
M  V30 37 1 30 38
M  V30 38 2 38 39
M  V30 39 1 39 40
M  V30 40 2 25 41
M  V30 41 1 10 42
M  V30 42 1 42 43
M  V30 43 1 43 44
M  V30 44 1 43 6
M  V30 45 1 16 11
M  V30 46 1 41 20
M  V30 47 1 39 26
M  V30 48 1 37 31
M  V30 49 1 1 45
M  V30 50 1 1 46
M  V30 51 1 1 47
M  V30 52 1 5 48
M  V30 53 1 6 49 CFG=1
M  V30 54 1 7 50 CFG=1
M  V30 55 1 8 51
M  V30 56 1 8 52
M  V30 57 1 9 53
M  V30 58 1 9 54
M  V30 59 1 10 55 CFG=1
M  V30 60 1 12 56
M  V30 61 1 13 57
M  V30 62 1 15 58
M  V30 63 1 17 59
M  V30 64 1 21 60
M  V30 65 1 22 61
M  V30 66 1 29 62
M  V30 67 1 32 63
M  V30 68 1 33 64
M  V30 69 1 33 65
M  V30 70 1 34 66
M  V30 71 1 34 67
M  V30 72 1 36 68
M  V30 73 1 36 69
M  V30 74 1 37 70
M  V30 75 1 37 71
M  V30 76 1 38 72
M  V30 77 1 42 73
M  V30 78 1 42 74
M  V30 79 1 43 75 CFG=1
M  V30 80 1 44 76
M  V30 81 1 44 77
M  V30 82 1 44 78
M  V30 END BOND
M  V30 END CTAB
M  END
>  <Dataset>  (434) 
ChEMBL_Kinases

>  <Ligand_Instance>  (434) 
nan

>  <PDB_ID>  (434) 
nan

>  <Standardized_SMILES>  (434) 
COC(=O)N[C@@H]1[C@H](N)C[C@H](c2ccncc2NC(=O)c2ccc(F)c(-c3c(F)cc(C4(O)CCOCC4)cc3F)n2)C[C@@H]1C

>  <Name>  (434) 
nan

>  <Pocket>  (434) 
nan

>  <ATP_Site>  (434) 
nan

>  <Peripheral>  (434) 
nan

>  <Num_H_Atoms_ProtBoundConf>  (434) 
nan

>  <Num_Resolved_Atoms>  (434) 
nan

>  <Num_Not_Resolved_Atoms>  (434) 
nan

$$$$
CHEMBL3691961
     RDKit          3D

  0  0  0  0  0  0  0  0  0  0999 V3000
M  V30 BEGIN CTAB
M  V30 COUNTS 77 81 0 0 0
M  V30 BEGIN ATOM
M  V30 1 C 5.082923 -0.620830 6.331981 0
M  V30 2 O 5.142260 -1.211756 5.050781 0
M  V30 3 C 4.082968 -1.045702 4.139733 0
M  V30 4 O 3.406154 -0.346947 4.915488 0
M  V30 5 N 3.984556 -1.568892 2.820861 0
M  V30 6 C 2.801563 -1.270649 2.061563 0 CFG=2
M  V30 7 C 2.106760 -2.485151 1.491957 0 CFG=2
M  V30 8 N 1.377239 -3.227138 2.491896 0
M  V30 9 C 3.105775 -3.281824 0.730003 0
M  V30 10 N 3.523597 -2.497686 -0.397001 0
M  V30 11 C 3.447802 -2.796377 -1.778311 0
M  V30 12 C 4.723956 -2.803583 -2.336790 0
M  V30 13 C 4.896602 -3.077003 -3.699848 0
M  V30 14 N 3.799379 -3.334854 -4.467862 0
M  V30 15 C 2.573494 -3.324111 -3.913776 0
M  V30 16 C 2.357258 -3.059099 -2.572429 0
M  V30 17 N 1.123808 -3.025282 -1.909719 0
M  V30 18 C 0.411176 -4.068007 -1.255483 0
M  V30 19 O 0.808679 -5.277432 -1.161896 0
M  V30 20 C -0.867551 -3.711883 -0.651626 0
M  V30 21 C -1.623946 -4.652330 0.012954 0
M  V30 22 C -2.848440 -4.442650 0.626973 0
M  V30 23 C -3.349143 -3.154830 0.557458 0
M  V30 24 F -4.534699 -2.910356 1.141310 0
M  V30 25 C -2.590562 -2.190468 -0.114751 0
M  V30 26 C -3.172849 -0.855288 -0.157658 0
M  V30 27 C -3.035549 0.212958 0.703219 0
M  V30 28 F -2.216457 -0.061943 1.745804 0
M  V30 29 C -3.700400 1.392446 0.445370 0
M  V30 30 C -4.507453 1.528223 -0.665417 0
M  V30 31 C -5.214774 2.804408 -0.929054 0
M  V30 32 O -6.588122 2.621922 -1.052139 0
M  V30 33 C -4.928731 3.834390 0.114952 0
M  V30 34 C -5.651823 5.110385 -0.256170 0
M  V30 35 O -5.524356 5.467416 -1.577507 0
M  V30 36 C -4.439131 4.854317 -2.172929 0
M  V30 37 C -4.744245 3.376065 -2.259405 0
M  V30 38 C -4.660636 0.474171 -1.541208 0
M  V30 39 C -3.990709 -0.715995 -1.282333 0
M  V30 40 F -4.230864 -1.677605 -2.229675 0
M  V30 41 N -1.405128 -2.481485 -0.685608 0
M  V30 42 C 4.114935 -1.206042 -0.072521 0
M  V30 43 C 3.220775 -0.408483 0.867879 0 CFG=2
M  V30 44 C 4.016973 0.800309 1.319473 0
M  V30 45 H 6.039822 -0.898790 6.846616 0
M  V30 46 H 4.182089 -0.999477 6.815033 0
M  V30 47 H 5.060772 0.488936 6.275655 0
M  V30 48 H 4.850506 -2.107274 2.637497 0
M  V30 49 H 2.097930 -0.626312 2.635339 0
M  V30 50 H 1.344109 -2.058726 0.775001 0
M  V30 51 H 1.030688 -2.500524 3.183306 0
M  V30 52 H 0.541298 -3.625516 2.040775 0
M  V30 53 H 3.998201 -3.433161 1.376877 0
M  V30 54 H 2.781889 -4.302705 0.471251 0
M  V30 55 H 5.671198 -2.616019 -1.839567 0
M  V30 56 H 5.869698 -3.094978 -4.185203 0
M  V30 57 H 1.686382 -3.527619 -4.511402 0
M  V30 58 H 0.740912 -2.057223 -1.948306 0
M  V30 59 H -1.213777 -5.666983 0.059046 0
M  V30 60 H -3.335450 -5.291628 1.119650 0
M  V30 61 H -3.544309 2.178486 1.160666 0
M  V30 62 H -6.982815 2.067572 -0.342040 0
M  V30 63 H -3.841195 4.034859 0.196617 0
M  V30 64 H -5.306075 3.543062 1.125351 0
M  V30 65 H -6.749911 5.014522 -0.042388 0
M  V30 66 H -5.285094 5.904889 0.443935 0
M  V30 67 H -3.521520 4.992559 -1.576161 0
M  V30 68 H -4.315270 5.208522 -3.217510 0
M  V30 69 H -5.467697 3.142754 -3.073844 0
M  V30 70 H -3.789952 2.870118 -2.534433 0
M  V30 71 H -5.303550 0.627220 -2.398694 0
M  V30 72 H 4.315640 -0.572551 -0.934976 0
M  V30 73 H 5.040954 -1.459634 0.503025 0
M  V30 74 H 2.319365 -0.144934 0.281408 0
M  V30 75 H 5.112256 0.619385 1.295080 0
M  V30 76 H 3.749778 1.018569 2.366324 0
M  V30 77 H 3.801804 1.674281 0.673207 0
M  V30 END ATOM
M  V30 BEGIN BOND
M  V30 1 1 1 2
M  V30 2 1 2 3
M  V30 3 2 3 4
M  V30 4 1 3 5
M  V30 5 1 5 6
M  V30 6 1 6 7
M  V30 7 1 7 8
M  V30 8 1 7 9
M  V30 9 1 9 10
M  V30 10 1 10 11
M  V30 11 2 11 12
M  V30 12 1 12 13
M  V30 13 2 13 14
M  V30 14 1 14 15
M  V30 15 2 15 16
M  V30 16 1 16 17
M  V30 17 1 17 18
M  V30 18 2 18 19
M  V30 19 1 18 20
M  V30 20 2 20 21
M  V30 21 1 21 22
M  V30 22 2 22 23
M  V30 23 1 23 24
M  V30 24 1 23 25
M  V30 25 1 25 26
M  V30 26 2 26 27
M  V30 27 1 27 28
M  V30 28 1 27 29
M  V30 29 2 29 30
M  V30 30 1 30 31
M  V30 31 1 31 32
M  V30 32 1 31 33
M  V30 33 1 33 34
M  V30 34 1 34 35
M  V30 35 1 35 36
M  V30 36 1 36 37
M  V30 37 1 30 38
M  V30 38 2 38 39
M  V30 39 1 39 40
M  V30 40 2 25 41
M  V30 41 1 10 42
M  V30 42 1 42 43
M  V30 43 1 43 44
M  V30 44 1 43 6
M  V30 45 1 16 11
M  V30 46 1 41 20
M  V30 47 1 39 26
M  V30 48 1 37 31
M  V30 49 1 1 45
M  V30 50 1 1 46
M  V30 51 1 1 47
M  V30 52 1 5 48
M  V30 53 1 6 49 CFG=1
M  V30 54 1 7 50 CFG=3
M  V30 55 1 8 51
M  V30 56 1 8 52
M  V30 57 1 9 53
M  V30 58 1 9 54
M  V30 59 1 12 55
M  V30 60 1 13 56
M  V30 61 1 15 57
M  V30 62 1 17 58
M  V30 63 1 21 59
M  V30 64 1 22 60
M  V30 65 1 29 61
M  V30 66 1 32 62
M  V30 67 1 33 63
M  V30 68 1 33 64
M  V30 69 1 34 65
M  V30 70 1 34 66
M  V30 71 1 36 67
M  V30 72 1 36 68
M  V30 73 1 37 69
M  V30 74 1 37 70
M  V30 75 1 38 71
M  V30 76 1 42 72
M  V30 77 1 42 73
M  V30 78 1 43 74 CFG=3
M  V30 79 1 44 75
M  V30 80 1 44 76
M  V30 81 1 44 77
M  V30 END BOND
M  V30 END CTAB
M  END
>  <Dataset>  (435) 
ChEMBL_Kinases

>  <Ligand_Instance>  (435) 
nan

>  <PDB_ID>  (435) 
nan

>  <Standardized_SMILES>  (435) 
COC(=O)N[C@@H]1[C@H](N)CN(c2ccncc2NC(=O)c2ccc(F)c(-c3c(F)cc(C4(O)CCOCC4)cc3F)n2)C[C@@H]1C

>  <Name>  (435) 
nan

>  <Pocket>  (435) 
nan

>  <ATP_Site>  (435) 
nan

>  <Peripheral>  (435) 
nan

>  <Num_H_Atoms_ProtBoundConf>  (435) 
nan

>  <Num_Resolved_Atoms>  (435) 
nan

>  <Num_Not_Resolved_Atoms>  (435) 
nan

$$$$
CHEMBL3691960
     RDKit          3D

  0  0  0  0  0  0  0  0  0  0999 V3000
M  V30 BEGIN CTAB
M  V30 COUNTS 63 67 0 0 0
M  V30 BEGIN ATOM
M  V30 1 C 3.450743 -0.848633 3.077972 0
M  V30 2 C 2.251222 -0.478601 2.264921 0 CFG=1
M  V30 3 C 2.579441 -0.587207 0.814411 0
M  V30 4 C 1.832425 -1.734646 0.201444 0 CFG=1
M  V30 5 C 2.141400 -1.989090 -1.205784 0
M  V30 6 C 3.194998 -2.871031 -1.454132 0
M  V30 7 C 3.488185 -3.112154 -2.800936 0
M  V30 8 N 2.792644 -2.526032 -3.794104 0
M  V30 9 C 1.779478 -1.678071 -3.516675 0
M  V30 10 C 1.421330 -1.382380 -2.214967 0
M  V30 11 N 0.349322 -0.486039 -1.951522 0
M  V30 12 C 0.273887 0.919149 -1.769724 0
M  V30 13 O 1.225427 1.740871 -1.806817 0
M  V30 14 C -1.055752 1.460635 -1.512326 0
M  V30 15 N -2.173196 0.718282 -1.443140 0
M  V30 16 C -3.394713 1.229953 -1.205233 0
M  V30 17 C -4.439038 0.205460 -1.181240 0
M  V30 18 C -5.115027 -0.149084 -2.338114 0
M  V30 19 F -4.758991 0.499554 -3.483071 0
M  V30 20 C -6.098495 -1.124219 -2.276715 0
M  V30 21 C -6.403921 -1.740204 -1.068261 0
M  V30 22 C -5.707607 -1.364017 0.081703 0
M  V30 23 C -4.713265 -0.383393 0.039671 0
M  V30 24 F -4.078355 -0.068715 1.196179 0
M  V30 25 C -3.550734 2.588441 -1.016241 0
M  V30 26 F -4.821104 2.996965 -0.784004 0
M  V30 27 C -2.429148 3.389138 -1.078857 0
M  V30 28 C -1.185193 2.798438 -1.329681 0
M  V30 29 N -0.086070 3.708662 -1.375607 0
M  V30 30 C 2.010306 -2.942734 1.099222 0
M  V30 31 C 1.120162 -2.702628 2.325554 0 CFG=1
M  V30 32 N 1.621406 -3.455421 3.451017 0
M  V30 33 C 1.016848 -1.250205 2.654314 0 CFG=1
M  V30 34 N 0.778609 -1.044580 4.070339 0
M  V30 35 C -0.382959 -0.663431 4.675077 0
M  V30 36 C -0.211358 -0.575634 6.044954 0
M  V30 37 N 1.077280 -0.913469 6.234796 0
M  V30 38 N 1.654945 -1.187725 5.076305 0
M  V30 39 H 3.585743 -0.172381 3.971897 0
M  V30 40 H 4.354660 -0.677044 2.456413 0
M  V30 41 H 3.396001 -1.869387 3.508051 0
M  V30 42 H 2.036236 0.600803 2.473077 0
M  V30 43 H 2.387688 0.330578 0.245581 0
M  V30 44 H 3.670240 -0.814607 0.652053 0
M  V30 45 H 0.753621 -1.472961 0.271958 0
M  V30 46 H 3.745370 -3.334845 -0.656301 0
M  V30 47 H 4.316287 -3.805314 -2.996902 0
M  V30 48 H 1.243335 -1.225979 -4.353164 0
M  V30 49 H -0.501952 -1.087398 -1.902064 0
M  V30 50 H -6.600334 -1.370381 -3.200400 0
M  V30 51 H -7.178588 -2.497890 -1.059708 0
M  V30 52 H -5.954491 -1.853861 1.027748 0
M  V30 53 H -2.577991 4.434075 -0.929356 0
M  V30 54 H 0.185723 4.327296 -2.193247 0
M  V30 55 H 0.514679 3.773242 -0.513847 0
M  V30 56 H 1.776233 -3.900995 0.605750 0
M  V30 57 H 3.064035 -2.991801 1.406956 0
M  V30 58 H 0.090150 -3.038025 2.043275 0
M  V30 59 H 1.726174 -4.460048 3.225169 0
M  V30 60 H 1.001837 -3.324398 4.255996 0
M  V30 61 H 0.158644 -0.745164 2.122058 0
M  V30 62 H -1.291950 -0.465501 4.132255 0
M  V30 63 H -1.011947 -0.286788 6.726318 0
M  V30 END ATOM
M  V30 BEGIN BOND
M  V30 1 1 1 2
M  V30 2 1 2 3
M  V30 3 1 3 4
M  V30 4 1 4 5
M  V30 5 2 5 6
M  V30 6 1 6 7
M  V30 7 2 7 8
M  V30 8 1 8 9
M  V30 9 2 9 10
M  V30 10 1 10 11
M  V30 11 1 11 12
M  V30 12 2 12 13
M  V30 13 1 12 14
M  V30 14 2 14 15
M  V30 15 1 15 16
M  V30 16 1 16 17
M  V30 17 2 17 18
M  V30 18 1 18 19
M  V30 19 1 18 20
M  V30 20 2 20 21
M  V30 21 1 21 22
M  V30 22 2 22 23
M  V30 23 1 23 24
M  V30 24 2 16 25
M  V30 25 1 25 26
M  V30 26 1 25 27
M  V30 27 2 27 28
M  V30 28 1 28 29
M  V30 29 1 4 30
M  V30 30 1 30 31
M  V30 31 1 31 32
M  V30 32 1 31 33
M  V30 33 1 33 34
M  V30 34 1 34 35
M  V30 35 2 35 36
M  V30 36 1 36 37
M  V30 37 2 37 38
M  V30 38 1 33 2
M  V30 39 1 38 34
M  V30 40 1 10 5
M  V30 41 1 28 14
M  V30 42 1 23 17
M  V30 43 1 1 39
M  V30 44 1 1 40
M  V30 45 1 1 41
M  V30 46 1 2 42 CFG=3
M  V30 47 1 3 43
M  V30 48 1 3 44
M  V30 49 1 4 45 CFG=3
M  V30 50 1 6 46
M  V30 51 1 7 47
M  V30 52 1 9 48
M  V30 53 1 11 49
M  V30 54 1 20 50
M  V30 55 1 21 51
M  V30 56 1 22 52
M  V30 57 1 27 53
M  V30 58 1 29 54
M  V30 59 1 29 55
M  V30 60 1 30 56
M  V30 61 1 30 57
M  V30 62 1 31 58 CFG=3
M  V30 63 1 32 59
M  V30 64 1 32 60
M  V30 65 1 33 61 CFG=3
M  V30 66 1 35 62
M  V30 67 1 36 63
M  V30 END BOND
M  V30 END CTAB
M  END
>  <Dataset>  (436) 
ChEMBL_Kinases

>  <Ligand_Instance>  (436) 
nan

>  <PDB_ID>  (436) 
nan

>  <Standardized_SMILES>  (436) 
C[C@H]1C[C@@H](c2ccncc2NC(=O)c2nc(-c3c(F)cccc3F)c(F)cc2N)C[C@@H](N)[C@H]1n1ccnn1

>  <Name>  (436) 
nan

>  <Pocket>  (436) 
nan

>  <ATP_Site>  (436) 
nan

>  <Peripheral>  (436) 
nan

>  <Num_H_Atoms_ProtBoundConf>  (436) 
nan

>  <Num_Resolved_Atoms>  (436) 
nan

>  <Num_Not_Resolved_Atoms>  (436) 
nan

$$$$
CHEMBL3691959
     RDKit          3D

  0  0  0  0  0  0  0  0  0  0999 V3000
M  V30 BEGIN CTAB
M  V30 COUNTS 65 68 0 0 0
M  V30 BEGIN ATOM
M  V30 1 C 2.568034 -0.279074 7.286043 0
M  V30 2 O 2.381820 0.001959 5.926013 0
M  V30 3 C 1.122216 0.156120 5.349782 0
M  V30 4 O 0.208312 0.010714 6.201566 0
M  V30 5 N 0.870054 0.442675 3.971928 0
M  V30 6 C -0.524217 0.559821 3.598101 0 CFG=2
M  V30 7 C -0.860790 -0.523020 2.630023 0 CFG=2
M  V30 8 N -0.519411 -1.789746 3.265761 0
M  V30 9 C 0.068690 -0.371717 1.448217 0
M  V30 10 C -0.009384 0.960820 0.775757 0 CFG=2
M  V30 11 C 1.325834 1.280724 0.155446 0
M  V30 12 C 2.293937 1.984093 0.881872 0
M  V30 13 C 3.528228 2.299222 0.353243 0
M  V30 14 N 3.811633 1.914645 -0.911092 0
M  V30 15 C 2.910877 1.230076 -1.662357 0
M  V30 16 C 1.672552 0.908885 -1.144491 0
M  V30 17 N 0.638157 0.198755 -1.811923 0
M  V30 18 C -0.457235 0.580517 -2.630023 0
M  V30 19 O -0.757490 1.754537 -2.959820 0
M  V30 20 C -1.271596 -0.513827 -3.102153 0
M  V30 21 N -1.090955 -1.799899 -2.845338 0
M  V30 22 C -1.937905 -2.740443 -3.355017 0
M  V30 23 C -1.585310 -4.101575 -2.968404 0
M  V30 24 C -0.735065 -4.929258 -3.687099 0
M  V30 25 F -0.199287 -4.435238 -4.823562 0
M  V30 26 C -0.489974 -6.207103 -3.195244 0
M  V30 27 C -1.055314 -6.679693 -2.029229 0
M  V30 28 C -1.900959 -5.814879 -1.342236 0
M  V30 29 C -2.180428 -4.536522 -1.782904 0
M  V30 30 F -3.019306 -3.744690 -1.056760 0
M  V30 31 C -3.029702 -2.485102 -4.158278 0
M  V30 32 F -3.798192 -3.496906 -4.604644 0
M  V30 33 C -3.237937 -1.147102 -4.439971 0
M  V30 34 C -2.355565 -0.224867 -3.903252 0
M  V30 35 N -2.652486 1.118767 -4.248552 0
M  V30 36 C -0.560964 2.079625 1.565161 0
M  V30 37 C -0.815432 1.886510 3.003825 0 CFG=2
M  V30 38 C -0.077811 2.921048 3.869112 0
M  V30 39 H 2.620303 -1.390570 7.417459 0
M  V30 40 H 3.539987 0.154313 7.596774 0
M  V30 41 H 1.717939 0.049879 7.908513 0
M  V30 42 H 1.763375 0.521799 3.459481 0
M  V30 43 H -1.169390 0.414717 4.518543 0
M  V30 44 H -1.923807 -0.530215 2.323245 0
M  V30 45 H -1.384209 -2.357166 3.363830 0
M  V30 46 H 0.255084 -2.286504 2.792070 0
M  V30 47 H -0.200759 -1.214597 0.760424 0
M  V30 48 H 1.105899 -0.499100 1.841850 0
M  V30 49 H -0.661723 0.802311 -0.124452 0
M  V30 50 H 2.104831 2.308749 1.895787 0
M  V30 51 H 4.295364 2.833269 0.871226 0
M  V30 52 H 3.101394 0.905346 -2.678000 0
M  V30 53 H 0.850550 -0.790091 -1.563770 0
M  V30 54 H 0.173112 -6.845338 -3.760729 0
M  V30 55 H -0.846728 -7.687551 -1.664121 0
M  V30 56 H -2.332000 -6.214110 -0.427006 0
M  V30 57 H -4.070467 -0.881090 -5.059804 0
M  V30 58 H -2.877058 2.082414 -4.483180 0
M  V30 59 H -2.069979 1.437409 -5.061729 0
M  V30 60 H 0.177086 2.932718 1.469322 0
M  V30 61 H -1.477397 2.519514 1.067293 0
M  V30 62 H -1.901404 2.107271 3.234724 0
M  V30 63 H 0.981244 2.607906 4.028812 0
M  V30 64 H -0.594670 3.009486 4.849405 0
M  V30 65 H -0.135268 3.932571 3.409321 0
M  V30 END ATOM
M  V30 BEGIN BOND
M  V30 1 1 1 2
M  V30 2 1 2 3
M  V30 3 2 3 4
M  V30 4 1 3 5
M  V30 5 1 5 6
M  V30 6 1 6 7
M  V30 7 1 7 8
M  V30 8 1 7 9
M  V30 9 1 9 10
M  V30 10 1 10 11
M  V30 11 2 11 12
M  V30 12 1 12 13
M  V30 13 2 13 14
M  V30 14 1 14 15
M  V30 15 2 15 16
M  V30 16 1 16 17
M  V30 17 1 17 18
M  V30 18 2 18 19
M  V30 19 1 18 20
M  V30 20 2 20 21
M  V30 21 1 21 22
M  V30 22 1 22 23
M  V30 23 2 23 24
M  V30 24 1 24 25
M  V30 25 1 24 26
M  V30 26 2 26 27
M  V30 27 1 27 28
M  V30 28 2 28 29
M  V30 29 1 29 30
M  V30 30 2 22 31
M  V30 31 1 31 32
M  V30 32 1 31 33
M  V30 33 2 33 34
M  V30 34 1 34 35
M  V30 35 1 10 36
M  V30 36 1 36 37
M  V30 37 1 37 38
M  V30 38 1 37 6
M  V30 39 1 16 11
M  V30 40 1 34 20
M  V30 41 1 29 23
M  V30 42 1 1 39
M  V30 43 1 1 40
M  V30 44 1 1 41
M  V30 45 1 5 42
M  V30 46 1 6 43 CFG=1
M  V30 47 1 7 44 CFG=3
M  V30 48 1 8 45
M  V30 49 1 8 46
M  V30 50 1 9 47
M  V30 51 1 9 48
M  V30 52 1 10 49 CFG=3
M  V30 53 1 12 50
M  V30 54 1 13 51
M  V30 55 1 15 52
M  V30 56 1 17 53
M  V30 57 1 26 54
M  V30 58 1 27 55
M  V30 59 1 28 56
M  V30 60 1 33 57
M  V30 61 1 35 58
M  V30 62 1 35 59
M  V30 63 1 36 60
M  V30 64 1 36 61
M  V30 65 1 37 62 CFG=3
M  V30 66 1 38 63
M  V30 67 1 38 64
M  V30 68 1 38 65
M  V30 END BOND
M  V30 END CTAB
M  END
>  <Dataset>  (437) 
ChEMBL_Kinases

>  <Ligand_Instance>  (437) 
nan

>  <PDB_ID>  (437) 
nan

>  <Standardized_SMILES>  (437) 
COC(=O)N[C@@H]1[C@H](N)C[C@H](c2ccncc2NC(=O)c2nc(-c3c(F)cccc3F)c(F)cc2N)C[C@@H]1C

>  <Name>  (437) 
nan

>  <Pocket>  (437) 
nan

>  <ATP_Site>  (437) 
nan

>  <Peripheral>  (437) 
nan

>  <Num_H_Atoms_ProtBoundConf>  (437) 
nan

>  <Num_Resolved_Atoms>  (437) 
nan

>  <Num_Not_Resolved_Atoms>  (437) 
nan

$$$$
CHEMBL2407915
     RDKit          3D

  0  0  0  0  0  0  0  0  0  0999 V3000
M  V30 BEGIN CTAB
M  V30 COUNTS 31 34 0 0 0
M  V30 BEGIN ATOM
M  V30 1 O -1.167002 -1.235180 4.782680 0
M  V30 2 C -0.241300 -1.573040 4.001584 0
M  V30 3 N 0.798673 -2.506594 4.173538 0
M  V30 4 C 1.587469 -2.516355 2.978377 0
M  V30 5 C 2.690493 -3.269496 2.667891 0
M  V30 6 C 3.301662 -3.147737 1.446227 0
M  V30 7 Cl 4.686509 -4.142951 1.154640 0
M  V30 8 C 2.793694 -2.249562 0.514455 0
M  V30 9 C 1.686724 -1.512481 0.864321 0
M  V30 10 C 1.072062 -1.621906 2.072702 0
M  V30 11 C -0.081770 -1.006124 2.683005 0
M  V30 12 C -0.794870 -0.139182 2.030845 0
M  V30 13 C -0.715046 0.487101 0.734541 0
M  V30 14 C 0.184339 1.335323 0.071527 0
M  V30 15 C -0.005994 1.772658 -1.214190 0
M  V30 16 C -1.120849 1.383060 -1.921559 0
M  V30 17 C -1.479667 1.716100 -3.210119 0
M  V30 18 N -2.658081 1.053381 -3.378886 0
M  V30 19 N -2.972659 0.386866 -2.291132 0
M  V30 20 C -2.049266 0.551043 -1.337482 0
M  V30 21 C -1.835857 0.121581 -0.036862 0
M  V30 22 H 0.932091 -3.068950 5.034976 0
M  V30 23 H 3.061649 -3.957538 3.407850 0
M  V30 24 H 3.362795 -2.250465 -0.405606 0
M  V30 25 H 1.435679 -0.909374 0.031086 0
M  V30 26 H -1.672050 0.210046 2.608629 0
M  V30 27 H 0.995363 1.535323 0.778856 0
M  V30 28 H 0.779349 2.411481 -1.556894 0
M  V30 29 H -0.926287 2.352403 -3.883870 0
M  V30 30 H -3.835856 -0.205313 -2.167983 0
M  V30 31 H -2.657362 -0.528432 0.282317 0
M  V30 END ATOM
M  V30 BEGIN BOND
M  V30 1 2 1 2
M  V30 2 1 2 3
M  V30 3 1 3 4
M  V30 4 2 4 5
M  V30 5 1 5 6
M  V30 6 1 6 7
M  V30 7 2 6 8
M  V30 8 1 8 9
M  V30 9 2 9 10
M  V30 10 1 10 11
M  V30 11 2 11 12
M  V30 12 1 12 13
M  V30 13 2 13 14
M  V30 14 1 14 15
M  V30 15 2 15 16
M  V30 16 1 16 17
M  V30 17 2 17 18
M  V30 18 1 18 19
M  V30 19 1 19 20
M  V30 20 2 20 21
M  V30 21 1 11 2
M  V30 22 1 21 13
M  V30 23 1 10 4
M  V30 24 1 20 16
M  V30 25 1 3 22
M  V30 26 1 5 23
M  V30 27 1 8 24
M  V30 28 1 9 25
M  V30 29 1 12 26
M  V30 30 1 14 27
M  V30 31 1 15 28
M  V30 32 1 17 29
M  V30 33 1 19 30
M  V30 34 1 21 31
M  V30 END BOND
M  V30 END CTAB
M  END
>  <Dataset>  (438) 
ChEMBL_Kinases

>  <Ligand_Instance>  (438) 
nan

>  <PDB_ID>  (438) 
nan

>  <Standardized_SMILES>  (438) 
O=C1Nc2cc(Cl)ccc2/C1=C\c1ccc2cn[nH]c2c1

>  <Name>  (438) 
nan

>  <Pocket>  (438) 
nan

>  <ATP_Site>  (438) 
nan

>  <Peripheral>  (438) 
nan

>  <Num_H_Atoms_ProtBoundConf>  (438) 
nan

>  <Num_Resolved_Atoms>  (438) 
nan

>  <Num_Not_Resolved_Atoms>  (438) 
nan

$$$$
CHEMBL2407906
     RDKit          3D

  0  0  0  0  0  0  0  0  0  0999 V3000
M  V30 BEGIN CTAB
M  V30 COUNTS 29 31 0 0 0
M  V30 BEGIN ATOM
M  V30 1 O -0.533792 -0.877999 2.781135 0
M  V30 2 C 0.566276 -0.649675 2.231513 0
M  V30 3 N 1.723747 -0.402765 3.009364 0
M  V30 4 C 2.822175 -0.179942 2.097771 0
M  V30 5 C 4.149702 0.099149 2.339177 0
M  V30 6 C 4.929025 0.255087 1.212111 0
M  V30 7 C 4.545577 0.166562 -0.114524 0
M  V30 8 C 3.182897 -0.119451 -0.271017 0
M  V30 9 C 2.330861 -0.290731 0.817898 0
M  V30 10 C 0.912480 -0.586338 0.836445 0
M  V30 11 C 0.037114 -0.756504 -0.128241 0
M  V30 12 C -1.381698 -1.022028 -0.026816 0
M  V30 13 C -1.919745 -2.105022 -0.707417 0
M  V30 14 C -3.283987 -2.410393 -0.692250 0
M  V30 15 C -4.145789 -1.616131 0.021592 0
M  V30 16 C -3.669168 -0.525774 0.717396 0
M  V30 17 O -4.559257 0.240931 1.416458 0
M  V30 18 C -2.316822 -0.283732 0.658383 0
M  V30 19 H 1.818641 -0.376293 4.042521 0
M  V30 20 H 4.581748 0.195196 3.324043 0
M  V30 21 H 5.989594 0.478223 1.371419 0
M  V30 22 H 5.237013 0.306551 -0.905749 0
M  V30 23 H 2.808525 -0.204645 -1.284651 0
M  V30 24 H 0.442040 -0.686828 -1.149319 0
M  V30 25 H -1.323552 -2.802295 -1.306414 0
M  V30 26 H -3.685034 -3.272098 -1.238603 0
M  V30 27 H -5.211104 -1.832895 0.049279 0
M  V30 28 H -4.318561 0.609895 2.347872 0
M  V30 29 H -2.006011 0.597545 1.199317 0
M  V30 END ATOM
M  V30 BEGIN BOND
M  V30 1 2 1 2
M  V30 2 1 2 3
M  V30 3 1 3 4
M  V30 4 2 4 5
M  V30 5 1 5 6
M  V30 6 2 6 7
M  V30 7 1 7 8
M  V30 8 2 8 9
M  V30 9 1 9 10
M  V30 10 2 10 11
M  V30 11 1 11 12
M  V30 12 2 12 13
M  V30 13 1 13 14
M  V30 14 2 14 15
M  V30 15 1 15 16
M  V30 16 1 16 17
M  V30 17 2 16 18
M  V30 18 1 10 2
M  V30 19 1 18 12
M  V30 20 1 9 4
M  V30 21 1 3 19
M  V30 22 1 5 20
M  V30 23 1 6 21
M  V30 24 1 7 22
M  V30 25 1 8 23
M  V30 26 1 11 24
M  V30 27 1 13 25
M  V30 28 1 14 26
M  V30 29 1 15 27
M  V30 30 1 17 28
M  V30 31 1 18 29
M  V30 END BOND
M  V30 END CTAB
M  END
>  <Dataset>  (439) 
ChEMBL_Kinases

>  <Ligand_Instance>  (439) 
nan

>  <PDB_ID>  (439) 
nan

>  <Standardized_SMILES>  (439) 
O=C1Nc2ccccc2/C1=C/c1cccc(O)c1

>  <Name>  (439) 
nan

>  <Pocket>  (439) 
nan

>  <ATP_Site>  (439) 
nan

>  <Peripheral>  (439) 
nan

>  <Num_H_Atoms_ProtBoundConf>  (439) 
nan

>  <Num_Resolved_Atoms>  (439) 
nan

>  <Num_Not_Resolved_Atoms>  (439) 
nan

$$$$
CHEMBL3691979
     RDKit          3D

  0  0  0  0  0  0  0  0  0  0999 V3000
M  V30 BEGIN CTAB
M  V30 COUNTS 75 80 0 0 0
M  V30 BEGIN ATOM
M  V30 1 C 1.553781 -3.929108 0.224101 0
M  V30 2 C 1.169038 -3.343267 -1.095743 0 CFG=1
M  V30 3 C 1.820044 -2.006680 -1.382838 0
M  V30 4 C 1.258366 -1.373199 -2.587952 0 CFG=1
M  V30 5 C 2.168378 -0.412577 -3.254597 0
M  V30 6 C 2.977886 -0.933938 -4.270635 0
M  V30 7 C 3.893993 -0.183367 -5.018778 0
M  V30 8 N 3.967312 1.140585 -4.700789 0
M  V30 9 C 3.173972 1.630377 -3.711304 0
M  V30 10 C 2.276786 0.908003 -2.973825 0
M  V30 11 N 1.469668 1.462979 -1.956286 0
M  V30 12 C 1.346766 2.812132 -1.545510 0
M  V30 13 O 2.013410 3.713184 -2.110890 0
M  V30 14 C 0.472853 3.278411 -0.473169 0
M  V30 15 C 0.352119 4.610663 -0.147699 0
M  V30 16 C -0.498657 5.014823 0.858521 0
M  V30 17 C -1.241895 4.088503 1.555498 0
M  V30 18 F -2.036682 4.605303 2.514512 0
M  V30 19 C -1.101853 2.742088 1.206896 0
M  V30 20 C -1.923392 1.858240 2.024580 0
M  V30 21 C -3.121524 1.347723 1.647428 0
M  V30 22 F -3.594907 1.652948 0.423704 0
M  V30 23 C -3.819078 0.536561 2.508270 0
M  V30 24 C -3.389620 0.182918 3.772839 0
M  V30 25 C -4.274978 -0.710854 4.568816 0
M  V30 26 F -4.870757 -1.581127 3.639410 0
M  V30 27 C -5.361596 0.033483 5.269104 0
M  V30 28 C -5.229975 0.137861 6.752043 0
M  V30 29 O -4.780663 -1.082145 7.287089 0
M  V30 30 C -3.433583 -1.162327 6.880869 0
M  V30 31 C -3.419183 -1.574203 5.437705 0
M  V30 32 C -2.158958 0.713993 4.145718 0
M  V30 33 C -1.457750 1.528313 3.281691 0
M  V30 34 F -0.277731 1.969068 3.785425 0
M  V30 35 N -0.263178 2.406066 0.223564 0
M  V30 36 C 0.716358 -2.328176 -3.583704 0
M  V30 37 C 1.023699 -3.768545 -3.454864 0 CFG=1
M  V30 38 N 1.596011 -4.351386 -4.679894 0
M  V30 39 C 1.697086 -4.245542 -2.223991 0 CFG=1
M  V30 40 N 3.118214 -4.269077 -2.204361 0
M  V30 41 C 4.063853 -4.222145 -3.156566 0
M  V30 42 C 5.302298 -4.288430 -2.556904 0
M  V30 43 N 5.010488 -4.372451 -1.252088 0
M  V30 44 N 3.715684 -4.361955 -1.029006 0
M  V30 45 H 0.702269 -3.824422 0.956157 0
M  V30 46 H 2.405358 -3.352868 0.674620 0
M  V30 47 H 1.756845 -5.007717 0.174584 0
M  V30 48 H 0.061781 -3.287630 -1.141387 0
M  V30 49 H 1.669953 -1.399666 -0.473393 0
M  V30 50 H 2.886963 -2.225160 -1.584689 0
M  V30 51 H 0.368920 -0.762133 -2.235617 0
M  V30 52 H 3.013612 -1.955589 -4.610318 0
M  V30 53 H 4.519187 -0.561701 -5.797654 0
M  V30 54 H 3.347362 2.682707 -3.576805 0
M  V30 55 H 0.844724 0.886553 -1.356288 0
M  V30 56 H 0.940800 5.349356 -0.694236 0
M  V30 57 H -0.527607 6.099819 1.046305 0
M  V30 58 H -4.766973 0.163317 2.144614 0
M  V30 59 H -6.340075 -0.491568 5.072042 0
M  V30 60 H -5.521193 1.043859 4.827422 0
M  V30 61 H -6.249742 0.349729 7.154656 0
M  V30 62 H -4.561599 0.916710 7.120386 0
M  V30 63 H -2.998241 -0.170583 7.081979 0
M  V30 64 H -2.899964 -1.923854 7.493604 0
M  V30 65 H -2.381114 -1.597511 5.026800 0
M  V30 66 H -3.751001 -2.643046 5.414130 0
M  V30 67 H -1.816084 0.447223 5.116088 0
M  V30 68 H -0.413674 -2.186743 -3.666445 0
M  V30 69 H 1.024511 -2.048966 -4.647845 0
M  V30 70 H 0.002176 -4.297203 -3.421954 0
M  V30 71 H 0.908252 -4.053975 -5.436630 0
M  V30 72 H 1.517914 -5.395183 -4.657232 0
M  V30 73 H 1.360491 -5.284632 -1.923301 0
M  V30 74 H 3.880564 -4.145845 -4.216678 0
M  V30 75 H 6.269602 -4.278116 -2.998457 0
M  V30 END ATOM
M  V30 BEGIN BOND
M  V30 1 1 1 2
M  V30 2 1 2 3
M  V30 3 1 3 4
M  V30 4 1 4 5
M  V30 5 2 5 6
M  V30 6 1 6 7
M  V30 7 2 7 8
M  V30 8 1 8 9
M  V30 9 2 9 10
M  V30 10 1 10 11
M  V30 11 1 11 12
M  V30 12 2 12 13
M  V30 13 1 12 14
M  V30 14 2 14 15
M  V30 15 1 15 16
M  V30 16 2 16 17
M  V30 17 1 17 18
M  V30 18 1 17 19
M  V30 19 1 19 20
M  V30 20 2 20 21
M  V30 21 1 21 22
M  V30 22 1 21 23
M  V30 23 2 23 24
M  V30 24 1 24 25
M  V30 25 1 25 26
M  V30 26 1 25 27
M  V30 27 1 27 28
M  V30 28 1 28 29
M  V30 29 1 29 30
M  V30 30 1 30 31
M  V30 31 1 24 32
M  V30 32 2 32 33
M  V30 33 1 33 34
M  V30 34 2 19 35
M  V30 35 1 4 36
M  V30 36 1 36 37
M  V30 37 1 37 38
M  V30 38 1 37 39
M  V30 39 1 39 40
M  V30 40 1 40 41
M  V30 41 2 41 42
M  V30 42 1 42 43
M  V30 43 2 43 44
M  V30 44 1 39 2
M  V30 45 1 44 40
M  V30 46 1 10 5
M  V30 47 1 35 14
M  V30 48 1 33 20
M  V30 49 1 31 25
M  V30 50 1 1 45
M  V30 51 1 1 46
M  V30 52 1 1 47
M  V30 53 1 2 48 CFG=1
M  V30 54 1 3 49
M  V30 55 1 3 50
M  V30 56 1 4 51 CFG=1
M  V30 57 1 6 52
M  V30 58 1 7 53
M  V30 59 1 9 54
M  V30 60 1 11 55
M  V30 61 1 15 56
M  V30 62 1 16 57
M  V30 63 1 23 58
M  V30 64 1 27 59
M  V30 65 1 27 60
M  V30 66 1 28 61
M  V30 67 1 28 62
M  V30 68 1 30 63
M  V30 69 1 30 64
M  V30 70 1 31 65
M  V30 71 1 31 66
M  V30 72 1 32 67
M  V30 73 1 36 68
M  V30 74 1 36 69
M  V30 75 1 37 70 CFG=1
M  V30 76 1 38 71
M  V30 77 1 38 72
M  V30 78 1 39 73 CFG=1
M  V30 79 1 41 74
M  V30 80 1 42 75
M  V30 END BOND
M  V30 END CTAB
M  END
>  <Dataset>  (440) 
ChEMBL_Kinases

>  <Ligand_Instance>  (440) 
nan

>  <PDB_ID>  (440) 
nan

>  <Standardized_SMILES>  (440) 
C[C@H]1C[C@@H](c2ccncc2NC(=O)c2ccc(F)c(-c3c(F)cc(C4(F)CCOCC4)cc3F)n2)C[C@@H](N)[C@H]1n1ccnn1

>  <Name>  (440) 
nan

>  <Pocket>  (440) 
nan

>  <ATP_Site>  (440) 
nan

>  <Peripheral>  (440) 
nan

>  <Num_H_Atoms_ProtBoundConf>  (440) 
nan

>  <Num_Resolved_Atoms>  (440) 
nan

>  <Num_Not_Resolved_Atoms>  (440) 
nan

$$$$
CHEMBL3691978
     RDKit          3D

  0  0  0  0  0  0  0  0  0  0999 V3000
M  V30 BEGIN CTAB
M  V30 COUNTS 62 66 0 0 0
M  V30 BEGIN ATOM
M  V30 1 C 2.702007 0.568378 3.156453 0
M  V30 2 C 1.631958 0.439924 2.120853 0 CFG=1
M  V30 3 C 2.078383 0.916489 0.746099 0
M  V30 4 N 2.701688 -0.161767 0.000985 0
M  V30 5 C 2.843216 -0.161320 -1.410218 0
M  V30 6 C 4.188134 -0.204675 -1.798137 0
M  V30 7 C 4.452731 -0.204927 -3.172114 0
M  V30 8 N 3.483557 -0.165867 -4.102728 0
M  V30 9 C 2.176013 -0.123826 -3.721160 0
M  V30 10 C 1.861998 -0.121842 -2.378908 0
M  V30 11 N 0.516194 -0.081604 -1.859780 0
M  V30 12 C 0.015065 -1.401357 -1.693946 0
M  V30 13 O 0.683503 -2.427731 -1.973130 0
M  V30 14 C -1.331391 -1.622801 -1.178826 0
M  V30 15 N -2.189845 -0.647720 -0.826397 0
M  V30 16 C -3.431919 -0.947123 -0.351806 0
M  V30 17 C -4.337669 0.132034 0.021550 0
M  V30 18 C -5.194098 0.652795 -0.934104 0
M  V30 19 F -5.194159 0.166499 -2.210977 0
M  V30 20 C -6.039898 1.663810 -0.574008 0
M  V30 21 C -6.075841 2.191450 0.713179 0
M  V30 22 C -5.203673 1.634416 1.615912 0
M  V30 23 C -4.315200 0.606563 1.327756 0
M  V30 24 F -3.484993 0.110741 2.278685 0
M  V30 25 C -3.925345 -2.222972 -0.187171 0
M  V30 26 F -5.165680 -2.452569 0.288321 0
M  V30 27 C -3.074873 -3.250397 -0.537552 0
M  V30 28 C -1.830103 -2.895998 -1.012028 0
M  V30 29 N -0.996694 -3.991900 -1.355955 0
M  V30 30 C 3.203532 -1.296246 0.751228 0
M  V30 31 C 2.150836 -1.964765 1.584312 0 CFG=1
M  V30 32 N 2.704273 -2.673455 2.717827 0
M  V30 33 C 1.111173 -0.965325 1.968150 0 CFG=1
M  V30 34 N 0.337313 -1.381971 3.128714 0
M  V30 35 C -0.572478 -0.564534 3.700563 0
M  V30 36 C -1.135811 -1.237659 4.769039 0
M  V30 37 N -0.535296 -2.452523 4.800793 0
M  V30 38 N 0.334201 -2.518765 3.821159 0
M  V30 39 H 2.385332 1.213881 4.002001 0
M  V30 40 H 2.975244 -0.404329 3.627525 0
M  V30 41 H 3.601865 1.101895 2.734048 0
M  V30 42 H 0.744420 1.044913 2.472123 0
M  V30 43 H 1.295195 1.429089 0.179039 0
M  V30 44 H 2.928248 1.631572 0.958441 0
M  V30 45 H 5.075292 -0.238751 -1.188989 0
M  V30 46 H 5.424512 -0.234993 -3.662703 0
M  V30 47 H 1.302009 -0.089998 -4.354560 0
M  V30 48 H -0.145344 0.693920 -1.589522 0
M  V30 49 H -6.738987 2.118662 -1.275776 0
M  V30 50 H -6.720615 2.984659 1.046044 0
M  V30 51 H -5.163487 1.989686 2.657145 0
M  V30 52 H -3.393060 -4.277698 -0.435520 0
M  V30 53 H -1.086086 -4.230674 -2.387925 0
M  V30 54 H -0.364855 -4.788433 -1.513855 0
M  V30 55 H 3.769398 -2.003792 0.113157 0
M  V30 56 H 3.976269 -0.897100 1.467730 0
M  V30 57 H 1.670076 -2.741558 0.934429 0
M  V30 58 H 3.724876 -2.906794 2.599181 0
M  V30 59 H 2.234477 -3.602884 2.881206 0
M  V30 60 H 0.368953 -0.913508 1.134234 0
M  V30 61 H -0.923041 0.433966 3.507086 0
M  V30 62 H -1.882678 -1.075429 5.546536 0
M  V30 END ATOM
M  V30 BEGIN BOND
M  V30 1 1 1 2
M  V30 2 1 2 3
M  V30 3 1 3 4
M  V30 4 1 4 5
M  V30 5 2 5 6
M  V30 6 1 6 7
M  V30 7 2 7 8
M  V30 8 1 8 9
M  V30 9 2 9 10
M  V30 10 1 10 11
M  V30 11 1 11 12
M  V30 12 2 12 13
M  V30 13 1 12 14
M  V30 14 2 14 15
M  V30 15 1 15 16
M  V30 16 1 16 17
M  V30 17 2 17 18
M  V30 18 1 18 19
M  V30 19 1 18 20
M  V30 20 2 20 21
M  V30 21 1 21 22
M  V30 22 2 22 23
M  V30 23 1 23 24
M  V30 24 2 16 25
M  V30 25 1 25 26
M  V30 26 1 25 27
M  V30 27 2 27 28
M  V30 28 1 28 29
M  V30 29 1 4 30
M  V30 30 1 30 31
M  V30 31 1 31 32
M  V30 32 1 31 33
M  V30 33 1 33 34
M  V30 34 1 34 35
M  V30 35 2 35 36
M  V30 36 1 36 37
M  V30 37 2 37 38
M  V30 38 1 33 2
M  V30 39 1 38 34
M  V30 40 1 10 5
M  V30 41 1 28 14
M  V30 42 1 23 17
M  V30 43 1 1 39
M  V30 44 1 1 40
M  V30 45 1 1 41
M  V30 46 1 2 42 CFG=1
M  V30 47 1 3 43
M  V30 48 1 3 44
M  V30 49 1 6 45
M  V30 50 1 7 46
M  V30 51 1 9 47
M  V30 52 1 11 48
M  V30 53 1 20 49
M  V30 54 1 21 50
M  V30 55 1 22 51
M  V30 56 1 27 52
M  V30 57 1 29 53
M  V30 58 1 29 54
M  V30 59 1 30 55
M  V30 60 1 30 56
M  V30 61 1 31 57 CFG=3
M  V30 62 1 32 58
M  V30 63 1 32 59
M  V30 64 1 33 60 CFG=3
M  V30 65 1 35 61
M  V30 66 1 36 62
M  V30 END BOND
M  V30 END CTAB
M  END
>  <Dataset>  (441) 
ChEMBL_Kinases

>  <Ligand_Instance>  (441) 
nan

>  <PDB_ID>  (441) 
nan

>  <Standardized_SMILES>  (441) 
C[C@H]1CN(c2ccncc2NC(=O)c2nc(-c3c(F)cccc3F)c(F)cc2N)C[C@@H](N)[C@H]1n1ccnn1

>  <Name>  (441) 
nan

>  <Pocket>  (441) 
nan

>  <ATP_Site>  (441) 
nan

>  <Peripheral>  (441) 
nan

>  <Num_H_Atoms_ProtBoundConf>  (441) 
nan

>  <Num_Resolved_Atoms>  (441) 
nan

>  <Num_Not_Resolved_Atoms>  (441) 
nan

$$$$
CHEMBL4455632
     RDKit          3D

  0  0  0  0  0  0  0  0  0  0999 V3000
M  V30 BEGIN CTAB
M  V30 COUNTS 60 62 0 0 0
M  V30 BEGIN ATOM
M  V30 1 C 6.072810 -0.514098 5.760491 0
M  V30 2 C 5.867153 -1.289145 4.432909 0
M  V30 3 C 4.483682 -1.862106 4.553527 0
M  V30 4 C 6.057463 -0.283064 3.369923 0
M  V30 5 C 5.964901 -0.601215 1.962996 0
M  V30 6 C 4.812118 -1.112835 1.263565 0 CFG=2
M  V30 7 N 3.580219 -0.379380 1.214651 0
M  V30 8 C 3.068903 0.097565 0.002969 0
M  V30 9 O 3.658747 -0.094905 -1.066910 0
M  V30 10 C 1.795059 0.853350 -0.032225 0
M  V30 11 C 0.781658 1.343735 0.702844 0
M  V30 12 N -0.162574 1.993336 0.061743 0
M  V30 13 C -0.299914 2.233389 -1.033232 0
M  V30 14 C -1.227205 2.925939 -2.031756 0
M  V30 15 N -2.210235 1.996363 -2.523231 0
M  V30 16 C -3.115232 1.357048 -1.632660 0
M  V30 17 O -3.122989 1.550221 -0.389938 0
M  V30 18 C -4.083572 0.426956 -2.209110 0
M  V30 19 C -4.252263 0.069761 -3.521961 0
M  V30 20 N -5.258849 -0.814718 -3.610719 0
M  V30 21 N -5.729949 -1.026341 -2.395187 0
M  V30 22 C -6.811635 -1.940621 -2.267619 0
M  V30 23 C -8.151032 -1.656898 -2.043738 0
M  V30 24 C -9.023190 -2.706404 -1.955687 0
M  V30 25 C -8.657063 -4.025740 -2.074962 0
M  V30 26 C -7.323826 -4.305668 -2.297649 0
M  V30 27 C -6.438745 -3.263283 -2.388089 0
M  V30 28 C -5.042011 -0.290592 -1.519131 0
M  V30 29 N -5.312650 -0.301933 -0.136252 0
M  V30 30 S 1.275027 1.412165 -1.769440 0
M  V30 31 C 4.499961 -2.547987 1.492627 0
M  V30 32 N 4.702407 -3.936310 1.697691 0
M  V30 33 O 3.271027 -2.234940 1.485074 0
M  V30 34 H 5.545054 -1.019965 6.591306 0
M  V30 35 H 5.655994 0.509392 5.626370 0
M  V30 36 H 7.157086 -0.464339 5.989011 0
M  V30 37 H 6.658422 -2.065790 4.484656 0
M  V30 38 H 4.448628 -2.947929 4.328085 0
M  V30 39 H 4.075189 -1.815708 5.613327 0
M  V30 40 H 3.761990 -1.248225 3.984468 0
M  V30 41 H 7.098507 0.144972 3.552714 0
M  V30 42 H 5.433825 0.613817 3.694910 0
M  V30 43 H 6.357429 0.300756 1.382686 0
M  V30 44 H 6.801187 -1.343206 1.722987 0
M  V30 45 H 5.138472 -1.147291 0.163415 0
M  V30 46 H 2.983841 -0.147665 2.049925 0
M  V30 47 H 0.916422 1.112046 1.750181 0
M  V30 48 H -1.627767 3.790789 -1.492048 0
M  V30 49 H -0.616951 3.331275 -2.866501 0
M  V30 50 H -2.259313 1.786611 -3.561562 0
M  V30 51 H -3.641653 0.469130 -4.321681 0
M  V30 52 H -8.369261 -0.610092 -1.960305 0
M  V30 53 H -10.075843 -2.456158 -1.778279 0
M  V30 54 H -9.451861 -4.767916 -1.984642 0
M  V30 55 H -7.052138 -5.341791 -2.388847 0
M  V30 56 H -5.405147 -3.595876 -2.565982 0
M  V30 57 H -6.162494 0.151719 0.276317 0
M  V30 58 H -4.590383 -0.797725 0.399493 0
M  V30 59 H 5.210248 -4.323845 2.518685 0
M  V30 60 H 4.298991 -4.533596 0.954667 0
M  V30 END ATOM
M  V30 BEGIN BOND
M  V30 1 1 1 2
M  V30 2 1 2 3
M  V30 3 1 2 4
M  V30 4 1 4 5
M  V30 5 1 5 6
M  V30 6 1 6 7
M  V30 7 1 7 8
M  V30 8 2 8 9
M  V30 9 1 8 10
M  V30 10 2 10 11
M  V30 11 1 11 12
M  V30 12 2 12 13
M  V30 13 1 13 14
M  V30 14 1 14 15
M  V30 15 1 15 16
M  V30 16 2 16 17
M  V30 17 1 16 18
M  V30 18 1 18 19
M  V30 19 2 19 20
M  V30 20 1 20 21
M  V30 21 1 21 22
M  V30 22 2 22 23
M  V30 23 1 23 24
M  V30 24 2 24 25
M  V30 25 1 25 26
M  V30 26 2 26 27
M  V30 27 1 21 28
M  V30 28 1 28 29
M  V30 29 1 13 30
M  V30 30 1 6 31
M  V30 31 1 31 32
M  V30 32 2 31 33
M  V30 33 1 30 10
M  V30 34 2 28 18
M  V30 35 1 27 22
M  V30 36 1 1 34
M  V30 37 1 1 35
M  V30 38 1 1 36
M  V30 39 1 2 37
M  V30 40 1 3 38
M  V30 41 1 3 39
M  V30 42 1 3 40
M  V30 43 1 4 41
M  V30 44 1 4 42
M  V30 45 1 5 43
M  V30 46 1 5 44
M  V30 47 1 6 45 CFG=3
M  V30 48 1 7 46
M  V30 49 1 11 47
M  V30 50 1 14 48
M  V30 51 1 14 49
M  V30 52 1 15 50
M  V30 53 1 19 51
M  V30 54 1 23 52
M  V30 55 1 24 53
M  V30 56 1 25 54
M  V30 57 1 26 55
M  V30 58 1 27 56
M  V30 59 1 29 57
M  V30 60 1 29 58
M  V30 61 1 32 59
M  V30 62 1 32 60
M  V30 END BOND
M  V30 END CTAB
M  END
>  <Dataset>  (442) 
ChEMBL_Kinases

>  <Ligand_Instance>  (442) 
nan

>  <PDB_ID>  (442) 
nan

>  <Standardized_SMILES>  (442) 
CC(C)CC[C@H](NC(=O)c1cnc(CNC(=O)c2cnn(-c3ccccc3)c2N)s1)C(N)=O

>  <Name>  (442) 
nan

>  <Pocket>  (442) 
nan

>  <ATP_Site>  (442) 
nan

>  <Peripheral>  (442) 
nan

>  <Num_H_Atoms_ProtBoundConf>  (442) 
nan

>  <Num_Resolved_Atoms>  (442) 
nan

>  <Num_Not_Resolved_Atoms>  (442) 
nan

$$$$
CHEMBL218367
     RDKit          3D

  0  0  0  0  0  0  0  0  0  0999 V3000
M  V30 BEGIN CTAB
M  V30 COUNTS 47 49 0 0 0
M  V30 BEGIN ATOM
M  V30 1 C 1.684017 -1.625358 8.135480 0
M  V30 2 S 2.258985 -2.031720 6.503751 0
M  V30 3 O 3.772497 -1.930096 6.544476 0
M  V30 4 O 1.851547 -3.426632 6.181518 0
M  V30 5 C 1.568655 -0.904111 5.369307 0
M  V30 6 C 2.190340 0.255763 4.970857 0
M  V30 7 C 1.594633 1.114025 4.074736 0
M  V30 8 C 0.357933 0.838211 3.549437 0
M  V30 9 C -0.463379 1.606620 2.578889 0
M  V30 10 N -0.226159 1.218259 1.204285 0
M  V30 11 C 0.865795 1.556611 0.383128 0
M  V30 12 O 1.794251 2.284892 0.819507 0
M  V30 13 C 0.936487 1.058981 -1.007795 0
M  V30 14 C 1.967009 1.371249 -1.838043 0
M  V30 15 C 1.937660 0.859365 -3.105623 0
M  V30 16 N 3.021135 1.194591 -3.964074 0
M  V30 17 C 0.855652 0.049915 -3.470330 0
M  V30 18 C 0.936086 -0.420807 -4.818413 0
M  V30 19 N 1.019740 -0.797174 -5.930078 0
M  V30 20 C -0.186795 -0.267862 -2.634998 0
M  V30 21 C -1.280994 -1.104091 -3.017060 0
M  V30 22 C -1.718573 -1.825485 -4.048995 0
M  V30 23 C -2.881996 -2.512110 -3.977776 0
M  V30 24 C -3.610706 -2.444182 -2.794258 0
M  V30 25 C -4.899250 -3.061332 -2.388573 0
M  V30 26 O -5.649067 -3.809332 -3.039670 0
M  V30 27 O -5.308706 -2.751312 -1.106067 0
M  V30 28 S -2.564546 -1.362865 -1.797784 0
M  V30 29 N -0.053932 0.279212 -1.442033 0
M  V30 30 C -0.282888 -0.340676 3.949358 0
M  V30 31 C 0.313347 -1.202420 4.847956 0
M  V30 32 H 2.392194 -0.948820 8.644238 0
M  V30 33 H 0.709580 -1.106919 8.085310 0
M  V30 34 H 1.614379 -2.557377 8.733144 0
M  V30 35 H 3.157141 0.501491 5.361715 0
M  V30 36 H 2.013814 2.038521 3.712891 0
M  V30 37 H -0.127184 2.678240 2.678110 0
M  V30 38 H -1.537326 1.580227 2.838904 0
M  V30 39 H -0.972390 0.608481 0.784427 0
M  V30 40 H 2.727609 1.994485 -1.443544 0
M  V30 41 H 3.559234 0.328380 -4.233638 0
M  V30 42 H 3.203918 2.196464 -4.252157 0
M  V30 43 H -1.161841 -1.882618 -4.958728 0
M  V30 44 H -3.357171 -3.132027 -4.724890 0
M  V30 45 H -5.976988 -3.315994 -0.601458 0
M  V30 46 H -1.269979 -0.669948 3.601715 0
M  V30 47 H -0.183679 -2.126985 5.164442 0
M  V30 END ATOM
M  V30 BEGIN BOND
M  V30 1 1 1 2
M  V30 2 2 2 3
M  V30 3 2 2 4
M  V30 4 1 2 5
M  V30 5 2 5 6
M  V30 6 1 6 7
M  V30 7 2 7 8
M  V30 8 1 8 9
M  V30 9 1 9 10
M  V30 10 1 10 11
M  V30 11 2 11 12
M  V30 12 1 11 13
M  V30 13 2 13 14
M  V30 14 1 14 15
M  V30 15 1 15 16
M  V30 16 2 15 17
M  V30 17 1 17 18
M  V30 18 3 18 19
M  V30 19 1 17 20
M  V30 20 1 20 21
M  V30 21 2 21 22
M  V30 22 1 22 23
M  V30 23 2 23 24
M  V30 24 1 24 25
M  V30 25 2 25 26
M  V30 26 1 25 27
M  V30 27 1 24 28
M  V30 28 2 20 29
M  V30 29 1 8 30
M  V30 30 2 30 31
M  V30 31 1 31 5
M  V30 32 1 29 13
M  V30 33 1 28 21
M  V30 34 1 1 32
M  V30 35 1 1 33
M  V30 36 1 1 34
M  V30 37 1 6 35
M  V30 38 1 7 36
M  V30 39 1 9 37
M  V30 40 1 9 38
M  V30 41 1 10 39
M  V30 42 1 14 40
M  V30 43 1 16 41
M  V30 44 1 16 42
M  V30 45 1 22 43
M  V30 46 1 23 44
M  V30 47 1 27 45
M  V30 48 1 30 46
M  V30 49 1 31 47
M  V30 END BOND
M  V30 END CTAB
M  END
>  <Dataset>  (443) 
ChEMBL_Kinases

>  <Ligand_Instance>  (443) 
nan

>  <PDB_ID>  (443) 
nan

>  <Standardized_SMILES>  (443) 
CS(=O)(=O)c1ccc(CNC(=O)c2cc(N)c(C#N)c(-c3ccc(C(=O)O)s3)n2)cc1

>  <Name>  (443) 
nan

>  <Pocket>  (443) 
nan

>  <ATP_Site>  (443) 
nan

>  <Peripheral>  (443) 
nan

>  <Num_H_Atoms_ProtBoundConf>  (443) 
nan

>  <Num_Resolved_Atoms>  (443) 
nan

>  <Num_Not_Resolved_Atoms>  (443) 
nan

$$$$
CHEMBL4455512
     RDKit          3D

  0  0  0  0  0  0  0  0  0  0999 V3000
M  V30 BEGIN CTAB
M  V30 COUNTS 31 33 0 0 0
M  V30 BEGIN ATOM
M  V30 1 N 1.050610 -6.277825 3.709433 0
M  V30 2 C 1.360920 -5.372920 2.840132 0
M  V30 3 N 1.413859 -3.973269 3.109798 0
M  V30 4 C 1.572788 -3.132790 1.983034 0
M  V30 5 O 1.638661 -1.860661 2.075167 0
M  V30 6 C 1.659976 -3.839501 0.678689 0
M  V30 7 C 1.625566 -3.263837 -0.508305 0
M  V30 8 C 1.488642 -1.819102 -0.748943 0
M  V30 9 C 2.188313 -0.932596 -1.527964 0
M  V30 10 C 1.551764 0.265276 -1.314837 0
M  V30 11 C 0.484568 0.083604 -0.417135 0
M  V30 12 C -0.274886 1.284813 -0.111292 0
M  V30 13 C -0.022630 2.573742 -0.524897 0
M  V30 14 C -0.849462 3.612604 -0.186719 0
M  V30 15 C -1.973206 3.385770 0.587910 0
M  V30 16 C -2.272321 2.106648 1.029773 0
M  V30 17 N -3.451888 1.928956 1.818066 0 CHG=1 VAL=4
M  V30 18 O -3.790721 0.796421 2.248255 0
M  V30 19 O -4.283171 2.971162 2.153855 0 CHG=-1 VAL=1
M  V30 20 C -1.418211 1.093559 0.670119 0
M  V30 21 O 0.536894 -1.184883 -0.145903 0
M  V30 22 S 1.804446 -5.581916 1.091402 0
M  V30 23 H 1.042159 -7.289705 3.406580 0
M  V30 24 H 1.339829 -3.593454 4.099714 0
M  V30 25 H 1.710391 -3.979806 -1.320199 0
M  V30 26 H 3.015169 -1.329378 -2.089012 0
M  V30 27 H 1.941179 1.141803 -1.847073 0
M  V30 28 H 0.872101 2.703079 -1.125475 0
M  V30 29 H -0.518694 4.572450 -0.580495 0
M  V30 30 H -2.572258 4.271525 0.807939 0
M  V30 31 H -1.715748 0.115919 1.053849 0
M  V30 END ATOM
M  V30 BEGIN BOND
M  V30 1 2 1 2 CFG=2
M  V30 2 1 2 3
M  V30 3 1 3 4
M  V30 4 2 4 5
M  V30 5 1 4 6
M  V30 6 2 6 7
M  V30 7 1 7 8
M  V30 8 2 8 9
M  V30 9 1 9 10
M  V30 10 2 10 11
M  V30 11 1 11 12
M  V30 12 2 12 13
M  V30 13 1 13 14
M  V30 14 2 14 15
M  V30 15 1 15 16
M  V30 16 1 16 17
M  V30 17 2 17 18
M  V30 18 1 17 19
M  V30 19 2 16 20
M  V30 20 1 11 21
M  V30 21 1 6 22
M  V30 22 1 22 2
M  V30 23 1 21 8
M  V30 24 1 20 12
M  V30 25 1 1 23
M  V30 26 1 3 24
M  V30 27 1 7 25
M  V30 28 1 9 26
M  V30 29 1 10 27
M  V30 30 1 13 28
M  V30 31 1 14 29
M  V30 32 1 15 30
M  V30 33 1 20 31
M  V30 END BOND
M  V30 END CTAB
M  END
>  <Dataset>  (444) 
ChEMBL_Kinases

>  <Ligand_Instance>  (444) 
nan

>  <PDB_ID>  (444) 
nan

>  <Standardized_SMILES>  (444) 
N=C1NC(=O)/C(=C\c2ccc(-c3cccc([N+](=O)[O-])c3)o2)S1

>  <Name>  (444) 
nan

>  <Pocket>  (444) 
nan

>  <ATP_Site>  (444) 
nan

>  <Peripheral>  (444) 
nan

>  <Num_H_Atoms_ProtBoundConf>  (444) 
nan

>  <Num_Resolved_Atoms>  (444) 
nan

>  <Num_Not_Resolved_Atoms>  (444) 
nan

$$$$
CHEMBL3691977
     RDKit          3D

  0  0  0  0  0  0  0  0  0  0999 V3000
M  V30 BEGIN CTAB
M  V30 COUNTS 64 68 0 0 0
M  V30 BEGIN ATOM
M  V30 1 C 5.092729 -2.704629 5.002411 0
M  V30 2 O 4.661954 -1.371089 5.155637 0
M  V30 3 C 4.087536 -0.610243 4.149807 0
M  V30 4 C 3.855100 -1.043272 2.861613 0
M  V30 5 C 3.266394 -0.158025 1.956294 0
M  V30 6 F 3.091656 -0.702730 0.727603 0
M  V30 7 C 2.922215 1.137399 2.352239 0
M  V30 8 C 2.326286 1.864575 1.234897 0
M  V30 9 N 0.971190 1.702394 1.194841 0
M  V30 10 C 0.226141 2.295553 0.232786 0
M  V30 11 C -1.241145 2.121539 0.186863 0
M  V30 12 O -1.945221 2.668024 -0.703420 0
M  V30 13 N -1.877906 1.303207 1.190655 0
M  V30 14 C -3.282761 1.260677 0.975233 0
M  V30 15 C -4.202290 2.145844 1.494806 0
M  V30 16 N -5.522586 2.034121 1.242294 0
M  V30 17 C -6.003408 1.046744 0.466679 0
M  V30 18 C -5.076142 0.150489 -0.059753 0
M  V30 19 C -3.706443 0.228448 0.174868 0
M  V30 20 N -2.947269 -0.799042 -0.464555 0
M  V30 21 C -1.908788 -0.607558 -1.428164 0
M  V30 22 C -1.833700 -1.757331 -2.403229 0 CFG=1
M  V30 23 N -0.549786 -1.623955 -3.089892 0
M  V30 24 C -1.897674 -3.092888 -1.749074 0 CFG=1
M  V30 25 N -0.700624 -3.903898 -1.965986 0
M  V30 26 C -0.300309 -4.024944 -3.254277 0
M  V30 27 C 0.842133 -4.826432 -3.240870 0
M  V30 28 N 1.065809 -5.141581 -1.957902 0
M  V30 29 N 0.143563 -4.588216 -1.211187 0
M  V30 30 C -2.239978 -3.075858 -0.287962 0 CFG=1
M  V30 31 C -1.043011 -2.645258 0.543126 0
M  V30 32 C -3.366002 -2.109782 -0.012916 0
M  V30 33 C 0.801401 3.084057 -0.741593 0
M  V30 34 C 2.170656 3.246633 -0.699288 0
M  V30 35 C 2.937117 2.646480 0.276496 0
M  V30 36 F 4.281303 2.729933 0.422865 0
M  V30 37 C 3.166115 1.545213 3.648534 0
M  V30 38 F 2.778106 2.822990 3.877521 0
M  V30 39 C 3.745659 0.667350 4.532147 0
M  V30 40 H 6.148047 -2.658148 4.645529 0
M  V30 41 H 4.446214 -3.226569 4.258724 0
M  V30 42 H 5.028173 -3.181977 6.001403 0
M  V30 43 H 4.141959 -2.051474 2.616846 0
M  V30 44 H -1.261125 0.853610 1.930663 0
M  V30 45 H -3.816144 2.944180 2.121570 0
M  V30 46 H -7.059407 0.948437 0.258220 0
M  V30 47 H -5.519983 -0.633819 -0.683840 0
M  V30 48 H -2.201727 0.285996 -2.051104 0
M  V30 49 H -0.892711 -0.480381 -1.019835 0
M  V30 50 H -2.604424 -1.631494 -3.190251 0
M  V30 51 H 0.153144 -1.178960 -2.453637 0
M  V30 52 H -0.624663 -1.202483 -4.026474 0
M  V30 53 H -2.715115 -3.681254 -2.261025 0
M  V30 54 H -0.594351 -3.694593 -4.261623 0
M  V30 55 H 1.553755 -5.236843 -3.950792 0
M  V30 56 H -2.594900 -4.090532 0.034486 0
M  V30 57 H -0.117130 -2.527424 -0.051120 0
M  V30 58 H -1.212919 -1.649225 1.044564 0
M  V30 59 H -0.919997 -3.393595 1.356996 0
M  V30 60 H -3.489196 -2.106031 1.104210 0
M  V30 61 H -4.311306 -2.413210 -0.504583 0
M  V30 62 H 0.250390 3.585027 -1.538928 0
M  V30 63 H 2.731202 3.848212 -1.418997 0
M  V30 64 H 3.904660 1.072232 5.542565 0
M  V30 END ATOM
M  V30 BEGIN BOND
M  V30 1 1 1 2
M  V30 2 1 2 3
M  V30 3 2 3 4
M  V30 4 1 4 5
M  V30 5 1 5 6
M  V30 6 2 5 7
M  V30 7 1 7 8
M  V30 8 2 8 9
M  V30 9 1 9 10
M  V30 10 1 10 11
M  V30 11 2 11 12
M  V30 12 1 11 13
M  V30 13 1 13 14
M  V30 14 2 14 15
M  V30 15 1 15 16
M  V30 16 2 16 17
M  V30 17 1 17 18
M  V30 18 2 18 19
M  V30 19 1 19 20
M  V30 20 1 20 21
M  V30 21 1 21 22
M  V30 22 1 22 23
M  V30 23 1 22 24
M  V30 24 1 24 25
M  V30 25 1 25 26
M  V30 26 2 26 27
M  V30 27 1 27 28
M  V30 28 2 28 29
M  V30 29 1 24 30
M  V30 30 1 30 31
M  V30 31 1 30 32
M  V30 32 2 10 33
M  V30 33 1 33 34
M  V30 34 2 34 35
M  V30 35 1 35 36
M  V30 36 1 7 37
M  V30 37 1 37 38
M  V30 38 2 37 39
M  V30 39 1 39 3
M  V30 40 1 35 8
M  V30 41 1 19 14
M  V30 42 1 32 20
M  V30 43 1 29 25
M  V30 44 1 1 40
M  V30 45 1 1 41
M  V30 46 1 1 42
M  V30 47 1 4 43
M  V30 48 1 13 44
M  V30 49 1 15 45
M  V30 50 1 17 46
M  V30 51 1 18 47
M  V30 52 1 21 48
M  V30 53 1 21 49
M  V30 54 1 22 50 CFG=3
M  V30 55 1 23 51
M  V30 56 1 23 52
M  V30 57 1 24 53 CFG=3
M  V30 58 1 26 54
M  V30 59 1 27 55
M  V30 60 1 30 56 CFG=1
M  V30 61 1 31 57
M  V30 62 1 31 58
M  V30 63 1 31 59
M  V30 64 1 32 60
M  V30 65 1 32 61
M  V30 66 1 33 62
M  V30 67 1 34 63
M  V30 68 1 39 64
M  V30 END BOND
M  V30 END CTAB
M  END
>  <Dataset>  (445) 
ChEMBL_Kinases

>  <Ligand_Instance>  (445) 
nan

>  <PDB_ID>  (445) 
nan

>  <Standardized_SMILES>  (445) 
COc1cc(F)c(-c2nc(C(=O)Nc3cnccc3N3C[C@@H](N)[C@@H](n4ccnn4)[C@@H](C)C3)ccc2F)c(F)c1

>  <Name>  (445) 
nan

>  <Pocket>  (445) 
nan

>  <ATP_Site>  (445) 
nan

>  <Peripheral>  (445) 
nan

>  <Num_H_Atoms_ProtBoundConf>  (445) 
nan

>  <Num_Resolved_Atoms>  (445) 
nan

>  <Num_Not_Resolved_Atoms>  (445) 
nan

$$$$
CHEMBL3691976
     RDKit          3D

  0  0  0  0  0  0  0  0  0  0999 V3000
M  V30 BEGIN CTAB
M  V30 COUNTS 65 69 0 0 0
M  V30 BEGIN ATOM
M  V30 1 C 5.400053 -2.118830 5.135296 0
M  V30 2 O 5.260313 -0.709407 5.020745 0
M  V30 3 C 4.685739 -0.204282 3.860464 0
M  V30 4 C 4.249103 -1.024057 2.822561 0
M  V30 5 C 3.674394 -0.507728 1.663392 0
M  V30 6 F 3.274158 -1.365923 0.697604 0
M  V30 7 C 3.540859 0.857003 1.555510 0
M  V30 8 C 2.938071 1.414382 0.344247 0
M  V30 9 N 1.614156 1.551454 0.449675 0
M  V30 10 C 0.844126 2.048594 -0.552005 0
M  V30 11 C -0.602251 2.230847 -0.510613 0
M  V30 12 O -1.294606 2.691381 -1.453601 0
M  V30 13 N -1.194462 1.826964 0.741444 0
M  V30 14 C -2.511103 1.801046 1.277744 0
M  V30 15 C -2.869666 2.955568 1.944308 0
M  V30 16 N -4.093625 3.047797 2.493796 0
M  V30 17 C -4.930789 2.002368 2.372541 0
M  V30 18 C -4.555533 0.856729 1.703076 0
M  V30 19 C -3.296773 0.681133 1.101807 0
M  V30 20 C -2.928060 -0.525721 0.408318 0 CFG=1
M  V30 21 C -3.242068 -0.531903 -1.089581 0
M  V30 22 C -3.501999 -1.952780 -1.547637 0 CFG=1
M  V30 23 N -3.236578 -1.996363 -2.950981 0
M  V30 24 C -2.768578 -2.938415 -0.709396 0 CFG=1
M  V30 25 N -2.491491 -4.203995 -1.370432 0
M  V30 26 C -1.892961 -4.324242 -2.570768 0
M  V30 27 C -1.799863 -5.672178 -2.872829 0
M  V30 28 N -2.343632 -6.338646 -1.849549 0
M  V30 29 N -2.744677 -5.464878 -0.976522 0
M  V30 30 C -1.504880 -2.449724 -0.081314 0 CFG=1
M  V30 31 C -0.324643 -2.537949 -1.048696 0
M  V30 32 C -1.587468 -1.115048 0.594490 0
M  V30 33 C 1.456952 2.418348 -1.704337 0
M  V30 34 C 2.821005 2.298843 -1.868573 0
M  V30 35 C 3.591956 1.785798 -0.826517 0
M  V30 36 F 4.937373 1.597733 -0.809255 0
M  V30 37 C 3.961248 1.708488 2.562701 0
M  V30 38 F 3.811029 3.047880 2.416312 0
M  V30 39 C 4.532003 1.163604 3.709802 0
M  V30 40 H 6.108834 -2.510371 4.373548 0
M  V30 41 H 5.875155 -2.307073 6.135827 0
M  V30 42 H 4.454846 -2.652039 4.996383 0
M  V30 43 H 4.378862 -2.086011 2.961119 0
M  V30 44 H -0.658393 1.441125 1.554745 0
M  V30 45 H -2.210576 3.805602 2.051980 0
M  V30 46 H -5.903123 2.069967 2.806610 0
M  V30 47 H -5.302389 0.048388 1.650545 0
M  V30 48 H -3.636802 -1.325592 0.797657 0
M  V30 49 H -4.109957 0.118126 -1.293949 0
M  V30 50 H -2.346435 -0.159122 -1.592461 0
M  V30 51 H -4.606649 -2.163935 -1.438472 0
M  V30 52 H -3.879739 -2.640047 -3.469162 0
M  V30 53 H -3.188716 -1.047307 -3.402857 0
M  V30 54 H -3.435221 -3.241109 0.153508 0
M  V30 55 H -1.517002 -3.605938 -3.255091 0
M  V30 56 H -1.384247 -6.156561 -3.740402 0
M  V30 57 H -1.251868 -3.209494 0.714522 0
M  V30 58 H 0.506501 -2.015114 -0.487545 0
M  V30 59 H 0.020745 -3.549837 -1.233886 0
M  V30 60 H -0.475307 -1.895445 -1.937095 0
M  V30 61 H -0.723319 -0.552703 0.248771 0
M  V30 62 H -1.434791 -1.199530 1.712715 0
M  V30 63 H 0.914554 2.821980 -2.546384 0
M  V30 64 H 3.381512 2.568754 -2.748113 0
M  V30 65 H 4.865631 1.831591 4.509052 0
M  V30 END ATOM
M  V30 BEGIN BOND
M  V30 1 1 1 2
M  V30 2 1 2 3
M  V30 3 2 3 4
M  V30 4 1 4 5
M  V30 5 1 5 6
M  V30 6 2 5 7
M  V30 7 1 7 8
M  V30 8 2 8 9
M  V30 9 1 9 10
M  V30 10 1 10 11
M  V30 11 2 11 12
M  V30 12 1 11 13
M  V30 13 1 13 14
M  V30 14 2 14 15
M  V30 15 1 15 16
M  V30 16 2 16 17
M  V30 17 1 17 18
M  V30 18 2 18 19
M  V30 19 1 19 20
M  V30 20 1 20 21
M  V30 21 1 21 22
M  V30 22 1 22 23
M  V30 23 1 22 24
M  V30 24 1 24 25
M  V30 25 1 25 26
M  V30 26 2 26 27
M  V30 27 1 27 28
M  V30 28 2 28 29
M  V30 29 1 24 30
M  V30 30 1 30 31
M  V30 31 1 30 32
M  V30 32 2 10 33
M  V30 33 1 33 34
M  V30 34 2 34 35
M  V30 35 1 35 36
M  V30 36 1 7 37
M  V30 37 1 37 38
M  V30 38 2 37 39
M  V30 39 1 39 3
M  V30 40 1 35 8
M  V30 41 1 19 14
M  V30 42 1 32 20
M  V30 43 1 29 25
M  V30 44 1 1 40
M  V30 45 1 1 41
M  V30 46 1 1 42
M  V30 47 1 4 43
M  V30 48 1 13 44
M  V30 49 1 15 45
M  V30 50 1 17 46
M  V30 51 1 18 47
M  V30 52 1 20 48 CFG=1
M  V30 53 1 21 49
M  V30 54 1 21 50
M  V30 55 1 22 51 CFG=3
M  V30 56 1 23 52
M  V30 57 1 23 53
M  V30 58 1 24 54 CFG=1
M  V30 59 1 26 55
M  V30 60 1 27 56
M  V30 61 1 30 57 CFG=1
M  V30 62 1 31 58
M  V30 63 1 31 59
M  V30 64 1 31 60
M  V30 65 1 32 61
M  V30 66 1 32 62
M  V30 67 1 33 63
M  V30 68 1 34 64
M  V30 69 1 39 65
M  V30 END BOND
M  V30 END CTAB
M  END
>  <Dataset>  (446) 
ChEMBL_Kinases

>  <Ligand_Instance>  (446) 
nan

>  <PDB_ID>  (446) 
nan

>  <Standardized_SMILES>  (446) 
COc1cc(F)c(-c2nc(C(=O)Nc3cnccc3[C@H]3C[C@@H](N)[C@@H](n4ccnn4)[C@@H](C)C3)ccc2F)c(F)c1

>  <Name>  (446) 
nan

>  <Pocket>  (446) 
nan

>  <ATP_Site>  (446) 
nan

>  <Peripheral>  (446) 
nan

>  <Num_H_Atoms_ProtBoundConf>  (446) 
nan

>  <Num_Resolved_Atoms>  (446) 
nan

>  <Num_Not_Resolved_Atoms>  (446) 
nan

$$$$
CHEMBL4455202
     RDKit          3D

  0  0  0  0  0  0  0  0  0  0999 V3000
M  V30 BEGIN CTAB
M  V30 COUNTS 65 68 0 0 0
M  V30 BEGIN ATOM
M  V30 1 C 5.352739 0.888660 3.753627 0
M  V30 2 C 4.094513 -0.011841 3.785943 0
M  V30 3 C 4.526057 -1.241982 4.539287 0
M  V30 4 C 3.729769 -0.271269 2.368467 0
M  V30 5 C 2.416683 -0.972948 2.256213 0
M  V30 6 N 1.739508 -0.618331 0.993979 0
M  V30 7 C 1.332842 -1.431747 -0.096761 0
M  V30 8 O 1.665226 -2.599793 0.209793 0
M  V30 9 C 0.684600 -0.738196 -1.199873 0
M  V30 10 C 0.585115 0.619647 -1.316477 0
M  V30 11 C -0.073639 1.107082 -2.418207 0
M  V30 12 C -0.646453 0.323482 -3.422840 0
M  V30 13 N -1.339572 0.815369 -4.574655 0
M  V30 14 C -2.641991 0.821387 -3.974047 0
M  V30 15 N -3.007046 2.024487 -3.505043 0
M  V30 16 C -4.223087 2.156582 -2.902987 0
M  V30 17 C -5.068320 1.090879 -2.771857 0
M  V30 18 Cl -6.640282 1.275809 -1.995020 0
M  V30 19 C -4.675152 -0.127711 -3.257817 0
M  V30 20 N -5.491438 -1.287665 -3.152905 0
M  V30 21 C -5.022856 -2.493915 -2.531998 0
M  V30 22 C -4.956821 -3.689957 -3.226068 0
M  V30 23 C -4.529286 -4.895705 -2.736975 0
M  V30 24 C -4.122870 -4.895333 -1.398748 0
M  V30 25 C -4.160617 -3.749080 -0.649088 0
M  V30 26 C -4.603351 -2.571731 -1.209485 0
M  V30 27 Cl -4.636783 -1.116677 -0.218000 0
M  V30 28 N -3.458444 -0.246516 -3.856829 0
M  V30 29 C -0.510718 -1.046107 -3.244386 0
M  V30 30 C 0.149335 -1.590533 -2.143315 0
M  V30 31 C 1.480865 -0.766020 3.406430 0
M  V30 32 C 1.744609 0.485412 4.179735 0
M  V30 33 C 1.032024 0.329642 5.516415 0
M  V30 34 C 1.041103 1.640589 3.462850 0
M  V30 35 N 3.104472 0.769017 4.437122 0
M  V30 36 O 3.396799 2.094734 4.393973 0 RAD=2 VAL=1
M  V30 37 H 5.401813 1.363930 4.751347 0
M  V30 38 H 5.057400 1.698996 3.033726 0
M  V30 39 H 6.231828 0.327889 3.452829 0
M  V30 40 H 4.928538 -1.988625 3.798454 0
M  V30 41 H 3.735332 -1.694287 5.150255 0
M  V30 42 H 5.391900 -1.050358 5.234777 0
M  V30 43 H 4.554012 -0.900375 1.936974 0
M  V30 44 H 3.762308 0.685305 1.811220 0
M  V30 45 H 2.632197 -2.076846 2.242439 0
M  V30 46 H 1.642683 0.431150 1.142027 0
M  V30 47 H 1.005342 1.261009 -0.582349 0
M  V30 48 H -0.164882 2.166938 -2.538508 0
M  V30 49 H -0.966701 1.070580 -5.517944 0
M  V30 50 H -4.538237 3.114456 -2.519065 0
M  V30 51 H -6.444670 -1.228153 -3.546828 0
M  V30 52 H -5.270425 -3.698187 -4.260106 0
M  V30 53 H -4.496496 -5.800372 -3.313034 0
M  V30 54 H -3.771947 -5.758072 -0.893147 0
M  V30 55 H -3.845698 -3.736414 0.395150 0
M  V30 56 H -0.961932 -1.674748 -4.028650 0
M  V30 57 H 0.157959 -2.683147 -2.165664 0
M  V30 58 H 0.441906 -0.666560 2.981413 0
M  V30 59 H 1.408522 -1.668735 4.081745 0
M  V30 60 H 1.533491 1.025214 6.227499 0
M  V30 61 H -0.035741 0.623433 5.456502 0
M  V30 62 H 1.182454 -0.680034 5.918085 0
M  V30 63 H 0.135307 1.277645 2.896596 0
M  V30 64 H 1.700553 2.173993 2.776247 0
M  V30 65 H 0.644587 2.396852 4.182348 0
M  V30 END ATOM
M  V30 BEGIN BOND
M  V30 1 1 1 2
M  V30 2 1 2 3
M  V30 3 1 2 4
M  V30 4 1 4 5
M  V30 5 1 5 6
M  V30 6 1 6 7
M  V30 7 2 7 8
M  V30 8 1 7 9
M  V30 9 2 9 10
M  V30 10 1 10 11
M  V30 11 2 11 12
M  V30 12 1 12 13
M  V30 13 1 13 14
M  V30 14 2 14 15
M  V30 15 1 15 16
M  V30 16 2 16 17
M  V30 17 1 17 18
M  V30 18 1 17 19
M  V30 19 1 19 20
M  V30 20 1 20 21
M  V30 21 2 21 22
M  V30 22 1 22 23
M  V30 23 2 23 24
M  V30 24 1 24 25
M  V30 25 2 25 26
M  V30 26 1 26 27
M  V30 27 2 19 28
M  V30 28 1 12 29
M  V30 29 2 29 30
M  V30 30 1 5 31
M  V30 31 1 31 32
M  V30 32 1 32 33
M  V30 33 1 32 34
M  V30 34 1 32 35
M  V30 35 1 35 36
M  V30 36 1 35 2
M  V30 37 1 30 9
M  V30 38 1 28 14
M  V30 39 1 26 21
M  V30 40 1 1 37
M  V30 41 1 1 38
M  V30 42 1 1 39
M  V30 43 1 3 40
M  V30 44 1 3 41
M  V30 45 1 3 42
M  V30 46 1 4 43
M  V30 47 1 4 44
M  V30 48 1 5 45
M  V30 49 1 6 46
M  V30 50 1 10 47
M  V30 51 1 11 48
M  V30 52 1 13 49
M  V30 53 1 16 50
M  V30 54 1 20 51
M  V30 55 1 22 52
M  V30 56 1 23 53
M  V30 57 1 24 54
M  V30 58 1 25 55
M  V30 59 1 29 56
M  V30 60 1 30 57
M  V30 61 1 31 58
M  V30 62 1 31 59
M  V30 63 1 33 60
M  V30 64 1 33 61
M  V30 65 1 33 62
M  V30 66 1 34 63
M  V30 67 1 34 64
M  V30 68 1 34 65
M  V30 END BOND
M  V30 END CTAB
M  END
>  <Dataset>  (447) 
ChEMBL_Kinases

>  <Ligand_Instance>  (447) 
nan

>  <PDB_ID>  (447) 
nan

>  <Standardized_SMILES>  (447) 
CC1(C)CC(NC(=O)c2ccc(Nc3ncc(Cl)c(Nc4ccccc4Cl)n3)cc2)CC(C)(C)N1[O]

>  <Name>  (447) 
nan

>  <Pocket>  (447) 
nan

>  <ATP_Site>  (447) 
nan

>  <Peripheral>  (447) 
nan

>  <Num_H_Atoms_ProtBoundConf>  (447) 
nan

>  <Num_Resolved_Atoms>  (447) 
nan

>  <Num_Not_Resolved_Atoms>  (447) 
nan

$$$$
CHEMBL4454552
     RDKit          3D

  0  0  0  0  0  0  0  0  0  0999 V3000
M  V30 BEGIN CTAB
M  V30 COUNTS 45 47 0 0 0
M  V30 BEGIN ATOM
M  V30 1 C 4.130057 -5.759904 -0.681390 0
M  V30 2 C 5.254950 -4.769310 -0.603560 0
M  V30 3 O 4.732995 -3.489055 -0.437421 0
M  V30 4 C 3.881802 -2.859372 -1.326151 0
M  V30 5 C 3.364163 -3.319135 -2.539702 0
M  V30 6 C 2.522786 -2.500740 -3.260004 0
M  V30 7 C 2.159433 -1.238284 -2.844280 0
M  V30 8 C 2.648932 -0.754624 -1.657985 0
M  V30 9 C 2.299327 0.613718 -1.136087 0
M  V30 10 N 1.123688 0.459615 -0.316884 0
M  V30 11 C 0.647549 1.639973 0.315882 0
M  V30 12 O 1.232710 2.742283 0.155306 0
M  V30 13 C -0.530824 1.651061 1.179532 0
M  V30 14 C -0.920457 2.850608 1.737566 0
M  V30 15 C -2.034497 2.964293 2.581149 0
M  V30 16 C -2.754817 1.798234 2.845514 0
M  V30 17 C -3.933050 1.773865 3.705283 0
M  V30 18 C -4.281762 0.667389 4.473728 0
M  V30 19 C -5.377366 0.580773 5.301266 0
M  V30 20 N -6.141569 1.689441 5.331193 0
M  V30 21 C -5.851307 2.777085 4.613588 0
M  V30 22 C -4.764969 2.896712 3.777274 0
M  V30 23 C -2.393830 0.577812 2.303686 0
M  V30 24 C -1.284113 0.533317 1.479004 0
M  V30 25 C 3.499752 -1.580018 -0.927590 0
M  V30 26 H 3.145295 -5.235409 -0.652206 0
M  V30 27 H 4.147053 -6.350190 -1.619130 0
M  V30 28 H 4.179520 -6.477760 0.169858 0
M  V30 29 H 5.860360 -4.824943 -1.552961 0
M  V30 30 H 5.891109 -5.044961 0.275240 0
M  V30 31 H 3.698286 -4.307203 -2.787210 0
M  V30 32 H 2.176803 -2.953873 -4.187445 0
M  V30 33 H 1.499256 -0.641932 -3.444625 0
M  V30 34 H 3.161172 1.032817 -0.567090 0
M  V30 35 H 2.159989 1.243680 -2.019651 0
M  V30 36 H 0.634295 -0.451795 -0.180847 0
M  V30 37 H -0.432791 3.797274 1.594265 0
M  V30 38 H -2.355755 3.897077 3.028348 0
M  V30 39 H -3.598290 -0.188278 4.384297 0
M  V30 40 H -5.505334 -0.346591 5.827258 0
M  V30 41 H -6.483517 3.654947 4.656688 0
M  V30 42 H -4.531509 3.772308 3.200189 0
M  V30 43 H -2.914129 -0.351824 2.474249 0
M  V30 44 H -0.986922 -0.401932 1.048548 0
M  V30 45 H 3.854360 -1.140158 0.003454 0
M  V30 END ATOM
M  V30 BEGIN BOND
M  V30 1 1 1 2
M  V30 2 1 2 3
M  V30 3 1 3 4
M  V30 4 2 4 5
M  V30 5 1 5 6
M  V30 6 2 6 7
M  V30 7 1 7 8
M  V30 8 1 8 9
M  V30 9 1 9 10
M  V30 10 1 10 11
M  V30 11 2 11 12
M  V30 12 1 11 13
M  V30 13 2 13 14
M  V30 14 1 14 15
M  V30 15 2 15 16
M  V30 16 1 16 17
M  V30 17 2 17 18
M  V30 18 1 18 19
M  V30 19 2 19 20
M  V30 20 1 20 21
M  V30 21 2 21 22
M  V30 22 1 16 23
M  V30 23 2 23 24
M  V30 24 2 8 25
M  V30 25 1 25 4
M  V30 26 1 24 13
M  V30 27 1 22 17
M  V30 28 1 1 26
M  V30 29 1 1 27
M  V30 30 1 1 28
M  V30 31 1 2 29
M  V30 32 1 2 30
M  V30 33 1 5 31
M  V30 34 1 6 32
M  V30 35 1 7 33
M  V30 36 1 9 34
M  V30 37 1 9 35
M  V30 38 1 10 36
M  V30 39 1 14 37
M  V30 40 1 15 38
M  V30 41 1 18 39
M  V30 42 1 19 40
M  V30 43 1 21 41
M  V30 44 1 22 42
M  V30 45 1 23 43
M  V30 46 1 24 44
M  V30 47 1 25 45
M  V30 END BOND
M  V30 END CTAB
M  END
>  <Dataset>  (448) 
ChEMBL_Kinases

>  <Ligand_Instance>  (448) 
nan

>  <PDB_ID>  (448) 
nan

>  <Standardized_SMILES>  (448) 
CCOc1cccc(CNC(=O)c2ccc(-c3ccncc3)cc2)c1

>  <Name>  (448) 
nan

>  <Pocket>  (448) 
nan

>  <ATP_Site>  (448) 
nan

>  <Peripheral>  (448) 
nan

>  <Num_H_Atoms_ProtBoundConf>  (448) 
nan

>  <Num_Resolved_Atoms>  (448) 
nan

>  <Num_Not_Resolved_Atoms>  (448) 
nan

$$$$
CHEMBL3691975
     RDKit          3D

  0  0  0  0  0  0  0  0  0  0999 V3000
M  V30 BEGIN CTAB
M  V30 COUNTS 67 70 0 0 0
M  V30 BEGIN ATOM
M  V30 1 C 3.351877 -0.242357 8.347784 0
M  V30 2 O 3.572609 0.203098 7.021875 0
M  V30 3 C 2.575453 0.021459 6.074616 0
M  V30 4 O 1.699794 -0.541192 6.769267 0
M  V30 5 N 2.557513 0.374256 4.709505 0
M  V30 6 C 1.459013 0.126073 3.848568 0 CFG=2
M  V30 7 C 1.607532 -0.686049 2.664292 0 CFG=2
M  V30 8 N 2.186328 -1.985955 2.802009 0
M  V30 9 C 2.142774 0.086685 1.469123 0
M  V30 10 C 1.022809 1.002859 0.987317 0 CFG=2
M  V30 11 C 1.424348 1.887918 -0.115390 0
M  V30 12 C 1.982506 3.143062 0.037057 0
M  V30 13 C 2.355187 3.971183 -1.000981 0
M  V30 14 N 2.177889 3.561701 -2.269639 0
M  V30 15 C 1.641438 2.354272 -2.520373 0
M  V30 16 C 1.274818 1.539812 -1.466888 0
M  V30 17 N 0.716920 0.292241 -1.808126 0
M  V30 18 C 1.420382 -0.941847 -2.042561 0
M  V30 19 O 2.677883 -1.079569 -1.972738 0
M  V30 20 C 0.602038 -2.099426 -2.383076 0
M  V30 21 C 1.194735 -3.328431 -2.628697 0
M  V30 22 C 0.517576 -4.483565 -2.958800 0
M  V30 23 C -0.859352 -4.393037 -3.047907 0
M  V30 24 F -1.550921 -5.511795 -3.370539 0
M  V30 25 C -1.450233 -3.157573 -2.800602 0
M  V30 26 C -2.902494 -3.167833 -2.919730 0
M  V30 27 C -3.778730 -3.437504 -1.891449 0
M  V30 28 F -3.265669 -3.713743 -0.677751 0
M  V30 29 C -5.135896 -3.415386 -2.137327 0
M  V30 30 C -5.655990 -3.130893 -3.385350 0
M  V30 31 O -7.005647 -3.092908 -3.697131 0
M  V30 32 C -7.991891 -3.351345 -2.728448 0
M  V30 33 C -4.737958 -2.865650 -4.390202 0
M  V30 34 C -3.371903 -2.874171 -4.200225 0
M  V30 35 F -2.549110 -2.602774 -5.241022 0
M  V30 36 N -0.717051 -2.076955 -2.483805 0
M  V30 37 C 0.295226 1.587518 2.122719 0
M  V30 38 C 0.891218 1.476433 3.482348 0 CFG=2
M  V30 39 C 1.892008 2.588828 3.735646 0
M  V30 40 H 3.087153 -1.317103 8.385524 0
M  V30 41 H 4.244120 0.006702 8.951835 0
M  V30 42 H 2.454645 0.312699 8.705313 0
M  V30 43 H 3.486045 0.829910 4.505030 0
M  V30 44 H 0.689823 -0.384866 4.505215 0
M  V30 45 H 0.555630 -0.953217 2.329987 0
M  V30 46 H 1.528504 -2.706405 3.169724 0
M  V30 47 H 2.473012 -2.308464 1.850949 0
M  V30 48 H 2.343205 -0.720791 0.720451 0
M  V30 49 H 3.000046 0.714777 1.673970 0
M  V30 50 H 0.306471 0.265392 0.500765 0
M  V30 51 H 2.148455 3.524246 1.016181 0
M  V30 52 H 2.790174 4.949727 -0.807112 0
M  V30 53 H 1.505548 2.040036 -3.543577 0
M  V30 54 H -0.323858 0.321117 -1.886918 0
M  V30 55 H 2.274858 -3.416612 -2.563012 0
M  V30 56 H 1.051494 -5.413994 -3.137778 0
M  V30 57 H -5.828531 -3.624449 -1.341688 0
M  V30 58 H -8.170151 -2.481666 -2.079023 0
M  V30 59 H -8.911507 -3.731182 -3.221107 0
M  V30 60 H -7.633582 -4.198274 -2.098173 0
M  V30 61 H -5.114655 -2.637464 -5.387184 0
M  V30 62 H -0.777420 1.219578 2.191159 0
M  V30 63 H 0.084733 2.697401 2.007235 0
M  V30 64 H 0.040079 1.733661 4.192397 0
M  V30 65 H 2.008012 2.779382 4.842550 0
M  V30 66 H 1.539280 3.557377 3.332512 0
M  V30 67 H 2.892145 2.404830 3.356182 0
M  V30 END ATOM
M  V30 BEGIN BOND
M  V30 1 1 1 2
M  V30 2 1 2 3
M  V30 3 2 3 4
M  V30 4 1 3 5
M  V30 5 1 5 6
M  V30 6 1 6 7
M  V30 7 1 7 8
M  V30 8 1 7 9
M  V30 9 1 9 10
M  V30 10 1 10 11
M  V30 11 2 11 12
M  V30 12 1 12 13
M  V30 13 2 13 14
M  V30 14 1 14 15
M  V30 15 2 15 16
M  V30 16 1 16 17
M  V30 17 1 17 18
M  V30 18 2 18 19
M  V30 19 1 18 20
M  V30 20 2 20 21
M  V30 21 1 21 22
M  V30 22 2 22 23
M  V30 23 1 23 24
M  V30 24 1 23 25
M  V30 25 1 25 26
M  V30 26 2 26 27
M  V30 27 1 27 28
M  V30 28 1 27 29
M  V30 29 2 29 30
M  V30 30 1 30 31
M  V30 31 1 31 32
M  V30 32 1 30 33
M  V30 33 2 33 34
M  V30 34 1 34 35
M  V30 35 2 25 36
M  V30 36 1 10 37
M  V30 37 1 37 38
M  V30 38 1 38 39
M  V30 39 1 38 6
M  V30 40 1 16 11
M  V30 41 1 36 20
M  V30 42 1 34 26
M  V30 43 1 1 40
M  V30 44 1 1 41
M  V30 45 1 1 42
M  V30 46 1 5 43
M  V30 47 1 6 44 CFG=1
M  V30 48 1 7 45 CFG=3
M  V30 49 1 8 46
M  V30 50 1 8 47
M  V30 51 1 9 48
M  V30 52 1 9 49
M  V30 53 1 10 50 CFG=3
M  V30 54 1 12 51
M  V30 55 1 13 52
M  V30 56 1 15 53
M  V30 57 1 17 54
M  V30 58 1 21 55
M  V30 59 1 22 56
M  V30 60 1 29 57
M  V30 61 1 32 58
M  V30 62 1 32 59
M  V30 63 1 32 60
M  V30 64 1 33 61
M  V30 65 1 37 62
M  V30 66 1 37 63
M  V30 67 1 38 64 CFG=1
M  V30 68 1 39 65
M  V30 69 1 39 66
M  V30 70 1 39 67
M  V30 END BOND
M  V30 END CTAB
M  END
>  <Dataset>  (449) 
ChEMBL_Kinases

>  <Ligand_Instance>  (449) 
nan

>  <PDB_ID>  (449) 
nan

>  <Standardized_SMILES>  (449) 
COC(=O)N[C@@H]1[C@H](N)C[C@H](c2ccncc2NC(=O)c2ccc(F)c(-c3c(F)cc(OC)cc3F)n2)C[C@@H]1C

>  <Name>  (449) 
nan

>  <Pocket>  (449) 
nan

>  <ATP_Site>  (449) 
nan

>  <Peripheral>  (449) 
nan

>  <Num_H_Atoms_ProtBoundConf>  (449) 
nan

>  <Num_Resolved_Atoms>  (449) 
nan

>  <Num_Not_Resolved_Atoms>  (449) 
nan

$$$$
CHEMBL4455163
     RDKit          3D

  0  0  0  0  0  0  0  0  0  0999 V3000
M  V30 BEGIN CTAB
M  V30 COUNTS 58 61 0 0 0
M  V30 BEGIN ATOM
M  V30 1 C 5.269090 -2.405281 3.334483 0
M  V30 2 N 5.478820 -1.825240 2.020713 0
M  V30 3 C 6.683158 -2.175971 1.328650 0
M  V30 4 C 4.478954 -0.965981 1.537331 0
M  V30 5 C 3.367932 -0.716422 2.312032 0
M  V30 6 C 2.327588 0.123293 1.909968 0
M  V30 7 C 2.432627 0.725258 0.672916 0
M  V30 8 C 1.329765 1.591447 0.290508 0
M  V30 9 O 0.358147 1.751669 1.066144 0
M  V30 10 N 1.225848 2.313923 -0.927948 0
M  V30 11 C -0.017299 3.052238 -0.920231 0
M  V30 12 C -0.166789 4.340072 -0.432189 0
M  V30 13 C -1.422906 4.904333 -0.498848 0
M  V30 14 C -2.491965 4.205171 -1.034803 0
M  V30 15 C -2.336537 2.905338 -1.526329 0
M  V30 16 N -3.511561 2.299065 -2.050032 0
M  V30 17 S -3.887812 0.664642 -1.628540 0
M  V30 18 O -2.780341 -0.174477 -2.159121 0
M  V30 19 O -5.199310 0.356198 -2.337664 0
M  V30 20 C -4.131537 0.474555 0.091852 0
M  V30 21 O -4.438679 -0.785041 0.502085 0
M  V30 22 C -3.883461 -1.996898 0.516269 0
M  V30 23 C -4.814672 -2.874252 1.097311 0
M  V30 24 C -4.548323 -4.238208 1.267896 0
M  V30 25 C -3.331562 -4.727146 0.849756 0
M  V30 26 C -2.976899 -6.056169 0.975006 0
M  V30 27 O -3.783484 -6.855751 1.486220 0
M  V30 28 C -1.731516 -6.432580 0.521190 0
M  V30 29 C -0.810472 -5.551139 -0.055962 0
M  V30 30 O -1.198139 -4.286870 -0.153603 0
M  V30 31 C -2.382997 -3.913288 0.274906 0
M  V30 32 C -2.704085 -2.590850 0.136727 0
M  V30 33 C -1.071010 2.358093 -1.450527 0
M  V30 34 C 3.510816 0.521239 -0.149919 0
M  V30 35 C 4.497567 -0.321874 0.318222 0
M  V30 36 H 4.280604 -2.938730 3.275335 0
M  V30 37 H 5.132169 -1.597194 4.083902 0
M  V30 38 H 6.064761 -3.099795 3.621957 0
M  V30 39 H 6.661048 -3.272864 1.106776 0
M  V30 40 H 6.859071 -1.633856 0.391082 0
M  V30 41 H 7.583837 -2.010102 1.988408 0
M  V30 42 H 3.237321 -1.171990 3.305487 0
M  V30 43 H 1.468092 0.278568 2.579917 0
M  V30 44 H 2.028986 2.207608 -1.617171 0
M  V30 45 H 0.720143 4.816752 -0.029588 0
M  V30 46 H -1.487347 5.906681 -0.106718 0
M  V30 47 H -3.415965 4.792153 -1.014074 0
M  V30 48 H -4.103567 2.904686 -2.686489 0
M  V30 49 H -5.002938 1.154093 0.373242 0
M  V30 50 H -3.270242 0.946292 0.636494 0
M  V30 51 H -5.822238 -2.684548 1.488366 0
M  V30 52 H -5.190045 -4.987046 1.698351 0
M  V30 53 H -1.401333 -7.455156 0.593105 0
M  V30 54 H 0.159668 -5.874010 -0.403213 0
M  V30 55 H -2.019393 -1.878110 -0.287246 0
M  V30 56 H -1.011605 1.351791 -1.845389 0
M  V30 57 H 3.590140 0.994847 -1.119110 0
M  V30 58 H 5.344486 -0.481018 -0.330627 0
M  V30 END ATOM
M  V30 BEGIN BOND
M  V30 1 1 1 2
M  V30 2 1 2 3
M  V30 3 1 2 4
M  V30 4 2 4 5
M  V30 5 1 5 6
M  V30 6 2 6 7
M  V30 7 1 7 8
M  V30 8 2 8 9
M  V30 9 1 8 10
M  V30 10 1 10 11
M  V30 11 2 11 12
M  V30 12 1 12 13
M  V30 13 2 13 14
M  V30 14 1 14 15
M  V30 15 1 15 16
M  V30 16 1 16 17
M  V30 17 2 17 18
M  V30 18 2 17 19
M  V30 19 1 17 20
M  V30 20 1 20 21
M  V30 21 1 21 22
M  V30 22 2 22 23
M  V30 23 1 23 24
M  V30 24 2 24 25
M  V30 25 1 25 26
M  V30 26 2 26 27
M  V30 27 1 26 28
M  V30 28 2 28 29
M  V30 29 1 29 30
M  V30 30 1 30 31
M  V30 31 2 31 32
M  V30 32 2 15 33
M  V30 33 1 7 34
M  V30 34 2 34 35
M  V30 35 1 35 4
M  V30 36 1 33 11
M  V30 37 1 32 22
M  V30 38 1 31 25
M  V30 39 1 1 36
M  V30 40 1 1 37
M  V30 41 1 1 38
M  V30 42 1 3 39
M  V30 43 1 3 40
M  V30 44 1 3 41
M  V30 45 1 5 42
M  V30 46 1 6 43
M  V30 47 1 10 44
M  V30 48 1 12 45
M  V30 49 1 13 46
M  V30 50 1 14 47
M  V30 51 1 16 48
M  V30 52 1 20 49
M  V30 53 1 20 50
M  V30 54 1 23 51
M  V30 55 1 24 52
M  V30 56 1 28 53
M  V30 57 1 29 54
M  V30 58 1 32 55
M  V30 59 1 33 56
M  V30 60 1 34 57
M  V30 61 1 35 58
M  V30 END BOND
M  V30 END CTAB
M  END
>  <Dataset>  (450) 
ChEMBL_Kinases

>  <Ligand_Instance>  (450) 
nan

>  <PDB_ID>  (450) 
nan

>  <Standardized_SMILES>  (450) 
CN(C)c1ccc(C(=O)Nc2cccc(NS(=O)(=O)COc3ccc4c(=O)ccoc4c3)c2)cc1

>  <Name>  (450) 
nan

>  <Pocket>  (450) 
nan

>  <ATP_Site>  (450) 
nan

>  <Peripheral>  (450) 
nan

>  <Num_H_Atoms_ProtBoundConf>  (450) 
nan

>  <Num_Resolved_Atoms>  (450) 
nan

>  <Num_Not_Resolved_Atoms>  (450) 
nan

$$$$
CHEMBL3691974
     RDKit          3D

  0  0  0  0  0  0  0  0  0  0999 V3000
M  V30 BEGIN CTAB
M  V30 COUNTS 62 65 0 0 0
M  V30 BEGIN ATOM
M  V30 1 C 1.986202 -0.925271 2.229775 0
M  V30 2 C 2.702076 -1.351914 0.991983 0 CFG=1
M  V30 3 C 2.253556 -2.640383 0.389542 0
M  V30 4 C 1.280795 -2.453541 -0.749101 0 CFG=1
M  V30 5 C 0.400312 -3.571586 -1.018741 0
M  V30 6 C 0.757860 -4.570180 -1.911772 0
M  V30 7 C -0.017527 -5.682014 -2.243271 0
M  V30 8 N -1.221576 -5.818582 -1.657582 0
M  V30 9 C -1.630304 -4.892493 -0.785686 0
M  V30 10 C -0.844156 -3.793790 -0.469126 0
M  V30 11 N -1.379435 -2.871515 0.468474 0
M  V30 12 C -1.328128 -2.786503 1.891290 0
M  V30 13 O -0.713838 -3.642642 2.585783 0
M  V30 14 C -2.034209 -1.644898 2.460854 0
M  V30 15 C -2.010494 -1.509886 3.821551 0
M  V30 16 C -2.647590 -0.461761 4.450494 0
M  V30 17 C -3.327990 0.479445 3.705881 0
M  V30 18 F -4.013798 1.573099 4.110795 0
M  V30 19 C -3.339714 0.323043 2.317450 0
M  V30 20 C -3.978250 1.160622 1.302602 0
M  V30 21 C -3.339803 2.202458 0.710767 0
M  V30 22 F -2.076955 2.532486 1.017227 0
M  V30 23 C -4.070611 2.916792 -0.239793 0
M  V30 24 C -5.385231 2.625621 -0.604098 0
M  V30 25 C -5.961757 1.536501 0.056433 0
M  V30 26 C -5.278277 0.800053 1.003898 0
M  V30 27 F -5.942659 -0.240657 1.582354 0
M  V30 28 N -2.707811 -0.710584 1.741097 0
M  V30 29 C 0.658988 -1.111457 -0.547408 0
M  V30 30 C 1.711749 -0.071778 -0.874836 0 CFG=1
M  V30 31 N 1.083044 1.236924 -0.644766 0
M  V30 32 C 2.883726 -0.215897 0.004836 0 CFG=1
M  V30 33 O 3.069041 0.993389 0.721746 0
M  V30 34 C 4.301141 1.562981 0.519308 0
M  V30 35 C 4.565665 1.921383 -0.895416 0
M  V30 36 O 3.878460 1.817512 -1.960067 0
M  V30 37 O 5.828525 2.473844 -1.007018 0
M  V30 38 H 1.212719 -1.610872 2.575129 0
M  V30 39 H 2.727918 -0.874918 3.077802 0
M  V30 40 H 1.663260 0.131740 2.097193 0
M  V30 41 H 3.777169 -1.561361 1.328201 0
M  V30 42 H 3.139056 -3.189893 0.015796 0
M  V30 43 H 1.856874 -3.271209 1.210863 0
M  V30 44 H 1.938517 -2.338398 -1.664142 0
M  V30 45 H 1.737751 -4.488969 -2.409382 0
M  V30 46 H 0.376296 -6.393255 -2.958755 0
M  V30 47 H -2.615140 -5.017273 -0.317196 0
M  V30 48 H -1.882408 -2.173973 -0.126407 0
M  V30 49 H -1.495181 -2.212493 4.466517 0
M  V30 50 H -2.684783 -0.271360 5.508866 0
M  V30 51 H -3.542948 3.754776 -0.710364 0
M  V30 52 H -5.878189 3.230177 -1.349999 0
M  V30 53 H -6.996374 1.354030 -0.270375 0
M  V30 54 H -0.144850 -0.909889 -1.326419 0
M  V30 55 H 0.297116 -0.893607 0.459255 0
M  V30 56 H 1.968500 -0.116079 -1.968334 0
M  V30 57 H 1.117235 1.761378 -1.541015 0
M  V30 58 H 0.086321 1.137896 -0.368515 0
M  V30 59 H 3.833926 -0.343815 -0.571390 0
M  V30 60 H 4.354424 2.533626 1.081249 0
M  V30 61 H 5.139017 0.921355 0.900437 0
M  V30 62 H 6.101569 2.831324 -1.930770 0
M  V30 END ATOM
M  V30 BEGIN BOND
M  V30 1 1 1 2
M  V30 2 1 2 3
M  V30 3 1 3 4
M  V30 4 1 4 5
M  V30 5 2 5 6
M  V30 6 1 6 7
M  V30 7 2 7 8
M  V30 8 1 8 9
M  V30 9 2 9 10
M  V30 10 1 10 11
M  V30 11 1 11 12
M  V30 12 2 12 13
M  V30 13 1 12 14
M  V30 14 2 14 15
M  V30 15 1 15 16
M  V30 16 2 16 17
M  V30 17 1 17 18
M  V30 18 1 17 19
M  V30 19 1 19 20
M  V30 20 2 20 21
M  V30 21 1 21 22
M  V30 22 1 21 23
M  V30 23 2 23 24
M  V30 24 1 24 25
M  V30 25 2 25 26
M  V30 26 1 26 27
M  V30 27 2 19 28
M  V30 28 1 4 29
M  V30 29 1 29 30
M  V30 30 1 30 31
M  V30 31 1 30 32
M  V30 32 1 32 33
M  V30 33 1 33 34
M  V30 34 1 34 35
M  V30 35 2 35 36
M  V30 36 1 35 37
M  V30 37 1 32 2
M  V30 38 1 10 5
M  V30 39 1 28 14
M  V30 40 1 26 20
M  V30 41 1 1 38
M  V30 42 1 1 39
M  V30 43 1 1 40
M  V30 44 1 2 41 CFG=1
M  V30 45 1 3 42
M  V30 46 1 3 43
M  V30 47 1 4 44 CFG=3
M  V30 48 1 6 45
M  V30 49 1 7 46
M  V30 50 1 9 47
M  V30 51 1 11 48
M  V30 52 1 15 49
M  V30 53 1 16 50
M  V30 54 1 23 51
M  V30 55 1 24 52
M  V30 56 1 25 53
M  V30 57 1 29 54
M  V30 58 1 29 55
M  V30 59 1 30 56 CFG=3
M  V30 60 1 31 57
M  V30 61 1 31 58
M  V30 62 1 32 59 CFG=3
M  V30 63 1 34 60
M  V30 64 1 34 61
M  V30 65 1 37 62
M  V30 END BOND
M  V30 END CTAB
M  END
>  <Dataset>  (451) 
ChEMBL_Kinases

>  <Ligand_Instance>  (451) 
nan

>  <PDB_ID>  (451) 
nan

>  <Standardized_SMILES>  (451) 
C[C@H]1C[C@@H](c2ccncc2NC(=O)c2ccc(F)c(-c3c(F)cccc3F)n2)C[C@@H](N)[C@H]1OCC(=O)O

>  <Name>  (451) 
nan

>  <Pocket>  (451) 
nan

>  <ATP_Site>  (451) 
nan

>  <Peripheral>  (451) 
nan

>  <Num_H_Atoms_ProtBoundConf>  (451) 
nan

>  <Num_Resolved_Atoms>  (451) 
nan

>  <Num_Not_Resolved_Atoms>  (451) 
nan

$$$$
CHEMBL3691973
     RDKit          3D

  0  0  0  0  0  0  0  0  0  0999 V3000
M  V30 BEGIN CTAB
M  V30 COUNTS 62 65 0 0 0
M  V30 BEGIN ATOM
M  V30 1 C 3.239053 -1.650085 1.833041 0
M  V30 2 C 1.861780 -2.208681 2.228544 0 CFG=2
M  V30 3 C 0.881558 -1.690452 1.234204 0
M  V30 4 C 0.113455 -0.471911 1.610722 0 CFG=2
M  V30 5 C 0.780790 0.790887 1.157602 0
M  V30 6 C 1.652736 1.535459 1.923065 0
M  V30 7 C 2.231768 2.692395 1.448628 0
M  V30 8 N 1.986825 3.167483 0.218633 0
M  V30 9 C 1.144144 2.479967 -0.568714 0
M  V30 10 C 0.550276 1.318655 -0.119565 0
M  V30 11 N -0.343843 0.628004 -1.010753 0
M  V30 12 C -1.675293 1.099229 -0.835132 0
M  V30 13 O -1.803913 2.006359 0.046485 0
M  V30 14 C -2.802646 0.579992 -1.607865 0
M  V30 15 C -4.046113 1.118554 -1.341734 0
M  V30 16 C -5.164710 0.680695 -2.031301 0
M  V30 17 C -5.013486 -0.310764 -2.995852 0
M  V30 18 F -6.021812 -0.833699 -3.746852 0
M  V30 19 C -3.761367 -0.830765 -3.241267 0
M  V30 20 C -3.456019 -1.876704 -4.224981 0
M  V30 21 C -3.480205 -3.227528 -3.923811 0
M  V30 22 F -3.810056 -3.527456 -2.641896 0
M  V30 23 C -3.184658 -4.165761 -4.886020 0
M  V30 24 C -2.853787 -3.806157 -6.182958 0
M  V30 25 C -2.819135 -2.475003 -6.520325 0
M  V30 26 C -3.121064 -1.530035 -5.535222 0
M  V30 27 F -3.094307 -0.197040 -5.844895 0
M  V30 28 N -2.675881 -0.379483 -2.545765 0
M  V30 29 C -0.343138 -0.405937 3.019932 0
M  V30 30 C 0.355862 -1.240452 4.017299 0 CFG=2
M  V30 31 N 0.510712 -0.441437 5.250581 0
M  V30 32 C 1.644779 -1.856302 3.639123 0 CFG=2
M  V30 33 O 2.695268 -1.083024 4.188687 0
M  V30 34 C 3.332713 -1.800949 5.175516 0
M  V30 35 C 4.453054 -1.059541 5.798646 0
M  V30 36 O 5.211235 -1.461659 6.722128 0
M  V30 37 O 5.149936 0.149093 5.771497 0
M  V30 38 H 4.048245 -2.365924 2.075940 0
M  V30 39 H 3.295351 -1.458707 0.747710 0
M  V30 40 H 3.457589 -0.690156 2.346122 0
M  V30 41 H 1.976502 -3.305451 2.096521 0
M  V30 42 H 0.177038 -2.540865 0.981563 0
M  V30 43 H 1.353805 -1.498548 0.235342 0
M  V30 44 H -0.824078 -0.508971 0.976506 0
M  V30 45 H 1.874888 1.192753 2.913105 0
M  V30 46 H 2.905459 3.218015 2.114059 0
M  V30 47 H 0.916825 2.827854 -1.572509 0
M  V30 48 H -0.137443 -0.102785 -1.697002 0
M  V30 49 H -4.242454 1.879425 -0.618639 0
M  V30 50 H -6.181423 1.059596 -1.875771 0
M  V30 51 H -3.227993 -5.204809 -4.560643 0
M  V30 52 H -2.625818 -4.565981 -6.921784 0
M  V30 53 H -2.568356 -2.127822 -7.519347 0
M  V30 54 H -0.297132 0.664124 3.337881 0
M  V30 55 H -1.453470 -0.636439 3.045229 0
M  V30 56 H -0.380339 -2.036982 4.354858 0
M  V30 57 H 1.316772 0.196648 5.128943 0
M  V30 58 H -0.375326 0.112047 5.342579 0
M  V30 59 H 1.728102 -2.810064 4.248080 0
M  V30 60 H 2.574295 -2.056058 5.964765 0
M  V30 61 H 3.705758 -2.737297 4.756159 0
M  V30 62 H 4.857513 0.958210 6.304616 0
M  V30 END ATOM
M  V30 BEGIN BOND
M  V30 1 1 1 2
M  V30 2 1 2 3
M  V30 3 1 3 4
M  V30 4 1 4 5
M  V30 5 2 5 6
M  V30 6 1 6 7
M  V30 7 2 7 8
M  V30 8 1 8 9
M  V30 9 2 9 10
M  V30 10 1 10 11
M  V30 11 1 11 12
M  V30 12 2 12 13
M  V30 13 1 12 14
M  V30 14 2 14 15
M  V30 15 1 15 16
M  V30 16 2 16 17
M  V30 17 1 17 18
M  V30 18 1 17 19
M  V30 19 1 19 20
M  V30 20 2 20 21
M  V30 21 1 21 22
M  V30 22 1 21 23
M  V30 23 2 23 24
M  V30 24 1 24 25
M  V30 25 2 25 26
M  V30 26 1 26 27
M  V30 27 2 19 28
M  V30 28 1 4 29
M  V30 29 1 29 30
M  V30 30 1 30 31
M  V30 31 1 30 32
M  V30 32 1 32 33
M  V30 33 1 33 34
M  V30 34 1 34 35
M  V30 35 2 35 36
M  V30 36 1 35 37
M  V30 37 1 32 2
M  V30 38 1 10 5
M  V30 39 1 28 14
M  V30 40 1 26 20
M  V30 41 1 1 38
M  V30 42 1 1 39
M  V30 43 1 1 40
M  V30 44 1 2 41 CFG=1
M  V30 45 1 3 42
M  V30 46 1 3 43
M  V30 47 1 4 44 CFG=3
M  V30 48 1 6 45
M  V30 49 1 7 46
M  V30 50 1 9 47
M  V30 51 1 11 48
M  V30 52 1 15 49
M  V30 53 1 16 50
M  V30 54 1 23 51
M  V30 55 1 24 52
M  V30 56 1 25 53
M  V30 57 1 29 54
M  V30 58 1 29 55
M  V30 59 1 30 56 CFG=1
M  V30 60 1 31 57
M  V30 61 1 31 58
M  V30 62 1 32 59 CFG=1
M  V30 63 1 34 60
M  V30 64 1 34 61
M  V30 65 1 37 62
M  V30 END BOND
M  V30 END CTAB
M  END
>  <Dataset>  (452) 
ChEMBL_Kinases

>  <Ligand_Instance>  (452) 
nan

>  <PDB_ID>  (452) 
nan

>  <Standardized_SMILES>  (452) 
C[C@@H]1C[C@H](c2ccncc2NC(=O)c2ccc(F)c(-c3c(F)cccc3F)n2)C[C@H](N)[C@@H]1OCC(=O)O

>  <Name>  (452) 
nan

>  <Pocket>  (452) 
nan

>  <ATP_Site>  (452) 
nan

>  <Peripheral>  (452) 
nan

>  <Num_H_Atoms_ProtBoundConf>  (452) 
nan

>  <Num_Resolved_Atoms>  (452) 
nan

>  <Num_Not_Resolved_Atoms>  (452) 
nan

$$$$
CHEMBL2407749
     RDKit          3D

  0  0  0  0  0  0  0  0  0  0999 V3000
M  V30 BEGIN CTAB
M  V30 COUNTS 44 48 0 0 0
M  V30 BEGIN ATOM
M  V30 1 O 4.533982 2.893022 -3.271225 0
M  V30 2 C 4.114814 1.717344 -3.303721 0
M  V30 3 N 4.435552 0.669334 -4.209837 0
M  V30 4 C 3.687004 -0.475308 -3.814252 0
M  V30 5 C 3.656302 -1.720966 -4.399809 0
M  V30 6 C 2.841499 -2.700829 -3.874138 0
M  V30 7 C 2.060337 -2.429977 -2.765204 0
M  V30 8 C 2.124737 -1.171564 -2.214357 0
M  V30 9 C 2.918633 -0.194812 -2.711825 0
M  V30 10 C 3.168574 1.181017 -2.365249 0
M  V30 11 C 2.540638 1.743458 -1.371211 0
M  V30 12 C 1.601325 1.308495 -0.385204 0
M  V30 13 C 1.671264 0.372851 0.658062 0
M  V30 14 C 0.620458 0.104272 1.493988 0
M  V30 15 C -0.567003 0.764979 1.327407 0
M  V30 16 C -1.713740 0.624001 2.062448 0
M  V30 17 C -2.169967 -0.150769 3.184808 0
M  V30 18 C -1.696394 -1.052251 3.995489 0
M  V30 19 C -2.318269 -1.744546 5.103574 0
M  V30 20 C -3.615091 -1.565323 5.533250 0
M  V30 21 C -4.179355 -2.240823 6.593823 0
M  V30 22 N -3.428875 -3.131738 7.257843 0
M  V30 23 C -2.160844 -3.327622 6.861535 0
M  V30 24 C -1.577230 -2.665535 5.806985 0
M  V30 25 N -2.561061 1.510840 1.463874 0
M  V30 26 N -1.954609 2.107697 0.473404 0
M  V30 27 C -0.689620 1.692471 0.320012 0
M  V30 28 C 0.382568 1.948894 -0.512570 0
M  V30 29 H 5.103866 0.769915 -5.004299 0
M  V30 30 H 4.265997 -1.918533 -5.258945 0
M  V30 31 H 2.865997 -3.647397 -4.378122 0
M  V30 32 H 1.468255 -3.297602 -2.462992 0
M  V30 33 H 1.442695 -1.153757 -1.397643 0
M  V30 34 H 2.792614 2.814742 -1.250967 0
M  V30 35 H 2.644395 -0.084349 0.697673 0
M  V30 36 H 0.774183 -0.625590 2.257808 0
M  V30 37 H -3.203513 -0.008508 3.528562 0
M  V30 38 H -0.673427 -1.282478 3.758018 0
M  V30 39 H -4.240470 -0.866359 5.029720 0
M  V30 40 H -5.206462 -2.055819 6.883873 0
M  V30 41 H -1.529760 -4.043803 7.381499 0
M  V30 42 H -0.533639 -2.868247 5.529060 0
M  V30 43 H -2.420782 2.824918 -0.120122 0
M  V30 44 H 0.122306 2.705437 -1.253434 0
M  V30 END ATOM
M  V30 BEGIN BOND
M  V30 1 2 1 2
M  V30 2 1 2 3
M  V30 3 1 3 4
M  V30 4 2 4 5
M  V30 5 1 5 6
M  V30 6 2 6 7
M  V30 7 1 7 8
M  V30 8 2 8 9
M  V30 9 1 9 10
M  V30 10 2 10 11
M  V30 11 1 11 12
M  V30 12 2 12 13
M  V30 13 1 13 14
M  V30 14 2 14 15
M  V30 15 1 15 16
M  V30 16 1 16 17
M  V30 17 2 17 18
M  V30 18 1 18 19
M  V30 19 2 19 20
M  V30 20 1 20 21
M  V30 21 2 21 22
M  V30 22 1 22 23
M  V30 23 2 23 24
M  V30 24 2 16 25
M  V30 25 1 25 26
M  V30 26 1 26 27
M  V30 27 2 27 28
M  V30 28 1 10 2
M  V30 29 1 28 12
M  V30 30 1 9 4
M  V30 31 1 27 15
M  V30 32 1 24 19
M  V30 33 1 3 29
M  V30 34 1 5 30
M  V30 35 1 6 31
M  V30 36 1 7 32
M  V30 37 1 8 33
M  V30 38 1 11 34
M  V30 39 1 13 35
M  V30 40 1 14 36
M  V30 41 1 17 37
M  V30 42 1 18 38
M  V30 43 1 20 39
M  V30 44 1 21 40
M  V30 45 1 23 41
M  V30 46 1 24 42
M  V30 47 1 26 43
M  V30 48 1 28 44
M  V30 END BOND
M  V30 END CTAB
M  END
>  <Dataset>  (453) 
ChEMBL_Kinases

>  <Ligand_Instance>  (453) 
nan

>  <PDB_ID>  (453) 
nan

>  <Standardized_SMILES>  (453) 
O=C1Nc2ccccc2/C1=C\c1ccc2c(/C=C/c3ccncc3)n[nH]c2c1

>  <Name>  (453) 
nan

>  <Pocket>  (453) 
nan

>  <ATP_Site>  (453) 
nan

>  <Peripheral>  (453) 
nan

>  <Num_H_Atoms_ProtBoundConf>  (453) 
nan

>  <Num_Resolved_Atoms>  (453) 
nan

>  <Num_Not_Resolved_Atoms>  (453) 
nan

$$$$
CHEMBL445464
     RDKit          3D

  0  0  0  0  0  0  0  0  0  0999 V3000
M  V30 BEGIN CTAB
M  V30 COUNTS 75 82 0 0 0
M  V30 BEGIN ATOM
M  V30 1 C 7.406915 0.418306 5.353792 0
M  V30 2 C 7.044162 0.731658 3.934838 0
M  V30 3 N 7.848198 1.119982 2.910696 0
M  V30 4 N 7.070810 1.280264 1.836464 0
M  V30 5 C 5.789987 0.996785 2.176391 0
M  V30 6 C 4.609093 1.003620 1.457253 0
M  V30 7 C 4.613085 1.349836 0.124340 0
M  V30 8 C 3.453604 1.367079 -0.623201 0
M  V30 9 C 3.300756 1.706143 -2.017972 0
M  V30 10 C 3.854485 1.100796 -3.120624 0
M  V30 11 C 3.604951 1.551146 -4.379204 0
M  V30 12 C 2.780913 2.639182 -4.588575 0
M  V30 13 C 2.195205 3.287375 -3.500039 0
M  V30 14 C 2.477503 2.793062 -2.225799 0
M  V30 15 C 2.270669 1.025455 -0.000675 0
M  V30 16 C 0.913581 0.959493 -0.551704 0
M  V30 17 C 0.624474 0.050483 -1.552753 0
M  V30 18 C -0.681652 0.037439 -2.032344 0
M  V30 19 C -1.693655 0.863576 -1.578119 0
M  V30 20 C -3.009259 0.688915 -2.219692 0
M  V30 21 N -3.836205 -0.282662 -1.561295 0
M  V30 22 C -4.131739 0.080987 -0.191935 0
M  V30 23 C -5.512995 -0.404391 0.224703 0
M  V30 24 C -5.820533 -1.764741 -0.367991 0
M  V30 25 C -4.694229 -2.656115 0.041146 0
M  V30 26 N -3.361768 -2.606083 -0.239177 0
M  V30 27 N -2.745923 -3.618746 0.348310 0
M  V30 28 C -3.644774 -4.356539 1.024805 0
M  V30 29 C -3.411499 -5.560603 1.815695 0
M  V30 30 C -2.131648 -6.069938 1.932559 0
M  V30 31 C -1.875804 -7.207078 2.672728 0
M  V30 32 C -2.889970 -7.889168 3.331886 0
M  V30 33 C -4.169471 -7.345387 3.191030 0
M  V30 34 N -4.380286 -6.235041 2.461096 0
M  V30 35 N -4.833716 -3.757869 0.829633 0
M  V30 36 C -5.853793 -1.638799 -1.854040 0
M  V30 37 C -5.095915 -0.370875 -2.272379 0
M  V30 38 C -1.342091 1.740525 -0.586617 0
M  V30 39 C -0.065124 1.802163 -0.069355 0
M  V30 40 N 2.261034 0.685007 1.306521 0
M  V30 41 C 3.399960 0.668980 2.037452 0
M  V30 42 C 3.440278 0.327753 3.376100 0
M  V30 43 C 4.609279 0.315988 4.107513 0
M  V30 44 N 5.777306 0.654487 3.488174 0
M  V30 45 H 7.511979 -0.677615 5.458483 0
M  V30 46 H 6.562039 0.731190 6.015189 0
M  V30 47 H 8.274407 1.005813 5.652434 0
M  V30 48 H 5.502980 1.623062 -0.404958 0
M  V30 49 H 4.491186 0.253148 -2.889031 0
M  V30 50 H 4.057032 1.052472 -5.239954 0
M  V30 51 H 2.573763 3.008032 -5.583462 0
M  V30 52 H 1.553867 4.137024 -3.690640 0
M  V30 53 H 1.979330 3.360265 -1.457534 0
M  V30 54 H 1.373121 -0.621898 -1.949385 0
M  V30 55 H -0.865259 -0.699952 -2.826365 0
M  V30 56 H -3.578994 1.657793 -2.180579 0
M  V30 57 H -2.870472 0.427531 -3.268609 0
M  V30 58 H -4.217825 1.207098 -0.152092 0
M  V30 59 H -3.330593 -0.274071 0.474271 0
M  V30 60 H -6.305774 0.332898 0.010985 0
M  V30 61 H -5.425041 -0.584686 1.331157 0
M  V30 62 H -6.772529 -2.131754 0.063872 0
M  V30 63 H -1.710880 -3.792231 0.277603 0
M  V30 64 H -1.320683 -5.559623 1.430167 0
M  V30 65 H -0.839585 -7.535298 2.708935 0
M  V30 66 H -2.661150 -8.777862 3.904785 0
M  V30 67 H -4.991477 -7.843416 3.687179 0
M  V30 68 H -6.919130 -1.446219 -2.136032 0
M  V30 69 H -5.486800 -2.527139 -2.394988 0
M  V30 70 H -5.708464 0.504075 -1.929326 0
M  V30 71 H -4.982516 -0.400394 -3.366508 0
M  V30 72 H -2.143548 2.390904 -0.232317 0
M  V30 73 H 0.148275 2.518552 0.714318 0
M  V30 74 H 2.528886 0.059130 3.875513 0
M  V30 75 H 4.565769 0.039609 5.148102 0
M  V30 END ATOM
M  V30 BEGIN BOND
M  V30 1 1 1 2
M  V30 2 2 2 3
M  V30 3 1 3 4
M  V30 4 2 4 5
M  V30 5 1 5 6
M  V30 6 2 6 7
M  V30 7 1 7 8
M  V30 8 1 8 9
M  V30 9 2 9 10
M  V30 10 1 10 11
M  V30 11 2 11 12
M  V30 12 1 12 13
M  V30 13 2 13 14
M  V30 14 2 8 15
M  V30 15 1 15 16
M  V30 16 2 16 17
M  V30 17 1 17 18
M  V30 18 2 18 19
M  V30 19 1 19 20
M  V30 20 1 20 21
M  V30 21 1 21 22
M  V30 22 1 22 23
M  V30 23 1 23 24
M  V30 24 1 24 25
M  V30 25 2 25 26
M  V30 26 1 26 27
M  V30 27 1 27 28
M  V30 28 1 28 29
M  V30 29 2 29 30
M  V30 30 1 30 31
M  V30 31 2 31 32
M  V30 32 1 32 33
M  V30 33 2 33 34
M  V30 34 2 28 35
M  V30 35 1 24 36
M  V30 36 1 36 37
M  V30 37 1 19 38
M  V30 38 2 38 39
M  V30 39 1 15 40
M  V30 40 2 40 41
M  V30 41 1 41 42
M  V30 42 2 42 43
M  V30 43 1 43 44
M  V30 44 1 44 2
M  V30 45 1 44 5
M  V30 46 1 41 6
M  V30 47 1 14 9
M  V30 48 1 39 16
M  V30 49 1 37 21
M  V30 50 1 35 25
M  V30 51 1 34 29
M  V30 52 1 1 45
M  V30 53 1 1 46
M  V30 54 1 1 47
M  V30 55 1 7 48
M  V30 56 1 10 49
M  V30 57 1 11 50
M  V30 58 1 12 51
M  V30 59 1 13 52
M  V30 60 1 14 53
M  V30 61 1 17 54
M  V30 62 1 18 55
M  V30 63 1 20 56
M  V30 64 1 20 57
M  V30 65 1 22 58
M  V30 66 1 22 59
M  V30 67 1 23 60
M  V30 68 1 23 61
M  V30 69 1 24 62
M  V30 70 1 27 63
M  V30 71 1 30 64
M  V30 72 1 31 65
M  V30 73 1 32 66
M  V30 74 1 33 67
M  V30 75 1 36 68
M  V30 76 1 36 69
M  V30 77 1 37 70
M  V30 78 1 37 71
M  V30 79 1 38 72
M  V30 80 1 39 73
M  V30 81 1 42 74
M  V30 82 1 43 75
M  V30 END BOND
M  V30 END CTAB
M  END
>  <Dataset>  (454) 
ChEMBL_Kinases

>  <Ligand_Instance>  (454) 
nan

>  <PDB_ID>  (454) 
nan

>  <Standardized_SMILES>  (454) 
Cc1nnc2c3cc(-c4ccccc4)c(-c4ccc(CN5CCC(c6n[nH]c(-c7ccccn7)n6)CC5)cc4)nc3ccn12

>  <Name>  (454) 
nan

>  <Pocket>  (454) 
nan

>  <ATP_Site>  (454) 
nan

>  <Peripheral>  (454) 
nan

>  <Num_H_Atoms_ProtBoundConf>  (454) 
nan

>  <Num_Resolved_Atoms>  (454) 
nan

>  <Num_Not_Resolved_Atoms>  (454) 
nan

$$$$
CHEMBL3691971
     RDKit          3D

  0  0  0  0  0  0  0  0  0  0999 V3000
M  V30 BEGIN CTAB
M  V30 COUNTS 68 72 0 0 0
M  V30 BEGIN ATOM
M  V30 1 C 5.171998 -2.629663 -5.644554 0
M  V30 2 C 4.608255 -2.800157 -4.439898 0
M  V30 3 C 4.395722 -4.159866 -3.863236 0
M  V30 4 C 4.186122 -1.652799 -3.658479 0
M  V30 5 C 3.593366 -1.606071 -2.412973 0
M  V30 6 N 3.366836 -0.347840 -2.055212 0
M  V30 7 C 2.766925 0.228507 -0.842209 0 CFG=2
M  V30 8 C 1.998842 -0.857704 -0.169758 0 CFG=2
M  V30 9 N 1.229946 -1.577455 -1.189455 0
M  V30 10 C 1.109514 -0.382587 0.955028 0
M  V30 11 C 1.193594 1.114086 1.004936 0 CFG=2
M  V30 12 C 0.622414 1.736195 2.178221 0
M  V30 13 C 1.391526 2.022923 3.316934 0
M  V30 14 C 0.927142 2.597130 4.456668 0
M  V30 15 N -0.364336 2.942658 4.566644 0
M  V30 16 C -1.164434 2.689748 3.492524 0
M  V30 17 C -0.664195 2.105011 2.347042 0
M  V30 18 N -1.665846 1.926845 1.364325 0
M  V30 19 C -2.267710 2.669398 0.296466 0
M  V30 20 O -1.910447 3.853311 0.019787 0
M  V30 21 C -3.309676 1.949138 -0.428118 0
M  V30 22 C -3.905336 2.635520 -1.457820 0
M  V30 23 C -4.902564 2.035963 -2.201616 0
M  V30 24 C -5.302843 0.737865 -1.907522 0
M  V30 25 F -6.260847 0.030184 -2.548202 0
M  V30 26 C -4.682927 0.071560 -0.862824 0
M  V30 27 C -4.950147 -1.286836 -0.390883 0
M  V30 28 C -4.216738 -2.300790 -0.973414 0
M  V30 29 F -3.299090 -2.037354 -1.932761 0
M  V30 30 C -4.382511 -3.623369 -0.608221 0
M  V30 31 C -5.328993 -3.893354 0.381071 0
M  V30 32 C -6.074820 -2.891856 0.977906 0
M  V30 33 C -5.883779 -1.578548 0.588788 0
M  V30 34 F -6.583408 -0.550316 1.135327 0
M  V30 35 N -3.715518 0.677435 -0.154842 0
M  V30 36 C 0.768362 1.651509 -0.329626 0
M  V30 37 C 1.901419 1.377334 -1.302744 0 CFG=2
M  V30 38 C 1.386577 1.161818 -2.697363 0
M  V30 39 N 3.820566 0.384449 -3.081685 0
M  V30 40 N 4.300943 -0.375725 -4.022235 0
M  V30 41 H 5.346878 -1.669906 -6.103970 0
M  V30 42 H 5.471457 -3.524191 -6.191681 0
M  V30 43 H 3.440805 -4.112438 -3.296842 0
M  V30 44 H 4.279795 -4.896254 -4.688981 0
M  V30 45 H 5.212158 -4.403673 -3.166577 0
M  V30 46 H 3.346205 -2.457631 -1.809134 0
M  V30 47 H 3.645916 0.563105 -0.243752 0
M  V30 48 H 2.731035 -1.582129 0.245751 0
M  V30 49 H 0.265123 -1.194057 -1.293093 0
M  V30 50 H 1.127026 -2.592095 -0.900870 0
M  V30 51 H 1.396617 -0.864242 1.911333 0
M  V30 52 H 0.072162 -0.633272 0.651612 0
M  V30 53 H 2.306699 1.336518 1.059215 0
M  V30 54 H 2.465188 1.779358 3.332164 0
M  V30 55 H 1.563866 2.796469 5.306165 0
M  V30 56 H -2.203892 2.997228 3.652726 0
M  V30 57 H -1.972364 0.932868 1.592213 0
M  V30 58 H -3.600590 3.663362 -1.703964 0
M  V30 59 H -5.412468 2.495822 -3.011508 0
M  V30 60 H -3.820278 -4.429157 -1.050406 0
M  V30 61 H -5.476660 -4.926746 0.684645 0
M  V30 62 H -6.815277 -3.100574 1.751527 0
M  V30 63 H -0.106292 1.113025 -0.747362 0
M  V30 64 H 0.572010 2.730225 -0.222797 0
M  V30 65 H 2.538225 2.284934 -1.308107 0
M  V30 66 H 1.464686 0.089802 -2.997425 0
M  V30 67 H 1.914443 1.745591 -3.477793 0
M  V30 68 H 0.322697 1.486620 -2.744258 0
M  V30 END ATOM
M  V30 BEGIN BOND
M  V30 1 2 1 2
M  V30 2 1 2 3
M  V30 3 1 2 4
M  V30 4 2 4 5
M  V30 5 1 5 6
M  V30 6 1 6 7
M  V30 7 1 7 8
M  V30 8 1 8 9
M  V30 9 1 8 10
M  V30 10 1 10 11
M  V30 11 1 11 12
M  V30 12 2 12 13
M  V30 13 1 13 14
M  V30 14 2 14 15
M  V30 15 1 15 16
M  V30 16 2 16 17
M  V30 17 1 17 18
M  V30 18 1 18 19
M  V30 19 2 19 20
M  V30 20 1 19 21
M  V30 21 2 21 22
M  V30 22 1 22 23
M  V30 23 2 23 24
M  V30 24 1 24 25
M  V30 25 1 24 26
M  V30 26 1 26 27
M  V30 27 2 27 28
M  V30 28 1 28 29
M  V30 29 1 28 30
M  V30 30 2 30 31
M  V30 31 1 31 32
M  V30 32 2 32 33
M  V30 33 1 33 34
M  V30 34 2 26 35
M  V30 35 1 11 36
M  V30 36 1 36 37
M  V30 37 1 37 38
M  V30 38 1 6 39
M  V30 39 2 39 40
M  V30 40 1 40 4
M  V30 41 1 37 7
M  V30 42 1 17 12
M  V30 43 1 35 21
M  V30 44 1 33 27
M  V30 45 1 1 41
M  V30 46 1 1 42
M  V30 47 1 3 43
M  V30 48 1 3 44
M  V30 49 1 3 45
M  V30 50 1 5 46
M  V30 51 1 7 47 CFG=1
M  V30 52 1 8 48 CFG=1
M  V30 53 1 9 49
M  V30 54 1 9 50
M  V30 55 1 10 51
M  V30 56 1 10 52
M  V30 57 1 11 53 CFG=1
M  V30 58 1 13 54
M  V30 59 1 14 55
M  V30 60 1 16 56
M  V30 61 1 18 57
M  V30 62 1 22 58
M  V30 63 1 23 59
M  V30 64 1 30 60
M  V30 65 1 31 61
M  V30 66 1 32 62
M  V30 67 1 36 63
M  V30 68 1 36 64
M  V30 69 1 37 65 CFG=3
M  V30 70 1 38 66
M  V30 71 1 38 67
M  V30 72 1 38 68
M  V30 END BOND
M  V30 END CTAB
M  END
>  <Dataset>  (455) 
ChEMBL_Kinases

>  <Ligand_Instance>  (455) 
nan

>  <PDB_ID>  (455) 
nan

>  <Standardized_SMILES>  (455) 
C=C(C)c1cn([C@@H]2[C@H](N)C[C@H](c3ccncc3NC(=O)c3ccc(F)c(-c4c(F)cccc4F)n3)C[C@@H]2C)nn1

>  <Name>  (455) 
nan

>  <Pocket>  (455) 
nan

>  <ATP_Site>  (455) 
nan

>  <Peripheral>  (455) 
nan

>  <Num_H_Atoms_ProtBoundConf>  (455) 
nan

>  <Num_Resolved_Atoms>  (455) 
nan

>  <Num_Not_Resolved_Atoms>  (455) 
nan

$$$$
CHEMBL3702118
     RDKit          3D

  0  0  0  0  0  0  0  0  0  0999 V3000
M  V30 BEGIN CTAB
M  V30 COUNTS 62 67 0 0 0
M  V30 BEGIN ATOM
M  V30 1 O 2.985496 -1.128017 2.547937 0
M  V30 2 C 3.541083 -0.075380 1.823893 0
M  V30 3 C 5.054526 -0.025484 2.037933 0
M  V30 4 C 5.538326 1.140909 1.202654 0
M  V30 5 C 4.868776 2.434299 1.525316 0
M  V30 6 N 3.446066 2.369961 1.684187 0
M  V30 7 C 2.842822 2.484243 0.388127 0
M  V30 8 C 1.376091 2.438622 0.379452 0
M  V30 9 C 0.621620 3.607008 0.500253 0
M  V30 10 C -0.770737 3.599940 0.495102 0
M  V30 11 C -1.452237 2.407576 0.367229 0
M  V30 12 N -2.871966 2.308939 0.352215 0
M  V30 13 C -3.521005 1.049040 0.217507 0
M  V30 14 N -4.881632 0.948376 0.201882 0
M  V30 15 C -5.469458 -0.252966 0.073660 0
M  V30 16 C -4.748786 -1.426192 -0.046730 0
M  V30 17 C -4.970579 -2.783426 -0.189928 0
M  V30 18 C -6.186435 -3.433714 -0.262662 0
M  V30 19 C -6.159241 -4.810009 -0.406933 0
M  V30 20 N -4.981590 -5.465924 -0.471358 0
M  V30 21 C -3.795714 -4.796141 -0.396685 0
M  V30 22 C -3.732626 -3.420940 -0.252197 0
M  V30 23 N -2.743648 -2.512673 -0.153225 0
M  V30 24 C -1.339830 -2.782317 -0.176205 0
M  V30 25 C -0.852625 -3.223218 -1.559854 0
M  V30 26 C 0.506188 -3.813343 -1.168922 0
M  V30 27 C 0.069786 -4.698968 0.001073 0
M  V30 28 C -0.862972 -3.809349 0.795367 0
M  V30 29 C -3.372974 -1.306340 -0.029028 0
M  V30 30 N -2.814204 -0.088088 0.100854 0
M  V30 31 N -0.722809 1.271256 0.249727 0
M  V30 32 C 0.625118 1.288831 0.255843 0
M  V30 33 C 2.990362 1.206945 2.385694 0
M  V30 34 H 2.026162 -0.941646 2.757968 0
M  V30 35 H 3.384826 -0.223511 0.755497 0
M  V30 36 H 5.561523 -0.921120 1.669322 0
M  V30 37 H 5.286234 0.094738 3.117027 0
M  V30 38 H 6.624276 1.247248 1.415560 0
M  V30 39 H 5.443897 0.845222 0.144737 0
M  V30 40 H 5.069672 3.115022 0.647131 0
M  V30 41 H 5.346589 2.909152 2.408072 0
M  V30 42 H 3.188421 1.683260 -0.325309 0
M  V30 43 H 3.240824 3.427598 -0.082489 0
M  V30 44 H 1.117945 4.552447 0.601472 0
M  V30 45 H -1.367263 4.482826 0.586318 0
M  V30 46 H -3.456504 3.161676 0.440011 0
M  V30 47 H -6.549060 -0.361657 0.058246 0
M  V30 48 H -7.117913 -2.885846 -0.208646 0
M  V30 49 H -7.103303 -5.357682 -0.467898 0
M  V30 50 H -2.859712 -5.349601 -0.451260 0
M  V30 51 H -0.786120 -1.818130 0.011864 0
M  V30 52 H -1.522949 -3.992690 -1.965119 0
M  V30 53 H -0.723548 -2.333033 -2.184197 0
M  V30 54 H 0.968071 -4.380787 -1.980015 0
M  V30 55 H 1.120947 -2.978515 -0.790099 0
M  V30 56 H -0.407245 -5.593750 -0.403196 0
M  V30 57 H 0.959930 -5.002757 0.562818 0
M  V30 58 H -0.214295 -3.329095 1.584676 0
M  V30 59 H -1.633332 -4.345920 1.352289 0
M  V30 60 H 1.132722 0.346992 0.158076 0
M  V30 61 H 1.898019 1.161805 2.361268 0
M  V30 62 H 3.354811 1.262062 3.437407 0
M  V30 END ATOM
M  V30 BEGIN BOND
M  V30 1 1 1 2
M  V30 2 1 2 3
M  V30 3 1 3 4
M  V30 4 1 4 5
M  V30 5 1 5 6
M  V30 6 1 6 7
M  V30 7 1 7 8
M  V30 8 2 8 9
M  V30 9 1 9 10
M  V30 10 2 10 11
M  V30 11 1 11 12
M  V30 12 1 12 13
M  V30 13 2 13 14
M  V30 14 1 14 15
M  V30 15 2 15 16
M  V30 16 1 16 17
M  V30 17 2 17 18
M  V30 18 1 18 19
M  V30 19 2 19 20
M  V30 20 1 20 21
M  V30 21 2 21 22
M  V30 22 1 22 23
M  V30 23 1 23 24
M  V30 24 1 24 25
M  V30 25 1 25 26
M  V30 26 1 26 27
M  V30 27 1 27 28
M  V30 28 1 23 29
M  V30 29 2 29 30
M  V30 30 1 11 31
M  V30 31 2 31 32
M  V30 32 1 6 33
M  V30 33 1 33 2
M  V30 34 1 32 8
M  V30 35 1 30 13
M  V30 36 1 29 16
M  V30 37 1 22 17
M  V30 38 1 28 24
M  V30 39 1 1 34
M  V30 40 1 2 35
M  V30 41 1 3 36
M  V30 42 1 3 37
M  V30 43 1 4 38
M  V30 44 1 4 39
M  V30 45 1 5 40
M  V30 46 1 5 41
M  V30 47 1 7 42
M  V30 48 1 7 43
M  V30 49 1 9 44
M  V30 50 1 10 45
M  V30 51 1 12 46
M  V30 52 1 15 47
M  V30 53 1 18 48
M  V30 54 1 19 49
M  V30 55 1 21 50
M  V30 56 1 24 51
M  V30 57 1 25 52
M  V30 58 1 25 53
M  V30 59 1 26 54
M  V30 60 1 26 55
M  V30 61 1 27 56
M  V30 62 1 27 57
M  V30 63 1 28 58
M  V30 64 1 28 59
M  V30 65 1 32 60
M  V30 66 1 33 61
M  V30 67 1 33 62
M  V30 END BOND
M  V30 END CTAB
M  END
>  <Dataset>  (456) 
ChEMBL_Kinases

>  <Ligand_Instance>  (456) 
nan

>  <PDB_ID>  (456) 
nan

>  <Standardized_SMILES>  (456) 
OC1CCCN(Cc2ccc(Nc3ncc4c5ccncc5n(C5CCCC5)c4n3)nc2)C1

>  <Name>  (456) 
nan

>  <Pocket>  (456) 
nan

>  <ATP_Site>  (456) 
nan

>  <Peripheral>  (456) 
nan

>  <Num_H_Atoms_ProtBoundConf>  (456) 
nan

>  <Num_Resolved_Atoms>  (456) 
nan

>  <Num_Not_Resolved_Atoms>  (456) 
nan

$$$$
CHEMBL3691970
     RDKit          3D

  0  0  0  0  0  0  0  0  0  0999 V3000
M  V30 BEGIN CTAB
M  V30 COUNTS 68 73 0 0 0
M  V30 BEGIN ATOM
M  V30 1 C 3.099863 0.446816 1.162623 0
M  V30 2 C 1.622400 0.590116 1.313127 0 CFG=1
M  V30 3 C 0.783937 -0.337643 0.478426 0
M  V30 4 C 0.500884 -1.671703 0.960776 0 CFG=1
M  V30 5 C 1.280928 -2.810956 0.457438 0
M  V30 6 C 2.488447 -3.274638 0.938964 0
M  V30 7 C 3.193418 -4.347550 0.439170 0
M  V30 8 N 2.699092 -5.030371 -0.607796 0
M  V30 9 C 1.528807 -4.674529 -1.165852 0
M  V30 10 C 0.857373 -3.595407 -0.634087 0
M  V30 11 N -0.370550 -3.282088 -1.273419 0
M  V30 12 C -0.284698 -2.384643 -2.374413 0
M  V30 13 O 0.882508 -2.002923 -2.616318 0
M  V30 14 C -1.431201 -1.940326 -3.157403 0
M  V30 15 C -1.205866 -1.075495 -4.192282 0
M  V30 16 C -2.242136 -0.612934 -4.976086 0
M  V30 17 C -3.556456 -0.992369 -4.763945 0
M  V30 18 F -4.606197 -0.571519 -5.498057 0
M  V30 19 C -3.736167 -1.875025 -3.697708 0
M  V30 20 C -5.088923 -2.329687 -3.398630 0
M  V30 21 C -5.393034 -3.493944 -4.103290 0
M  V30 22 F -4.553755 -4.145289 -4.967151 0
M  V30 23 C -6.622052 -4.113606 -3.981553 0
M  V30 24 C -7.569564 -3.547376 -3.128918 0
M  V30 25 C -7.262322 -2.381339 -2.424419 0
M  V30 26 C -6.020085 -1.773702 -2.561057 0
M  V30 27 F -5.613363 -0.662034 -1.942488 0
M  V30 28 N -2.702752 -2.305802 -2.954246 0
M  V30 29 C 0.370343 -1.741716 2.438483 0
M  V30 30 C 1.059429 -0.777159 3.305086 0 CFG=1
M  V30 31 N 2.311548 -1.197797 3.891105 0
M  V30 32 C 1.101987 0.581894 2.710101 0 CFG=1
M  V30 33 N 1.720914 1.575585 3.558640 0
M  V30 34 C 1.553058 2.909822 3.443774 0
M  V30 35 C 2.334612 3.417218 4.461714 0
M  V30 36 C 2.525847 4.849830 4.804859 0
M  V30 37 C 2.977365 5.276011 6.133474 0
M  V30 38 C 4.018361 5.220988 5.071613 0
M  V30 39 N 2.906480 2.376179 5.104999 0
M  V30 40 N 2.522573 1.230493 4.540419 0
M  V30 41 H 3.502056 -0.554528 1.088071 0
M  V30 42 H 3.485066 0.984041 0.244210 0
M  V30 43 H 3.569556 0.998382 2.002377 0
M  V30 44 H 1.415438 1.632977 0.919281 0
M  V30 45 H -0.200475 0.210394 0.405468 0
M  V30 46 H 1.172125 -0.228251 -0.550875 0
M  V30 47 H -0.551637 -1.928660 0.564621 0
M  V30 48 H 2.939466 -2.784654 1.759935 0
M  V30 49 H 4.131558 -4.659550 0.860407 0
M  V30 50 H 1.158438 -5.231496 -1.994585 0
M  V30 51 H -1.328249 -3.653586 -1.004521 0
M  V30 52 H -0.193905 -0.742207 -4.406869 0
M  V30 53 H -2.045549 0.065373 -5.783846 0
M  V30 54 H -6.921112 -5.012571 -4.495642 0
M  V30 55 H -8.559173 -4.004488 -3.000542 0
M  V30 56 H -7.959987 -1.905527 -1.753801 0
M  V30 57 H -0.742111 -1.640943 2.677138 0
M  V30 58 H 0.589436 -2.762102 2.850512 0
M  V30 59 H 0.395941 -0.646215 4.234501 0
M  V30 60 H 3.160497 -0.870438 3.437054 0
M  V30 61 H 2.288064 -2.220278 4.074331 0
M  V30 62 H 0.024654 0.917273 2.632568 0
M  V30 63 H 0.958740 3.435963 2.735366 0
M  V30 64 H 1.967986 5.550432 4.157371 0
M  V30 65 H 3.038354 4.547215 6.973599 0
M  V30 66 H 2.690417 6.291349 6.475293 0
M  V30 67 H 4.742938 4.394094 5.098462 0
M  V30 68 H 4.373185 6.111752 4.539211 0
M  V30 END ATOM
M  V30 BEGIN BOND
M  V30 1 1 1 2
M  V30 2 1 2 3
M  V30 3 1 3 4
M  V30 4 1 4 5
M  V30 5 2 5 6
M  V30 6 1 6 7
M  V30 7 2 7 8
M  V30 8 1 8 9
M  V30 9 2 9 10
M  V30 10 1 10 11
M  V30 11 1 11 12
M  V30 12 2 12 13
M  V30 13 1 12 14
M  V30 14 2 14 15
M  V30 15 1 15 16
M  V30 16 2 16 17
M  V30 17 1 17 18
M  V30 18 1 17 19
M  V30 19 1 19 20
M  V30 20 2 20 21
M  V30 21 1 21 22
M  V30 22 1 21 23
M  V30 23 2 23 24
M  V30 24 1 24 25
M  V30 25 2 25 26
M  V30 26 1 26 27
M  V30 27 2 19 28
M  V30 28 1 4 29
M  V30 29 1 29 30
M  V30 30 1 30 31
M  V30 31 1 30 32
M  V30 32 1 32 33
M  V30 33 1 33 34
M  V30 34 2 34 35
M  V30 35 1 35 36
M  V30 36 1 36 37
M  V30 37 1 37 38
M  V30 38 1 35 39
M  V30 39 2 39 40
M  V30 40 1 32 2
M  V30 41 1 40 33
M  V30 42 1 10 5
M  V30 43 1 28 14
M  V30 44 1 38 36
M  V30 45 1 26 20
M  V30 46 1 1 41
M  V30 47 1 1 42
M  V30 48 1 1 43
M  V30 49 1 2 44 CFG=3
M  V30 50 1 3 45
M  V30 51 1 3 46
M  V30 52 1 4 47 CFG=3
M  V30 53 1 6 48
M  V30 54 1 7 49
M  V30 55 1 9 50
M  V30 56 1 11 51
M  V30 57 1 15 52
M  V30 58 1 16 53
M  V30 59 1 23 54
M  V30 60 1 24 55
M  V30 61 1 25 56
M  V30 62 1 29 57
M  V30 63 1 29 58
M  V30 64 1 30 59 CFG=1
M  V30 65 1 31 60
M  V30 66 1 31 61
M  V30 67 1 32 62 CFG=3
M  V30 68 1 34 63
M  V30 69 1 36 64
M  V30 70 1 37 65
M  V30 71 1 37 66
M  V30 72 1 38 67
M  V30 73 1 38 68
M  V30 END BOND
M  V30 END CTAB
M  END
>  <Dataset>  (457) 
ChEMBL_Kinases

>  <Ligand_Instance>  (457) 
nan

>  <PDB_ID>  (457) 
nan

>  <Standardized_SMILES>  (457) 
C[C@H]1C[C@@H](c2ccncc2NC(=O)c2ccc(F)c(-c3c(F)cccc3F)n2)C[C@@H](N)[C@H]1n1cc(C2CC2)nn1

>  <Name>  (457) 
nan

>  <Pocket>  (457) 
nan

>  <ATP_Site>  (457) 
nan

>  <Peripheral>  (457) 
nan

>  <Num_H_Atoms_ProtBoundConf>  (457) 
nan

>  <Num_Resolved_Atoms>  (457) 
nan

>  <Num_Not_Resolved_Atoms>  (457) 
nan

$$$$
CHEMBL4455188
     RDKit          3D

  0  0  0  0  0  0  0  0  0  0999 V3000
M  V30 BEGIN CTAB
M  V30 COUNTS 60 63 0 0 0
M  V30 BEGIN ATOM
M  V30 1 C 0.310812 -5.393488 2.222750 0
M  V30 2 N 0.630811 -3.959274 2.345475 0
M  V30 3 N 1.416395 -3.745671 3.390691 0
M  V30 4 C 1.695282 -2.444462 3.485463 0
M  V30 5 C 1.061482 -1.802349 2.458351 0
M  V30 6 N 0.968200 -0.473540 2.031218 0
M  V30 7 C 0.410502 0.360914 1.052588 0
M  V30 8 O -0.267709 -0.289522 0.231087 0
M  V30 9 C 0.586596 1.802288 0.984362 0
M  V30 10 N 1.284948 2.559255 1.801918 0
M  V30 11 C 1.450830 3.666464 1.791016 0
M  V30 12 C 2.188597 4.741465 2.594905 0
M  V30 13 C 2.138164 6.069345 2.237841 0
M  V30 14 F 1.431500 6.462023 1.163675 0
M  V30 15 C 2.857505 6.927999 3.060445 0
M  V30 16 C 3.555901 6.461953 4.139268 0
M  V30 17 C 3.552054 5.109940 4.425389 0
M  V30 18 C 2.857956 4.180446 3.653659 0
M  V30 19 F 2.871310 2.879519 3.953944 0
M  V30 20 S 0.478845 4.247410 0.292029 0
M  V30 21 C -0.060008 2.465024 -0.074139 0
M  V30 22 N -0.875289 2.003940 -1.122264 0
M  V30 23 C 0.389686 -2.755048 1.738398 0
M  V30 24 N -0.457113 -3.041417 0.623446 0
M  V30 25 C -1.840095 -2.963719 1.043497 0
M  V30 26 C -2.700116 -3.961195 0.286133 0
M  V30 27 C -2.229546 -4.101627 -1.145614 0
M  V30 28 C -1.743096 -2.788289 -1.694864 0 CFG=2
M  V30 29 N -2.397266 -2.507538 -2.961175 0
M  V30 30 C -2.166142 -3.489319 -3.973414 0
M  V30 31 C -2.937286 -3.014960 -5.212831 0
M  V30 32 F -2.785050 -3.891609 -6.259251 0
M  V30 33 F -4.243902 -2.877225 -4.830333 0
M  V30 34 C -0.265272 -2.805978 -1.788378 0
M  V30 35 C 0.351316 -3.342975 -0.534949 0
M  V30 36 H -0.164166 -5.764043 3.154939 0
M  V30 37 H 1.187503 -6.011809 2.029927 0
M  V30 38 H -0.507141 -5.519190 1.451343 0
M  V30 39 H 2.305464 -1.905301 4.213604 0
M  V30 40 H 1.538587 0.118343 2.711663 0
M  V30 41 H 2.847089 7.998030 2.815429 0
M  V30 42 H 4.088742 7.193219 4.727933 0
M  V30 43 H 4.122128 4.807386 5.288732 0
M  V30 44 H -0.286115 1.395705 -1.728450 0
M  V30 45 H -1.900595 2.263589 -1.224370 0
M  V30 46 H -1.895847 -3.308501 2.096898 0
M  V30 47 H -2.265225 -1.947166 1.045056 0
M  V30 48 H -3.726212 -3.545954 0.274708 0
M  V30 49 H -2.737358 -4.947356 0.782460 0
M  V30 50 H -3.070994 -4.452714 -1.752747 0
M  V30 51 H -1.443128 -4.880508 -1.173179 0
M  V30 52 H -2.042109 -2.002832 -0.966247 0
M  V30 53 H -3.403164 -2.371030 -2.802294 0
M  V30 54 H -1.119981 -3.555584 -4.305870 0
M  V30 55 H -2.567678 -4.482456 -3.728065 0
M  V30 56 H -2.554259 -1.994858 -5.453699 0
M  V30 57 H 0.006737 -3.532357 -2.613913 0
M  V30 58 H 0.183991 -1.809319 -2.002090 0
M  V30 59 H 0.452068 -4.457193 -0.580286 0
M  V30 60 H 1.387533 -2.921845 -0.406948 0
M  V30 END ATOM
M  V30 BEGIN BOND
M  V30 1 1 1 2
M  V30 2 1 2 3
M  V30 3 2 3 4
M  V30 4 1 4 5
M  V30 5 1 5 6
M  V30 6 1 6 7
M  V30 7 2 7 8
M  V30 8 1 7 9
M  V30 9 1 9 10
M  V30 10 2 10 11
M  V30 11 1 11 12
M  V30 12 2 12 13
M  V30 13 1 13 14
M  V30 14 1 13 15
M  V30 15 2 15 16
M  V30 16 1 16 17
M  V30 17 2 17 18
M  V30 18 1 18 19
M  V30 19 1 11 20
M  V30 20 1 20 21
M  V30 21 1 21 22
M  V30 22 2 5 23
M  V30 23 1 23 24
M  V30 24 1 24 25
M  V30 25 1 25 26
M  V30 26 1 26 27
M  V30 27 1 27 28
M  V30 28 1 28 29
M  V30 29 1 29 30
M  V30 30 1 30 31
M  V30 31 1 31 32
M  V30 32 1 31 33
M  V30 33 1 28 34
M  V30 34 1 34 35
M  V30 35 1 23 2
M  V30 36 1 35 24
M  V30 37 2 21 9
M  V30 38 1 18 12
M  V30 39 1 1 36
M  V30 40 1 1 37
M  V30 41 1 1 38
M  V30 42 1 4 39
M  V30 43 1 6 40
M  V30 44 1 15 41
M  V30 45 1 16 42
M  V30 46 1 17 43
M  V30 47 1 22 44
M  V30 48 1 22 45
M  V30 49 1 25 46
M  V30 50 1 25 47
M  V30 51 1 26 48
M  V30 52 1 26 49
M  V30 53 1 27 50
M  V30 54 1 27 51
M  V30 55 1 28 52 CFG=1
M  V30 56 1 29 53
M  V30 57 1 30 54
M  V30 58 1 30 55
M  V30 59 1 31 56
M  V30 60 1 34 57
M  V30 61 1 34 58
M  V30 62 1 35 59
M  V30 63 1 35 60
M  V30 END BOND
M  V30 END CTAB
M  END
>  <Dataset>  (458) 
ChEMBL_Kinases

>  <Ligand_Instance>  (458) 
nan

>  <PDB_ID>  (458) 
nan

>  <Standardized_SMILES>  (458) 
Cn1ncc(NC(=O)c2nc(-c3c(F)cccc3F)sc2N)c1N1CCC[C@H](NCC(F)F)CC1

>  <Name>  (458) 
nan

>  <Pocket>  (458) 
nan

>  <ATP_Site>  (458) 
nan

>  <Peripheral>  (458) 
nan

>  <Num_H_Atoms_ProtBoundConf>  (458) 
nan

>  <Num_Resolved_Atoms>  (458) 
nan

>  <Num_Not_Resolved_Atoms>  (458) 
nan

$$$$
CHEMBL2408789
     RDKit          3D

  0  0  0  0  0  0  0  0  0  0999 V3000
M  V30 BEGIN CTAB
M  V30 COUNTS 48 51 0 0 0
M  V30 BEGIN ATOM
M  V30 1 C -4.829017 -5.174779 -1.410597 0
M  V30 2 C -4.052057 -4.624853 -2.563212 0
M  V30 3 C -3.373986 -3.434389 -2.394325 0
M  V30 4 C -2.634621 -2.865083 -3.415083 0
M  V30 5 C -1.892086 -1.610130 -3.310468 0
M  V30 6 N -1.840567 -0.581469 -4.179364 0
M  V30 7 N -1.057926 0.389530 -3.741832 0
M  V30 8 C -0.580028 -0.011384 -2.549909 0
M  V30 9 C 0.278413 0.650686 -1.695030 0
M  V30 10 C 0.634637 0.038512 -0.515007 0
M  V30 11 N 1.498265 0.527711 0.509626 0
M  V30 12 C 1.169787 1.295972 1.642161 0
M  V30 13 O -0.042831 1.577362 1.747860 0
M  V30 14 N 2.224474 1.647207 2.500889 0
M  V30 15 C 1.935596 2.450430 3.700379 0 CFG=2
M  V30 16 C 2.791211 3.694838 3.570351 0
M  V30 17 C 2.375396 1.689286 4.923110 0
M  V30 18 C 3.614280 1.077160 4.885974 0
M  V30 19 C 4.023465 0.371190 6.018587 0
M  V30 20 C 3.187900 0.317459 7.103935 0
M  V30 21 C 1.963416 0.906734 7.176398 0
M  V30 22 C 1.575845 1.601026 6.045410 0
M  V30 23 N 0.136720 -1.179743 -0.234600 0
M  V30 24 C -0.701775 -1.857171 -1.041015 0
M  V30 25 C -1.082728 -1.261489 -2.248057 0
M  V30 26 C -2.597234 -3.544458 -4.637558 0
M  V30 27 C -3.296707 -4.748570 -4.772222 0
M  V30 28 N -4.005884 -5.264700 -3.743642 0
M  V30 29 H -4.721430 -6.281972 -1.444793 0
M  V30 30 H -4.457821 -4.769815 -0.452162 0
M  V30 31 H -5.889004 -4.867648 -1.575108 0
M  V30 32 H -3.403519 -2.910426 -1.449759 0
M  V30 33 H -0.866007 1.283034 -4.244385 0
M  V30 34 H 0.721100 1.623264 -1.841486 0
M  V30 35 H 2.475931 0.201295 0.265620 0
M  V30 36 H 3.208375 1.355477 2.313995 0
M  V30 37 H 0.870834 2.674314 3.756222 0
M  V30 38 H 2.604540 4.167532 2.587275 0
M  V30 39 H 3.861363 3.381663 3.650493 0
M  V30 40 H 2.583489 4.410511 4.410928 0
M  V30 41 H 4.261477 1.118545 4.045836 0
M  V30 42 H 4.976191 -0.140611 6.083356 0
M  V30 43 H 3.519988 -0.240951 7.990074 0
M  V30 44 H 1.313473 0.856922 8.038848 0
M  V30 45 H 0.621774 2.104583 6.000917 0
M  V30 46 H -1.094009 -2.836661 -0.801736 0
M  V30 47 H -2.029562 -3.137649 -5.471388 0
M  V30 48 H -3.235117 -5.235506 -5.740780 0
M  V30 END ATOM
M  V30 BEGIN BOND
M  V30 1 1 1 2
M  V30 2 2 2 3
M  V30 3 1 3 4
M  V30 4 1 4 5
M  V30 5 2 5 6
M  V30 6 1 6 7
M  V30 7 1 7 8
M  V30 8 2 8 9
M  V30 9 1 9 10
M  V30 10 1 10 11
M  V30 11 1 11 12
M  V30 12 2 12 13
M  V30 13 1 12 14
M  V30 14 1 14 15
M  V30 15 1 15 16
M  V30 16 1 15 17
M  V30 17 2 17 18
M  V30 18 1 18 19
M  V30 19 2 19 20
M  V30 20 1 20 21
M  V30 21 2 21 22
M  V30 22 2 10 23
M  V30 23 1 23 24
M  V30 24 2 24 25
M  V30 25 2 4 26
M  V30 26 1 26 27
M  V30 27 2 27 28
M  V30 28 1 28 2
M  V30 29 1 25 5
M  V30 30 1 25 8
M  V30 31 1 22 17
M  V30 32 1 1 29
M  V30 33 1 1 30
M  V30 34 1 1 31
M  V30 35 1 3 32
M  V30 36 1 7 33
M  V30 37 1 9 34
M  V30 38 1 11 35
M  V30 39 1 14 36
M  V30 40 1 15 37 CFG=1
M  V30 41 1 16 38
M  V30 42 1 16 39
M  V30 43 1 16 40
M  V30 44 1 18 41
M  V30 45 1 19 42
M  V30 46 1 20 43
M  V30 47 1 21 44
M  V30 48 1 22 45
M  V30 49 1 24 46
M  V30 50 1 26 47
M  V30 51 1 27 48
M  V30 END BOND
M  V30 END CTAB
M  END
>  <Dataset>  (459) 
ChEMBL_Kinases

>  <Ligand_Instance>  (459) 
nan

>  <PDB_ID>  (459) 
nan

>  <Standardized_SMILES>  (459) 
Cc1cc(-c2n[nH]c3cc(NC(=O)N[C@H](C)c4ccccc4)ncc23)ccn1

>  <Name>  (459) 
nan

>  <Pocket>  (459) 
nan

>  <ATP_Site>  (459) 
nan

>  <Peripheral>  (459) 
nan

>  <Num_H_Atoms_ProtBoundConf>  (459) 
nan

>  <Num_Resolved_Atoms>  (459) 
nan

>  <Num_Not_Resolved_Atoms>  (459) 
nan

$$$$
CHEMBL3691945
     RDKit          3D

  0  0  0  0  0  0  0  0  0  0999 V3000
M  V30 BEGIN CTAB
M  V30 COUNTS 63 67 0 0 0
M  V30 BEGIN ATOM
M  V30 1 C 4.107554 -1.580128 6.224359 0
M  V30 2 C 3.667054 -0.598758 5.202329 0
M  V30 3 C 3.812471 -0.905908 3.851943 0
M  V30 4 C 3.385337 0.044223 2.917006 0
M  V30 5 F 3.582953 -0.378540 1.638634 0
M  V30 6 C 2.838683 1.244528 3.323957 0
M  V30 7 C 2.475154 2.056604 2.163819 0
M  V30 8 N 1.205376 1.848233 1.718414 0
M  V30 9 C 0.714770 2.515766 0.660537 0
M  V30 10 C -0.627353 2.361939 0.111292 0
M  V30 11 O -1.074720 2.991384 -0.877060 0
M  V30 12 N -1.484814 1.408021 0.772649 0
M  V30 13 C -2.780840 1.290406 0.206385 0
M  V30 14 C -3.701489 2.123516 0.780625 0
M  V30 15 N -4.973883 2.076996 0.288075 0
M  V30 16 C -5.261668 1.217705 -0.734513 0
M  V30 17 C -4.291232 0.401409 -1.273336 0
M  V30 18 C -2.990644 0.401282 -0.821388 0
M  V30 19 N -2.063818 -0.461379 -1.412062 0
M  V30 20 C -2.351229 -1.250159 -2.591003 0
M  V30 21 C -2.650612 -2.694405 -2.226865 0 CFG=1
M  V30 22 N -2.531868 -3.507917 -3.396277 0
M  V30 23 C -1.712032 -3.089414 -1.104079 0 CFG=1
M  V30 24 N -1.444744 -4.491490 -1.086863 0
M  V30 25 C -2.410983 -5.410889 -1.267643 0
M  V30 26 C -1.796679 -6.650335 -1.188103 0
M  V30 27 N -0.500714 -6.450292 -0.965655 0
M  V30 28 N -0.308836 -5.153155 -0.908077 0
M  V30 29 C -0.422240 -2.299109 -1.164435 0 CFG=1
M  V30 30 C 0.395441 -2.627459 -2.374176 0
M  V30 31 C -0.724431 -0.799400 -1.071144 0
M  V30 32 C 1.530287 3.444618 0.005136 0
M  V30 33 C 2.809322 3.660405 0.446740 0
M  V30 34 C 3.302257 2.980684 1.520388 0
M  V30 35 F 4.547212 3.115365 2.039654 0
M  V30 36 C 2.701420 1.533762 4.665853 0
M  V30 37 F 2.149847 2.746715 4.906173 0
M  V30 38 C 3.116449 0.610368 5.596850 0
M  V30 39 H 3.446987 -2.485039 6.229129 0
M  V30 40 H 4.062040 -1.107686 7.227009 0
M  V30 41 H 5.124853 -1.901114 5.922731 0
M  V30 42 H 4.247648 -1.862064 3.603433 0
M  V30 43 H -1.238548 0.817030 1.622943 0
M  V30 44 H -3.485079 2.804275 1.586833 0
M  V30 45 H -6.297778 1.290096 -1.016919 0
M  V30 46 H -4.738360 -0.188109 -2.054408 0
M  V30 47 H -3.239014 -0.857912 -3.119821 0
M  V30 48 H -1.537146 -1.200951 -3.367424 0
M  V30 49 H -3.681374 -2.807805 -1.839016 0
M  V30 50 H -3.349526 -4.152725 -3.542481 0
M  V30 51 H -2.472242 -2.906929 -4.257093 0
M  V30 52 H -2.204355 -2.802889 -0.153710 0
M  V30 53 H -3.484282 -5.325280 -1.446943 0
M  V30 54 H -2.213251 -7.645527 -1.277598 0
M  V30 55 H 0.165525 -2.634569 -0.284247 0
M  V30 56 H 1.246514 -3.278880 -2.136584 0
M  V30 57 H -0.186884 -3.170893 -3.172966 0
M  V30 58 H 0.752621 -1.692506 -2.855035 0
M  V30 59 H -0.071448 -0.325075 -1.863504 0
M  V30 60 H -0.361282 -0.497151 -0.094513 0
M  V30 61 H 1.159750 3.999110 -0.853328 0
M  V30 62 H 3.478244 4.383363 -0.044982 0
M  V30 63 H 2.984161 0.891472 6.630644 0
M  V30 END ATOM
M  V30 BEGIN BOND
M  V30 1 1 1 2
M  V30 2 2 2 3
M  V30 3 1 3 4
M  V30 4 1 4 5
M  V30 5 2 4 6
M  V30 6 1 6 7
M  V30 7 2 7 8
M  V30 8 1 8 9
M  V30 9 1 9 10
M  V30 10 2 10 11
M  V30 11 1 10 12
M  V30 12 1 12 13
M  V30 13 2 13 14
M  V30 14 1 14 15
M  V30 15 2 15 16
M  V30 16 1 16 17
M  V30 17 2 17 18
M  V30 18 1 18 19
M  V30 19 1 19 20
M  V30 20 1 20 21
M  V30 21 1 21 22
M  V30 22 1 21 23
M  V30 23 1 23 24
M  V30 24 1 24 25
M  V30 25 2 25 26
M  V30 26 1 26 27
M  V30 27 2 27 28
M  V30 28 1 23 29
M  V30 29 1 29 30
M  V30 30 1 29 31
M  V30 31 2 9 32
M  V30 32 1 32 33
M  V30 33 2 33 34
M  V30 34 1 34 35
M  V30 35 1 6 36
M  V30 36 1 36 37
M  V30 37 2 36 38
M  V30 38 1 38 2
M  V30 39 1 34 7
M  V30 40 1 18 13
M  V30 41 1 31 19
M  V30 42 1 28 24
M  V30 43 1 1 39
M  V30 44 1 1 40
M  V30 45 1 1 41
M  V30 46 1 3 42
M  V30 47 1 12 43
M  V30 48 1 14 44
M  V30 49 1 16 45
M  V30 50 1 17 46
M  V30 51 1 20 47
M  V30 52 1 20 48
M  V30 53 1 21 49 CFG=1
M  V30 54 1 22 50
M  V30 55 1 22 51
M  V30 56 1 23 52 CFG=1
M  V30 57 1 25 53
M  V30 58 1 26 54
M  V30 59 1 29 55 CFG=1
M  V30 60 1 30 56
M  V30 61 1 30 57
M  V30 62 1 30 58
M  V30 63 1 31 59
M  V30 64 1 31 60
M  V30 65 1 32 61
M  V30 66 1 33 62
M  V30 67 1 38 63
M  V30 END BOND
M  V30 END CTAB
M  END
>  <Dataset>  (460) 
ChEMBL_Kinases

>  <Ligand_Instance>  (460) 
nan

>  <PDB_ID>  (460) 
nan

>  <Standardized_SMILES>  (460) 
Cc1cc(F)c(-c2nc(C(=O)Nc3cnccc3N3C[C@@H](N)[C@@H](n4ccnn4)[C@@H](C)C3)ccc2F)c(F)c1

>  <Name>  (460) 
nan

>  <Pocket>  (460) 
nan

>  <ATP_Site>  (460) 
nan

>  <Peripheral>  (460) 
nan

>  <Num_H_Atoms_ProtBoundConf>  (460) 
nan

>  <Num_Resolved_Atoms>  (460) 
nan

>  <Num_Not_Resolved_Atoms>  (460) 
nan

$$$$
CHEMBL3691944
     RDKit          3D

  0  0  0  0  0  0  0  0  0  0999 V3000
M  V30 BEGIN CTAB
M  V30 COUNTS 75 80 0 0 0
M  V30 BEGIN ATOM
M  V30 1 C 4.844403 -4.078264 -1.376255 0
M  V30 2 C 4.894796 -2.732148 -1.999359 0 CFG=1
M  V30 3 C 4.068687 -2.552569 -3.228646 0
M  V30 4 N 2.731557 -2.116206 -3.002674 0
M  V30 5 C 2.067988 -1.547408 -4.116995 0
M  V30 6 C 2.620859 -1.589950 -5.374286 0
M  V30 7 C 2.011954 -1.064754 -6.486008 0
M  V30 8 N 0.818378 -0.466703 -6.413728 0
M  V30 9 C 0.200509 -0.381934 -5.204984 0
M  V30 10 C 0.846581 -0.921509 -4.116642 0
M  V30 11 N 0.091800 -0.749660 -2.926283 0
M  V30 12 C 0.529641 0.476600 -2.359719 0
M  V30 13 O 1.436487 1.017718 -3.080499 0
M  V30 14 C 0.056022 1.107192 -1.117977 0
M  V30 15 C 0.643541 2.305619 -0.779860 0
M  V30 16 C 0.279880 2.984874 0.357807 0
M  V30 17 C -0.689868 2.457850 1.175550 0
M  V30 18 F -1.100329 3.073251 2.320603 0
M  V30 19 C -1.270752 1.256287 0.825544 0
M  V30 20 C -2.304927 0.638319 1.645567 0
M  V30 21 C -2.154188 -0.243262 2.695421 0
M  V30 22 F -0.860406 -0.531761 2.953546 0
M  V30 23 C -3.249815 -0.741364 3.370241 0
M  V30 24 C -4.529513 -0.353062 2.991374 0
M  V30 25 C -5.604049 -0.960714 3.796613 0
M  V30 26 O -5.435214 -2.341720 3.723007 0
M  V30 27 C -6.992982 -0.579299 3.372617 0
M  V30 28 C -7.508751 0.673833 3.993221 0
M  V30 29 O -7.191953 0.811203 5.332013 0
M  V30 30 C -5.809049 0.838043 5.471319 0
M  V30 31 C -5.343120 -0.601170 5.253842 0
M  V30 32 C -4.681537 0.526131 1.944625 0
M  V30 33 C -3.588341 1.035711 1.256294 0
M  V30 34 F -3.862642 1.898266 0.238868 0
M  V30 35 N -0.896637 0.600304 -0.304582 0
M  V30 36 C 2.320233 -2.372069 -1.658587 0
M  V30 37 C 3.138970 -1.496758 -0.726055 0 CFG=1
M  V30 38 N 2.870912 -1.955978 0.628243 0
M  V30 39 C 4.609039 -1.579963 -1.058747 0 CFG=1
M  V30 40 N 5.422896 -1.594982 0.129355 0
M  V30 41 C 5.234488 -0.563471 0.980623 0
M  V30 42 C 6.111049 -0.774836 2.046232 0
M  V30 43 N 6.777956 -1.905933 1.794124 0
M  V30 44 N 6.354807 -2.401276 0.625313 0
M  V30 45 H 4.319681 -4.795399 -2.055285 0
M  V30 46 H 5.879144 -4.529373 -1.284155 0
M  V30 47 H 4.459078 -4.116513 -0.335988 0
M  V30 48 H 5.967349 -2.555534 -2.325242 0
M  V30 49 H 4.564119 -1.772983 -3.891442 0
M  V30 50 H 4.056858 -3.501649 -3.805820 0
M  V30 51 H 3.575761 -2.041460 -5.601421 0
M  V30 52 H 2.451858 -1.100842 -7.470537 0
M  V30 53 H -0.749306 0.102831 -5.187748 0
M  V30 54 H -0.668175 -1.247601 -2.381665 0
M  V30 55 H 1.412708 2.775652 -1.379138 0
M  V30 56 H 0.733635 3.918680 0.628547 0
M  V30 57 H -2.921216 -1.416530 4.158739 0
M  V30 58 H -5.597535 -2.789248 4.579716 0
M  V30 59 H -7.654076 -1.427822 3.700470 0
M  V30 60 H -7.105778 -0.511246 2.279992 0
M  V30 61 H -8.629326 0.621891 3.946857 0
M  V30 62 H -7.226790 1.607574 3.484980 0
M  V30 63 H -5.299998 1.491110 4.728150 0
M  V30 64 H -5.492538 1.120150 6.486509 0
M  V30 65 H -4.278664 -0.654594 5.471106 0
M  V30 66 H -5.936269 -1.247308 5.943287 0
M  V30 67 H -5.673863 0.800401 1.683430 0
M  V30 68 H 2.451397 -3.453709 -1.412913 0
M  V30 69 H 1.253358 -2.170253 -1.453940 0
M  V30 70 H 2.794604 -0.452385 -0.844793 0
M  V30 71 H 1.989461 -2.512895 0.649921 0
M  V30 72 H 2.708962 -1.106200 1.211201 0
M  V30 73 H 4.872602 -0.668616 -1.632202 0
M  V30 74 H 4.625776 0.330998 1.059638 0
M  V30 75 H 6.363939 -0.280718 2.960516 0
M  V30 END ATOM
M  V30 BEGIN BOND
M  V30 1 1 1 2
M  V30 2 1 2 3
M  V30 3 1 3 4
M  V30 4 1 4 5
M  V30 5 2 5 6
M  V30 6 1 6 7
M  V30 7 2 7 8
M  V30 8 1 8 9
M  V30 9 2 9 10
M  V30 10 1 10 11
M  V30 11 1 11 12
M  V30 12 2 12 13
M  V30 13 1 12 14
M  V30 14 2 14 15
M  V30 15 1 15 16
M  V30 16 2 16 17
M  V30 17 1 17 18
M  V30 18 1 17 19
M  V30 19 1 19 20
M  V30 20 2 20 21
M  V30 21 1 21 22
M  V30 22 1 21 23
M  V30 23 2 23 24
M  V30 24 1 24 25
M  V30 25 1 25 26
M  V30 26 1 25 27
M  V30 27 1 27 28
M  V30 28 1 28 29
M  V30 29 1 29 30
M  V30 30 1 30 31
M  V30 31 1 24 32
M  V30 32 2 32 33
M  V30 33 1 33 34
M  V30 34 2 19 35
M  V30 35 1 4 36
M  V30 36 1 36 37
M  V30 37 1 37 38
M  V30 38 1 37 39
M  V30 39 1 39 40
M  V30 40 1 40 41
M  V30 41 2 41 42
M  V30 42 1 42 43
M  V30 43 2 43 44
M  V30 44 1 39 2
M  V30 45 1 44 40
M  V30 46 1 10 5
M  V30 47 1 35 14
M  V30 48 1 33 20
M  V30 49 1 31 25
M  V30 50 1 1 45
M  V30 51 1 1 46
M  V30 52 1 1 47
M  V30 53 1 2 48 CFG=3
M  V30 54 1 3 49
M  V30 55 1 3 50
M  V30 56 1 6 51
M  V30 57 1 7 52
M  V30 58 1 9 53
M  V30 59 1 11 54
M  V30 60 1 15 55
M  V30 61 1 16 56
M  V30 62 1 23 57
M  V30 63 1 26 58
M  V30 64 1 27 59
M  V30 65 1 27 60
M  V30 66 1 28 61
M  V30 67 1 28 62
M  V30 68 1 30 63
M  V30 69 1 30 64
M  V30 70 1 31 65
M  V30 71 1 31 66
M  V30 72 1 32 67
M  V30 73 1 36 68
M  V30 74 1 36 69
M  V30 75 1 37 70 CFG=1
M  V30 76 1 38 71
M  V30 77 1 38 72
M  V30 78 1 39 73 CFG=3
M  V30 79 1 41 74
M  V30 80 1 42 75
M  V30 END BOND
M  V30 END CTAB
M  END
>  <Dataset>  (461) 
ChEMBL_Kinases

>  <Ligand_Instance>  (461) 
nan

>  <PDB_ID>  (461) 
nan

>  <Standardized_SMILES>  (461) 
C[C@H]1CN(c2ccncc2NC(=O)c2ccc(F)c(-c3c(F)cc(C4(O)CCOCC4)cc3F)n2)C[C@@H](N)[C@H]1n1ccnn1

>  <Name>  (461) 
nan

>  <Pocket>  (461) 
nan

>  <ATP_Site>  (461) 
nan

>  <Peripheral>  (461) 
nan

>  <Num_H_Atoms_ProtBoundConf>  (461) 
nan

>  <Num_Resolved_Atoms>  (461) 
nan

>  <Num_Not_Resolved_Atoms>  (461) 
nan

$$$$
CHEMBL3702115
     RDKit          3D

  0  0  0  0  0  0  0  0  0  0999 V3000
M  V30 BEGIN CTAB
M  V30 COUNTS 60 65 0 0 0
M  V30 BEGIN ATOM
M  V30 1 F 1.664804 -6.521142 -1.199799 0
M  V30 2 C 2.714768 -5.936030 -0.568479 0
M  V30 3 N 3.751893 -6.601591 -0.081244 0
M  V30 4 C 4.823476 -6.130148 0.547331 0
M  V30 5 C 4.820189 -4.734259 0.697675 0
M  V30 6 C 3.768389 -3.952115 0.216193 0
M  V30 7 C 3.600478 -2.589510 0.276137 0
M  V30 8 C 4.275588 -1.491944 0.764364 0
M  V30 9 N 3.760882 -0.247315 0.627557 0
M  V30 10 C 2.564742 -0.052390 0.004662 0
M  V30 11 N 1.935347 1.210423 -0.179628 0
M  V30 12 C 0.918306 1.712677 0.715665 0
M  V30 13 C 0.313607 2.939590 0.565340 0
M  V30 14 C -0.675491 3.354548 1.467737 0
M  V30 15 C -1.002229 2.474727 2.499937 0
M  V30 16 C -2.038987 2.816397 3.506394 0
M  V30 17 N -3.347022 2.406774 3.135980 0
M  V30 18 C -3.545911 1.016834 2.917272 0
M  V30 19 C -4.940661 0.679034 2.529602 0
M  V30 20 N -5.594027 1.576435 1.638182 0
M  V30 21 C -4.638327 2.531966 1.122147 0
M  V30 22 C -4.098492 3.302912 2.327585 0
M  V30 23 C -0.371365 1.230122 2.632314 0
M  V30 24 N 0.580211 0.870644 1.735063 0
M  V30 25 N 1.881898 -1.128985 -0.485654 0
M  V30 26 C 2.391875 -2.376874 -0.351463 0
M  V30 27 N 1.865771 -3.542312 -0.763448 0
M  V30 28 C 0.640618 -3.842204 -1.453412 0
M  V30 29 C -0.339200 -2.720550 -1.527769 0
M  V30 30 C -0.177759 -2.049293 -2.867374 0
M  V30 31 C 0.993974 -2.723658 -3.552084 0
M  V30 32 C 0.984083 -4.097013 -2.917345 0
M  V30 33 C 2.690965 -4.568111 -0.432340 0
M  V30 34 H 5.642706 -6.719135 0.926170 0
M  V30 35 H 5.649671 -4.249233 1.197621 0
M  V30 36 H 5.219896 -1.660408 1.255262 0
M  V30 37 H 2.170662 1.844567 -0.971503 0
M  V30 38 H 0.607650 3.579724 -0.255374 0
M  V30 39 H -1.154932 4.302922 1.366103 0
M  V30 40 H -1.760606 2.303087 4.454146 0
M  V30 41 H -2.051975 3.893736 3.750834 0
M  V30 42 H -2.806407 0.545260 2.239308 0
M  V30 43 H -3.364500 0.514110 3.917108 0
M  V30 44 H -4.887183 -0.315242 1.994403 0
M  V30 45 H -5.604014 0.459003 3.404369 0
M  V30 46 H -6.214155 1.156367 0.924755 0
M  V30 47 H -3.840195 1.981814 0.593728 0
M  V30 48 H -5.119082 3.252496 0.408619 0
M  V30 49 H -5.016685 3.606227 2.914214 0
M  V30 50 H -3.600816 4.238373 2.033668 0
M  V30 51 H -0.594040 0.523725 3.413613 0
M  V30 52 H 0.163289 -4.777481 -1.088966 0
M  V30 53 H -0.300293 -2.045370 -0.663887 0
M  V30 54 H -1.371336 -3.180612 -1.518516 0
M  V30 55 H -0.043765 -0.970107 -2.765735 0
M  V30 56 H -1.066991 -2.216696 -3.532609 0
M  V30 57 H 1.905256 -2.176646 -3.284030 0
M  V30 58 H 0.871327 -2.783391 -4.644452 0
M  V30 59 H 0.300661 -4.802519 -3.386398 0
M  V30 60 H 2.050140 -4.467175 -2.964678 0
M  V30 END ATOM
M  V30 BEGIN BOND
M  V30 1 1 1 2
M  V30 2 2 2 3
M  V30 3 1 3 4
M  V30 4 2 4 5
M  V30 5 1 5 6
M  V30 6 1 6 7
M  V30 7 2 7 8
M  V30 8 1 8 9
M  V30 9 2 9 10
M  V30 10 1 10 11
M  V30 11 1 11 12
M  V30 12 2 12 13
M  V30 13 1 13 14
M  V30 14 2 14 15
M  V30 15 1 15 16
M  V30 16 1 16 17
M  V30 17 1 17 18
M  V30 18 1 18 19
M  V30 19 1 19 20
M  V30 20 1 20 21
M  V30 21 1 21 22
M  V30 22 1 15 23
M  V30 23 2 23 24
M  V30 24 1 10 25
M  V30 25 2 25 26
M  V30 26 1 26 27
M  V30 27 1 27 28
M  V30 28 1 28 29
M  V30 29 1 29 30
M  V30 30 1 30 31
M  V30 31 1 31 32
M  V30 32 1 27 33
M  V30 33 1 33 2
M  V30 34 2 33 6
M  V30 35 1 26 7
M  V30 36 1 32 28
M  V30 37 1 24 12
M  V30 38 1 22 17
M  V30 39 1 4 34
M  V30 40 1 5 35
M  V30 41 1 8 36
M  V30 42 1 11 37
M  V30 43 1 13 38
M  V30 44 1 14 39
M  V30 45 1 16 40
M  V30 46 1 16 41
M  V30 47 1 18 42
M  V30 48 1 18 43
M  V30 49 1 19 44
M  V30 50 1 19 45
M  V30 51 1 20 46
M  V30 52 1 21 47
M  V30 53 1 21 48
M  V30 54 1 22 49
M  V30 55 1 22 50
M  V30 56 1 23 51
M  V30 57 1 28 52
M  V30 58 1 29 53
M  V30 59 1 29 54
M  V30 60 1 30 55
M  V30 61 1 30 56
M  V30 62 1 31 57
M  V30 63 1 31 58
M  V30 64 1 32 59
M  V30 65 1 32 60
M  V30 END BOND
M  V30 END CTAB
M  END
>  <Dataset>  (462) 
ChEMBL_Kinases

>  <Ligand_Instance>  (462) 
nan

>  <PDB_ID>  (462) 
nan

>  <Standardized_SMILES>  (462) 
Fc1nccc2c3cnc(Nc4ccc(CN5CCNCC5)cn4)nc3n(C3CCCC3)c12

>  <Name>  (462) 
nan

>  <Pocket>  (462) 
nan

>  <ATP_Site>  (462) 
nan

>  <Peripheral>  (462) 
nan

>  <Num_H_Atoms_ProtBoundConf>  (462) 
nan

>  <Num_Resolved_Atoms>  (462) 
nan

>  <Num_Not_Resolved_Atoms>  (462) 
nan

$$$$
CHEMBL2408790
     RDKit          3D

  0  0  0  0  0  0  0  0  0  0999 V3000
M  V30 BEGIN CTAB
M  V30 COUNTS 64 68 0 0 0
M  V30 BEGIN ATOM
M  V30 1 C 1.752579 2.031680 5.081523 0
M  V30 2 O 2.416302 2.452839 3.897736 0
M  V30 3 C 3.195525 1.513941 3.235463 0
M  V30 4 C 3.340481 0.211275 3.685906 0
M  V30 5 C 4.097338 -0.752559 3.069457 0
M  V30 6 C 4.776810 -0.417737 1.905505 0
M  V30 7 C 4.652001 0.884409 1.425937 0
M  V30 8 F 5.308473 1.221808 0.295604 0
M  V30 9 C 3.878627 1.824672 2.078416 0
M  V30 10 C 3.810016 3.184145 1.485554 0
M  V30 11 N 2.619304 3.469977 0.806947 0
M  V30 12 C 2.416473 4.710322 0.199751 0
M  V30 13 C 1.639309 4.710624 -1.076170 0
M  V30 14 C 1.243426 3.362627 -1.576838 0
M  V30 15 C 0.847745 2.380451 -0.524714 0 CFG=1
M  V30 16 N 1.090692 1.039101 -1.077514 0
M  V30 17 C 0.063545 0.096868 -1.242372 0
M  V30 18 O -1.087760 0.464163 -0.890558 0
M  V30 19 N 0.354089 -1.203455 -1.786254 0
M  V30 20 C -0.804478 -2.035624 -1.883992 0
M  V30 21 C -1.688849 -2.169212 -2.938041 0
M  V30 22 C -2.752114 -3.040243 -2.812384 0
M  V30 23 N -3.718203 -3.315396 -3.712823 0
M  V30 24 N -4.486820 -4.204464 -3.114798 0
M  V30 25 C -4.048475 -4.501578 -1.878232 0
M  V30 26 C -4.644209 -5.441986 -0.923057 0
M  V30 27 C -5.080181 -6.713334 -1.240984 0
M  V30 28 C -5.631359 -7.538438 -0.295579 0
M  V30 29 N -5.774639 -7.146175 0.995530 0
M  V30 30 C -5.366267 -5.903672 1.382744 0
M  V30 31 C -5.499595 -5.416664 2.794139 0
M  V30 32 C -4.815276 -5.092595 0.413401 0
M  V30 33 C -2.910101 -3.756610 -1.643107 0
M  V30 34 C -2.016829 -3.603040 -0.616070 0
M  V30 35 N -0.970195 -2.742029 -0.746476 0
M  V30 36 C 1.625194 2.474520 0.748604 0
M  V30 37 H 1.221380 1.077412 4.941531 0
M  V30 38 H 1.070172 2.792942 5.486049 0
M  V30 39 H 2.538667 1.831480 5.855377 0
M  V30 40 H 2.839177 -0.111577 4.581618 0
M  V30 41 H 4.176556 -1.760514 3.466456 0
M  V30 42 H 5.369034 -1.158073 1.415896 0
M  V30 43 H 4.679816 3.386458 0.825362 0
M  V30 44 H 3.929409 3.894641 2.334249 0
M  V30 45 H 3.421429 5.211955 0.089549 0
M  V30 46 H 1.867913 5.391686 0.899381 0
M  V30 47 H 2.302967 5.162904 -1.866718 0
M  V30 48 H 0.743839 5.368941 -1.065157 0
M  V30 49 H 0.364284 3.496425 -2.266722 0
M  V30 50 H 2.049701 2.915246 -2.221894 0
M  V30 51 H -0.258623 2.429728 -0.303095 0
M  V30 52 H 2.083613 0.790789 -1.356855 0
M  V30 53 H 1.347707 -1.403876 -2.046159 0
M  V30 54 H -1.440902 -1.547888 -3.787238 0
M  V30 55 H -3.820600 -2.904862 -4.669583 0
M  V30 56 H -4.964740 -7.023871 -2.270901 0
M  V30 57 H -5.976591 -8.544014 -0.544432 0
M  V30 58 H -5.773827 -4.321883 2.766919 0
M  V30 59 H -6.243193 -5.997205 3.353870 0
M  V30 60 H -4.537558 -5.447159 3.338670 0
M  V30 61 H -4.505594 -4.125222 0.738736 0
M  V30 62 H -2.157955 -4.178775 0.297783 0
M  V30 63 H 2.124358 1.498524 1.020505 0
M  V30 64 H 0.927445 2.651796 1.598262 0
M  V30 END ATOM
M  V30 BEGIN BOND
M  V30 1 1 1 2
M  V30 2 1 2 3
M  V30 3 2 3 4
M  V30 4 1 4 5
M  V30 5 2 5 6
M  V30 6 1 6 7
M  V30 7 1 7 8
M  V30 8 2 7 9
M  V30 9 1 9 10
M  V30 10 1 10 11
M  V30 11 1 11 12
M  V30 12 1 12 13
M  V30 13 1 13 14
M  V30 14 1 14 15
M  V30 15 1 15 16
M  V30 16 1 16 17
M  V30 17 2 17 18
M  V30 18 1 17 19
M  V30 19 1 19 20
M  V30 20 2 20 21
M  V30 21 1 21 22
M  V30 22 1 22 23
M  V30 23 1 23 24
M  V30 24 2 24 25
M  V30 25 1 25 26
M  V30 26 2 26 27
M  V30 27 1 27 28
M  V30 28 2 28 29
M  V30 29 1 29 30
M  V30 30 1 30 31
M  V30 31 2 30 32
M  V30 32 1 25 33
M  V30 33 1 33 34
M  V30 34 2 34 35
M  V30 35 1 15 36
M  V30 36 1 9 3
M  V30 37 1 36 11
M  V30 38 1 35 20
M  V30 39 2 33 22
M  V30 40 1 32 26
M  V30 41 1 1 37
M  V30 42 1 1 38
M  V30 43 1 1 39
M  V30 44 1 4 40
M  V30 45 1 5 41
M  V30 46 1 6 42
M  V30 47 1 10 43
M  V30 48 1 10 44
M  V30 49 1 12 45
M  V30 50 1 12 46
M  V30 51 1 13 47
M  V30 52 1 13 48
M  V30 53 1 14 49
M  V30 54 1 14 50
M  V30 55 1 15 51 CFG=1
M  V30 56 1 16 52
M  V30 57 1 19 53
M  V30 58 1 21 54
M  V30 59 1 23 55
M  V30 60 1 27 56
M  V30 61 1 28 57
M  V30 62 1 31 58
M  V30 63 1 31 59
M  V30 64 1 31 60
M  V30 65 1 32 61
M  V30 66 1 34 62
M  V30 67 1 36 63
M  V30 68 1 36 64
M  V30 END BOND
M  V30 END CTAB
M  END
>  <Dataset>  (463) 
ChEMBL_Kinases

>  <Ligand_Instance>  (463) 
nan

>  <PDB_ID>  (463) 
nan

>  <Standardized_SMILES>  (463) 
COc1cccc(F)c1CN1CCC[C@@H](NC(=O)Nc2cc3[nH]nc(-c4ccnc(C)c4)c3cn2)C1

>  <Name>  (463) 
nan

>  <Pocket>  (463) 
nan

>  <ATP_Site>  (463) 
nan

>  <Peripheral>  (463) 
nan

>  <Num_H_Atoms_ProtBoundConf>  (463) 
nan

>  <Num_Resolved_Atoms>  (463) 
nan

>  <Num_Not_Resolved_Atoms>  (463) 
nan

$$$$
CHEMBL3691943
     RDKit          3D

  0  0  0  0  0  0  0  0  0  0999 V3000
M  V30 BEGIN CTAB
M  V30 COUNTS 77 81 0 0 0
M  V30 BEGIN ATOM
M  V30 1 C 5.396910 -0.764712 5.912292 0
M  V30 2 O 4.970900 -1.418537 4.751235 0
M  V30 3 C 3.695762 -1.288988 4.212794 0
M  V30 4 O 3.045904 -0.511472 4.935776 0
M  V30 5 N 3.240543 -1.952096 3.026207 0
M  V30 6 C 1.881488 -1.709482 2.604876 0 CFG=2
M  V30 7 C 1.107319 -2.940292 2.235463 0 CFG=2
M  V30 8 N 0.541130 -3.602901 3.396683 0
M  V30 9 C 1.970575 -3.830410 1.418221 0
M  V30 10 N 2.527389 -3.103738 0.334519 0
M  V30 11 C 2.819165 -3.622056 -0.921330 0
M  V30 12 C 4.061393 -3.797485 -1.491058 0
M  V30 13 C 4.320807 -4.306106 -2.760673 0
M  V30 14 N 3.231577 -4.652868 -3.485508 0
M  V30 15 C 1.978747 -4.497192 -2.960678 0
M  V30 16 C 1.736389 -3.986566 -1.684887 0
M  V30 17 N 0.332692 -3.930157 -1.472825 0
M  V30 18 C -0.716889 -4.820535 -1.080032 0
M  V30 19 O -0.551446 -6.018599 -0.800846 0
M  V30 20 C -1.992573 -4.114315 -1.062299 0
M  V30 21 C -3.142837 -4.861003 -0.923023 0
M  V30 22 C -4.426450 -4.320224 -0.961711 0
M  V30 23 C -4.614815 -2.976484 -1.145446 0
M  V30 24 F -5.743501 -2.240348 -1.220693 0
M  V30 25 C -3.443226 -2.243977 -1.279695 0
M  V30 26 C -3.279215 -0.785871 -1.431705 0
M  V30 27 C -3.932026 -0.085388 -0.451410 0
M  V30 28 F -4.688376 -0.605931 0.533883 0
M  V30 29 C -3.783413 1.274204 -0.514336 0
M  V30 30 C -3.067227 1.917542 -1.441698 0
M  V30 31 O -2.780709 3.246279 -1.703014 0
M  V30 32 C -3.340491 4.344263 -1.016422 0
M  V30 33 C -2.461725 4.685726 0.188900 0
M  V30 34 C -1.481167 5.714663 -0.313635 0
M  V30 35 O -2.205312 6.901738 -0.398073 0
M  V30 36 C -3.188397 6.819857 -1.320109 0
M  V30 37 C -3.561685 5.511752 -1.902878 0
M  V30 38 C -2.403837 1.177734 -2.440456 0
M  V30 39 C -2.504786 -0.217417 -2.448040 0
M  V30 40 F -1.930676 -1.047354 -3.339521 0
M  V30 41 N -2.247337 -2.822350 -1.232921 0
M  V30 42 C 2.878564 -1.694894 0.319694 0
M  V30 43 C 2.009796 -0.905483 1.295668 0 CFG=2
M  V30 44 C 2.798860 0.335662 1.649101 0
M  V30 45 H 6.259845 -1.309195 6.380081 0
M  V30 46 H 4.630215 -0.719076 6.695271 0
M  V30 47 H 5.811333 0.263200 5.719433 0
M  V30 48 H 3.978097 -2.540420 2.607542 0
M  V30 49 H 1.338154 -1.041769 3.294690 0
M  V30 50 H 0.257157 -2.602126 1.579345 0
M  V30 51 H -0.293421 -4.119314 3.041949 0
M  V30 52 H 0.192581 -2.832311 4.022308 0
M  V30 53 H 2.849034 -4.132045 2.065922 0
M  V30 54 H 1.506328 -4.790516 1.145004 0
M  V30 55 H 4.918725 -3.515160 -0.870286 0
M  V30 56 H 5.336006 -4.417158 -3.138780 0
M  V30 57 H 1.272487 -4.835605 -3.707435 0
M  V30 58 H 0.242168 -2.924169 -1.708395 0
M  V30 59 H -3.062938 -5.929099 -0.780821 0
M  V30 60 H -5.332646 -4.897411 -0.860497 0
M  V30 61 H -4.238768 1.976477 0.189422 0
M  V30 62 H -4.297773 4.001062 -0.570108 0
M  V30 63 H -2.029326 3.835943 0.680838 0
M  V30 64 H -3.081826 5.230626 0.955387 0
M  V30 65 H -0.590060 5.844445 0.340906 0
M  V30 66 H -1.140895 5.405556 -1.321331 0
M  V30 67 H -2.896502 7.566714 -2.139678 0
M  V30 68 H -4.129531 7.297874 -0.883992 0
M  V30 69 H -3.075279 5.390671 -2.911205 0
M  V30 70 H -4.662935 5.532885 -2.167028 0
M  V30 71 H -1.772073 1.501887 -3.278338 0
M  V30 72 H 2.765217 -1.198677 -0.643332 0
M  V30 73 H 3.911302 -1.599413 0.705354 0
M  V30 74 H 1.034484 -0.626360 0.888364 0
M  V30 75 H 3.838802 0.105877 1.961673 0
M  V30 76 H 2.354046 0.919682 2.451583 0
M  V30 77 H 2.911935 0.989746 0.751439 0
M  V30 END ATOM
M  V30 BEGIN BOND
M  V30 1 1 1 2
M  V30 2 1 2 3
M  V30 3 2 3 4
M  V30 4 1 3 5
M  V30 5 1 5 6
M  V30 6 1 6 7
M  V30 7 1 7 8
M  V30 8 1 7 9
M  V30 9 1 9 10
M  V30 10 1 10 11
M  V30 11 2 11 12
M  V30 12 1 12 13
M  V30 13 2 13 14
M  V30 14 1 14 15
M  V30 15 2 15 16
M  V30 16 1 16 17
M  V30 17 1 17 18
M  V30 18 2 18 19
M  V30 19 1 18 20
M  V30 20 2 20 21
M  V30 21 1 21 22
M  V30 22 2 22 23
M  V30 23 1 23 24
M  V30 24 1 23 25
M  V30 25 1 25 26
M  V30 26 2 26 27
M  V30 27 1 27 28
M  V30 28 1 27 29
M  V30 29 2 29 30
M  V30 30 1 30 31
M  V30 31 1 31 32
M  V30 32 1 32 33
M  V30 33 1 33 34
M  V30 34 1 34 35
M  V30 35 1 35 36
M  V30 36 1 36 37
M  V30 37 1 30 38
M  V30 38 2 38 39
M  V30 39 1 39 40
M  V30 40 2 25 41
M  V30 41 1 10 42
M  V30 42 1 42 43
M  V30 43 1 43 44
M  V30 44 1 43 6
M  V30 45 1 16 11
M  V30 46 1 41 20
M  V30 47 1 39 26
M  V30 48 1 37 32
M  V30 49 1 1 45
M  V30 50 1 1 46
M  V30 51 1 1 47
M  V30 52 1 5 48
M  V30 53 1 6 49 CFG=1
M  V30 54 1 7 50 CFG=3
M  V30 55 1 8 51
M  V30 56 1 8 52
M  V30 57 1 9 53
M  V30 58 1 9 54
M  V30 59 1 12 55
M  V30 60 1 13 56
M  V30 61 1 15 57
M  V30 62 1 17 58
M  V30 63 1 21 59
M  V30 64 1 22 60
M  V30 65 1 29 61
M  V30 66 1 32 62
M  V30 67 1 33 63
M  V30 68 1 33 64
M  V30 69 1 34 65
M  V30 70 1 34 66
M  V30 71 1 36 67
M  V30 72 1 36 68
M  V30 73 1 37 69
M  V30 74 1 37 70
M  V30 75 1 38 71
M  V30 76 1 42 72
M  V30 77 1 42 73
M  V30 78 1 43 74 CFG=3
M  V30 79 1 44 75
M  V30 80 1 44 76
M  V30 81 1 44 77
M  V30 END BOND
M  V30 END CTAB
M  END
>  <Dataset>  (464) 
ChEMBL_Kinases

>  <Ligand_Instance>  (464) 
nan

>  <PDB_ID>  (464) 
nan

>  <Standardized_SMILES>  (464) 
COC(=O)N[C@@H]1[C@H](N)CN(c2ccncc2NC(=O)c2ccc(F)c(-c3c(F)cc(OC4CCOCC4)cc3F)n2)C[C@@H]1C

>  <Name>  (464) 
nan

>  <Pocket>  (464) 
nan

>  <ATP_Site>  (464) 
nan

>  <Peripheral>  (464) 
nan

>  <Num_H_Atoms_ProtBoundConf>  (464) 
nan

>  <Num_Resolved_Atoms>  (464) 
nan

>  <Num_Not_Resolved_Atoms>  (464) 
nan

$$$$
CHEMBL3691942
     RDKit          3D

  0  0  0  0  0  0  0  0  0  0999 V3000
M  V30 BEGIN CTAB
M  V30 COUNTS 73 77 0 0 0
M  V30 BEGIN ATOM
M  V30 1 C 3.810002 -0.148597 2.545716 0
M  V30 2 O 3.703935 -0.819670 1.297197 0
M  V30 3 C 2.684872 -0.606716 0.406435 0
M  V30 4 O 1.760844 0.227577 0.667476 0
M  V30 5 N 2.592874 -1.286793 -0.839482 0
M  V30 6 C 1.550084 -1.101020 -1.804235 0 CFG=2
M  V30 7 C 0.764436 -2.334650 -2.094856 0 CFG=2
M  V30 8 N 1.544651 -3.548629 -1.957161 0
M  V30 9 C 0.143994 -2.219779 -3.466259 0
M  V30 10 N -0.116368 -0.864827 -3.836364 0
M  V30 11 C -1.347500 -0.235792 -4.172112 0
M  V30 12 C -1.332859 0.289753 -5.470289 0
M  V30 13 C -2.418751 0.950150 -6.014020 0
M  V30 14 N -3.528456 1.091721 -5.266955 0
M  V30 15 C -3.573393 0.598021 -4.016998 0
M  V30 16 C -2.506977 -0.064693 -3.448622 0
M  V30 17 N -2.450281 -0.618966 -2.141210 0
M  V30 18 C -2.897148 -1.977622 -1.965511 0
M  V30 19 O -3.342898 -2.727520 -2.897948 0
M  V30 20 C -2.831090 -2.531171 -0.609530 0
M  V30 21 C -3.237363 -3.821781 -0.347391 0
M  V30 22 C -3.197519 -4.397062 0.910510 0
M  V30 23 C -2.713629 -3.592084 1.937681 0
M  V30 24 F -2.634782 -4.066772 3.213349 0
M  V30 25 C -2.298764 -2.289209 1.697545 0
M  V30 26 C -1.782970 -1.406810 2.747408 0
M  V30 27 C -0.433087 -1.368655 3.041708 0
M  V30 28 F 0.461630 -2.145065 2.370615 0
M  V30 29 C 0.085935 -0.548351 4.025243 0
M  V30 30 C -0.770556 0.261975 4.740133 0
M  V30 31 C -0.478168 1.223825 5.834171 0
M  V30 32 O -1.448375 1.259703 6.834549 0
M  V30 33 C -0.182315 2.632448 5.359446 0
M  V30 34 C 1.276928 2.375218 5.572380 0
M  V30 35 C 0.910604 1.168665 6.411344 0
M  V30 36 C -2.137936 0.222854 4.441489 0
M  V30 37 C -2.651589 -0.598629 3.457677 0
M  V30 38 F -3.961496 -0.662368 3.143137 0
M  V30 39 N -2.380323 -1.832634 0.441153 0
M  V30 40 C 1.014140 0.042254 -3.896178 0
M  V30 41 C 2.139248 -0.466859 -3.039374 0 CFG=2
M  V30 42 C 3.141727 -1.309085 -3.751798 0
M  V30 43 H 4.051090 -0.868396 3.350484 0
M  V30 44 H 4.699826 0.515161 2.465144 0
M  V30 45 H 2.913086 0.454439 2.766806 0
M  V30 46 H 3.364231 -1.975166 -1.044003 0
M  V30 47 H 0.843973 -0.332582 -1.389596 0
M  V30 48 H -0.042288 -2.402872 -1.361181 0
M  V30 49 H 1.659949 -3.712825 -0.934324 0
M  V30 50 H 1.053225 -4.308190 -2.451679 0
M  V30 51 H 0.934787 -2.610012 -4.173889 0
M  V30 52 H -0.699868 -2.920342 -3.604676 0
M  V30 53 H -0.480625 0.226163 -6.154434 0
M  V30 54 H -2.414432 1.358282 -7.015301 0
M  V30 55 H -4.447597 0.689435 -3.379066 0
M  V30 56 H -2.103625 -0.095357 -1.306925 0
M  V30 57 H -3.612744 -4.421664 -1.188541 0
M  V30 58 H -3.518795 -5.415285 1.113047 0
M  V30 59 H 1.098645 -0.448273 4.322891 0
M  V30 60 H -2.120298 1.928769 6.559784 0
M  V30 61 H -0.425642 2.711575 4.269467 0
M  V30 62 H -0.641554 3.433482 5.974159 0
M  V30 63 H 1.763384 3.198859 6.141780 0
M  V30 64 H 1.817055 2.125143 4.628436 0
M  V30 65 H 0.967700 1.455568 7.492986 0
M  V30 66 H 1.539809 0.316797 6.157098 0
M  V30 67 H -2.911676 0.814312 4.935385 0
M  V30 68 H 0.729601 1.081312 -3.649779 0
M  V30 69 H 1.405591 0.036129 -4.945784 0
M  V30 70 H 2.674101 0.453661 -2.660428 0
M  V30 71 H 2.861407 -1.348117 -4.839211 0
M  V30 72 H 3.197349 -2.364883 -3.417197 0
M  V30 73 H 4.153759 -0.833106 -3.758395 0
M  V30 END ATOM
M  V30 BEGIN BOND
M  V30 1 1 1 2
M  V30 2 1 2 3
M  V30 3 2 3 4
M  V30 4 1 3 5
M  V30 5 1 5 6
M  V30 6 1 6 7
M  V30 7 1 7 8
M  V30 8 1 7 9
M  V30 9 1 9 10
M  V30 10 1 10 11
M  V30 11 2 11 12
M  V30 12 1 12 13
M  V30 13 2 13 14
M  V30 14 1 14 15
M  V30 15 2 15 16
M  V30 16 1 16 17
M  V30 17 1 17 18
M  V30 18 2 18 19
M  V30 19 1 18 20
M  V30 20 2 20 21
M  V30 21 1 21 22
M  V30 22 2 22 23
M  V30 23 1 23 24
M  V30 24 1 23 25
M  V30 25 1 25 26
M  V30 26 2 26 27
M  V30 27 1 27 28
M  V30 28 1 27 29
M  V30 29 2 29 30
M  V30 30 1 30 31
M  V30 31 1 31 32
M  V30 32 1 31 33
M  V30 33 1 33 34
M  V30 34 1 34 35
M  V30 35 1 30 36
M  V30 36 2 36 37
M  V30 37 1 37 38
M  V30 38 2 25 39
M  V30 39 1 10 40
M  V30 40 1 40 41
M  V30 41 1 41 42
M  V30 42 1 41 6
M  V30 43 1 16 11
M  V30 44 1 39 20
M  V30 45 1 37 26
M  V30 46 1 35 31
M  V30 47 1 1 43
M  V30 48 1 1 44
M  V30 49 1 1 45
M  V30 50 1 5 46
M  V30 51 1 6 47 CFG=1
M  V30 52 1 7 48 CFG=1
M  V30 53 1 8 49
M  V30 54 1 8 50
M  V30 55 1 9 51
M  V30 56 1 9 52
M  V30 57 1 12 53
M  V30 58 1 13 54
M  V30 59 1 15 55
M  V30 60 1 17 56
M  V30 61 1 21 57
M  V30 62 1 22 58
M  V30 63 1 29 59
M  V30 64 1 32 60
M  V30 65 1 33 61
M  V30 66 1 33 62
M  V30 67 1 34 63
M  V30 68 1 34 64
M  V30 69 1 35 65
M  V30 70 1 35 66
M  V30 71 1 36 67
M  V30 72 1 40 68
M  V30 73 1 40 69
M  V30 74 1 41 70 CFG=1
M  V30 75 1 42 71
M  V30 76 1 42 72
M  V30 77 1 42 73
M  V30 END BOND
M  V30 END CTAB
M  END
>  <Dataset>  (465) 
ChEMBL_Kinases

>  <Ligand_Instance>  (465) 
nan

>  <PDB_ID>  (465) 
nan

>  <Standardized_SMILES>  (465) 
COC(=O)N[C@@H]1[C@H](N)CN(c2ccncc2NC(=O)c2ccc(F)c(-c3c(F)cc(C4(O)CCC4)cc3F)n2)C[C@@H]1C

>  <Name>  (465) 
nan

>  <Pocket>  (465) 
nan

>  <ATP_Site>  (465) 
nan

>  <Peripheral>  (465) 
nan

>  <Num_H_Atoms_ProtBoundConf>  (465) 
nan

>  <Num_Resolved_Atoms>  (465) 
nan

>  <Num_Not_Resolved_Atoms>  (465) 
nan

$$$$
CHEMBL3691941
     RDKit          3D

  0  0  0  0  0  0  0  0  0  0999 V3000
M  V30 BEGIN CTAB
M  V30 COUNTS 70 74 0 0 0
M  V30 BEGIN ATOM
M  V30 1 C 1.798028 -2.618011 7.416698 0
M  V30 2 C 3.129974 -2.336556 6.724476 0
M  V30 3 O 2.922905 -1.580611 5.585671 0
M  V30 4 C 4.134251 -1.338802 4.977877 0
M  V30 5 C 3.886124 -0.517963 3.745876 0
M  V30 6 C 3.653500 -1.177015 2.555833 0
M  V30 7 C 3.423237 -0.403137 1.412976 0
M  V30 8 F 3.206773 -1.154499 0.302268 0
M  V30 9 C 3.430696 0.983126 1.484690 0
M  V30 10 C 3.168252 1.569168 0.174676 0
M  V30 11 N 1.845626 1.762042 -0.025862 0
M  V30 12 C 1.321094 2.282273 -1.134769 0
M  V30 13 C -0.083866 2.501543 -1.380941 0
M  V30 14 O -0.548039 2.995781 -2.442695 0
M  V30 15 N -0.976700 2.125949 -0.340602 0
M  V30 16 C -2.367918 2.150640 -0.137477 0
M  V30 17 C -2.995227 3.240224 0.426534 0
M  V30 18 N -4.338875 3.206666 0.598242 0
M  V30 19 C -5.063782 2.139403 0.231587 0
M  V30 20 C -4.460741 1.035960 -0.335066 0
M  V30 21 C -3.086465 1.039433 -0.524181 0
M  V30 22 N -2.538971 -0.147091 -1.119220 0
M  V30 23 C -1.809903 -0.220013 -2.363534 0
M  V30 24 C -2.217194 -1.384500 -3.236161 0 CFG=1
M  V30 25 N -1.026697 -2.101044 -3.648760 0
M  V30 26 C -3.174177 -2.239104 -2.474249 0 CFG=1
M  V30 27 N -3.617472 -3.398827 -3.203456 0
M  V30 28 C -4.414854 -4.323087 -2.637452 0
M  V30 29 C -4.667410 -5.312210 -3.583407 0
M  V30 30 N -3.999441 -4.933485 -4.696663 0
M  V30 31 N -3.389818 -3.792763 -4.427960 0
M  V30 32 C -2.696887 -2.593017 -1.078562 0 CFG=1
M  V30 33 C -1.271888 -3.073285 -1.038384 0
M  V30 34 C -2.824050 -1.306881 -0.275520 0
M  V30 35 C 2.190394 2.643785 -2.135617 0
M  V30 36 C 3.548767 2.471882 -1.990318 0
M  V30 37 C 4.042461 1.927435 -0.819496 0
M  V30 38 F 5.346247 1.685326 -0.501040 0
M  V30 39 C 3.666168 1.617235 2.688318 0
M  V30 40 F 3.645356 2.954671 2.615712 0
M  V30 41 C 3.894110 0.860229 3.819948 0
M  V30 42 H 1.594103 -1.845802 8.181948 0
M  V30 43 H 1.883707 -3.574763 7.973472 0
M  V30 44 H 0.988830 -2.634122 6.641730 0
M  V30 45 H 3.791246 -1.810164 7.443979 0
M  V30 46 H 3.602429 -3.325285 6.482738 0
M  V30 47 H 4.540475 -2.334951 4.648490 0
M  V30 48 H 4.906121 -0.893386 5.604817 0
M  V30 49 H 3.660201 -2.264285 2.563056 0
M  V30 50 H -0.643164 1.707832 0.568948 0
M  V30 51 H -2.371429 4.087360 0.710739 0
M  V30 52 H -6.119047 2.308705 0.452034 0
M  V30 53 H -5.138874 0.240086 -0.589384 0
M  V30 54 H -0.708723 -0.192632 -2.245717 0
M  V30 55 H -2.050886 0.717475 -2.940289 0
M  V30 56 H -2.731894 -1.056581 -4.156357 0
M  V30 57 H -1.191747 -2.766800 -4.425420 0
M  V30 58 H -0.347849 -1.380849 -3.975202 0
M  V30 59 H -4.098486 -1.609173 -2.322187 0
M  V30 60 H -4.866113 -4.427994 -1.641411 0
M  V30 61 H -5.233863 -6.238830 -3.617870 0
M  V30 62 H -3.338120 -3.391281 -0.700862 0
M  V30 63 H -0.516583 -2.283241 -1.084555 0
M  V30 64 H -1.099244 -3.897612 -1.749482 0
M  V30 65 H -1.153148 -3.553083 -0.022571 0
M  V30 66 H -2.121574 -1.357011 0.579154 0
M  V30 67 H -3.879395 -1.291898 0.077912 0
M  V30 68 H 1.864285 3.073198 -3.070917 0
M  V30 69 H 4.303427 2.724176 -2.716465 0
M  V30 70 H 4.073496 1.395718 4.738185 0
M  V30 END ATOM
M  V30 BEGIN BOND
M  V30 1 1 1 2
M  V30 2 1 2 3
M  V30 3 1 3 4
M  V30 4 1 4 5
M  V30 5 2 5 6
M  V30 6 1 6 7
M  V30 7 1 7 8
M  V30 8 2 7 9
M  V30 9 1 9 10
M  V30 10 2 10 11
M  V30 11 1 11 12
M  V30 12 1 12 13
M  V30 13 2 13 14
M  V30 14 1 13 15
M  V30 15 1 15 16
M  V30 16 2 16 17
M  V30 17 1 17 18
M  V30 18 2 18 19
M  V30 19 1 19 20
M  V30 20 2 20 21
M  V30 21 1 21 22
M  V30 22 1 22 23
M  V30 23 1 23 24
M  V30 24 1 24 25
M  V30 25 1 24 26
M  V30 26 1 26 27
M  V30 27 1 27 28
M  V30 28 2 28 29
M  V30 29 1 29 30
M  V30 30 2 30 31
M  V30 31 1 26 32
M  V30 32 1 32 33
M  V30 33 1 32 34
M  V30 34 2 12 35
M  V30 35 1 35 36
M  V30 36 2 36 37
M  V30 37 1 37 38
M  V30 38 1 9 39
M  V30 39 1 39 40
M  V30 40 2 39 41
M  V30 41 1 41 5
M  V30 42 1 37 10
M  V30 43 1 21 16
M  V30 44 1 34 22
M  V30 45 1 31 27
M  V30 46 1 1 42
M  V30 47 1 1 43
M  V30 48 1 1 44
M  V30 49 1 2 45
M  V30 50 1 2 46
M  V30 51 1 4 47
M  V30 52 1 4 48
M  V30 53 1 6 49
M  V30 54 1 15 50
M  V30 55 1 17 51
M  V30 56 1 19 52
M  V30 57 1 20 53
M  V30 58 1 23 54
M  V30 59 1 23 55
M  V30 60 1 24 56 CFG=3
M  V30 61 1 25 57
M  V30 62 1 25 58
M  V30 63 1 26 59 CFG=1
M  V30 64 1 28 60
M  V30 65 1 29 61
M  V30 66 1 32 62 CFG=1
M  V30 67 1 33 63
M  V30 68 1 33 64
M  V30 69 1 33 65
M  V30 70 1 34 66
M  V30 71 1 34 67
M  V30 72 1 35 68
M  V30 73 1 36 69
M  V30 74 1 41 70
M  V30 END BOND
M  V30 END CTAB
M  END
>  <Dataset>  (466) 
ChEMBL_Kinases

>  <Ligand_Instance>  (466) 
nan

>  <PDB_ID>  (466) 
nan

>  <Standardized_SMILES>  (466) 
CCOCc1cc(F)c(-c2nc(C(=O)Nc3cnccc3N3C[C@@H](N)[C@@H](n4ccnn4)[C@@H](C)C3)ccc2F)c(F)c1

>  <Name>  (466) 
nan

>  <Pocket>  (466) 
nan

>  <ATP_Site>  (466) 
nan

>  <Peripheral>  (466) 
nan

>  <Num_H_Atoms_ProtBoundConf>  (466) 
nan

>  <Num_Resolved_Atoms>  (466) 
nan

>  <Num_Not_Resolved_Atoms>  (466) 
nan

$$$$
CHEMBL2407916
     RDKit          3D

  0  0  0  0  0  0  0  0  0  0999 V3000
M  V30 BEGIN CTAB
M  V30 COUNTS 35 38 0 0 0
M  V30 BEGIN ATOM
M  V30 1 C -1.008160 -4.687408 1.734014 0
M  V30 2 O -0.935236 -3.372104 1.240089 0
M  V30 3 C 0.280505 -2.682732 1.348703 0
M  V30 4 C 1.343224 -3.368769 1.950002 0
M  V30 5 C 2.577674 -2.798512 2.110734 0
M  V30 6 C 2.825083 -1.513781 1.683249 0
M  V30 7 C 1.776921 -0.857958 1.100005 0
M  V30 8 C 0.537005 -1.401478 0.925308 0
M  V30 9 C 2.271731 0.440617 0.726356 0
M  V30 10 C 1.558024 1.401349 0.197878 0
M  V30 11 C 0.162685 1.511447 -0.158475 0
M  V30 12 C -0.064789 1.783656 -1.517721 0
M  V30 13 C -1.295511 2.001617 -2.100424 0
M  V30 14 C -2.400682 1.948479 -1.280245 0
M  V30 15 C -3.761841 2.098036 -1.430167 0
M  V30 16 N -4.357734 1.928017 -0.224172 0
M  V30 17 N -3.440716 1.673506 0.706961 0
M  V30 18 C -2.260778 1.686974 0.064319 0
M  V30 19 C -1.015661 1.476020 0.602150 0
M  V30 20 C 3.671731 0.533477 1.109576 0
M  V30 21 O 4.423095 1.518230 0.936354 0
M  V30 22 N 3.979069 -0.717670 1.708949 0
M  V30 23 H -1.979648 -5.156470 1.464885 0
M  V30 24 H -0.804913 -4.739723 2.828118 0
M  V30 25 H -0.208672 -5.321792 1.262485 0
M  V30 26 H 1.256535 -4.376490 2.319933 0
M  V30 27 H 3.398283 -3.325897 2.573828 0
M  V30 28 H -0.349752 -1.027410 0.471906 0
M  V30 29 H 2.086656 2.330879 -0.034110 0
M  V30 30 H 0.754499 1.842182 -2.229744 0
M  V30 31 H -1.421895 2.207527 -3.151184 0
M  V30 32 H -4.245827 2.318400 -2.386819 0
M  V30 33 H -3.607627 1.499213 1.729120 0
M  V30 34 H -0.761064 1.259232 1.650061 0
M  V30 35 H 4.911949 -0.982119 2.097369 0
M  V30 END ATOM
M  V30 BEGIN BOND
M  V30 1 1 1 2
M  V30 2 1 2 3
M  V30 3 2 3 4
M  V30 4 1 4 5
M  V30 5 2 5 6
M  V30 6 1 6 7
M  V30 7 2 7 8
M  V30 8 1 7 9
M  V30 9 2 9 10
M  V30 10 1 10 11
M  V30 11 2 11 12
M  V30 12 1 12 13
M  V30 13 2 13 14
M  V30 14 1 14 15
M  V30 15 2 15 16
M  V30 16 1 16 17
M  V30 17 1 17 18
M  V30 18 2 18 19
M  V30 19 1 9 20
M  V30 20 2 20 21
M  V30 21 1 20 22
M  V30 22 1 8 3
M  V30 23 1 19 11
M  V30 24 1 22 6
M  V30 25 1 18 14
M  V30 26 1 1 23
M  V30 27 1 1 24
M  V30 28 1 1 25
M  V30 29 1 4 26
M  V30 30 1 5 27
M  V30 31 1 8 28
M  V30 32 1 10 29
M  V30 33 1 12 30
M  V30 34 1 13 31
M  V30 35 1 15 32
M  V30 36 1 17 33
M  V30 37 1 19 34
M  V30 38 1 22 35
M  V30 END BOND
M  V30 END CTAB
M  END
>  <Dataset>  (467) 
ChEMBL_Kinases

>  <Ligand_Instance>  (467) 
nan

>  <PDB_ID>  (467) 
nan

>  <Standardized_SMILES>  (467) 
COc1ccc2c(c1)/C(=C\c1ccc3cn[nH]c3c1)C(=O)N2

>  <Name>  (467) 
nan

>  <Pocket>  (467) 
nan

>  <ATP_Site>  (467) 
nan

>  <Peripheral>  (467) 
nan

>  <Num_H_Atoms_ProtBoundConf>  (467) 
nan

>  <Num_Resolved_Atoms>  (467) 
nan

>  <Num_Not_Resolved_Atoms>  (467) 
nan

$$$$
CHEMBL3691940
     RDKit          3D

  0  0  0  0  0  0  0  0  0  0999 V3000
M  V30 BEGIN CTAB
M  V30 COUNTS 59 63 0 0 0
M  V30 BEGIN ATOM
M  V30 1 C 3.359800 -2.808718 2.624439 0
M  V30 2 C 2.357392 -2.218933 1.670547 0 CFG=1
M  V30 3 C 2.782096 -0.845743 1.303339 0
M  V30 4 N 1.672053 0.000281 0.803674 0
M  V30 5 C 1.671461 1.384461 1.102112 0
M  V30 6 C 2.939504 1.923074 1.386477 0
M  V30 7 C 3.195015 3.241144 1.654292 0
M  V30 8 N 2.140255 4.064003 1.638624 0
M  V30 9 C 0.933779 3.596152 1.376375 0
M  V30 10 C 0.630589 2.284721 1.103503 0
M  V30 11 N -0.640170 1.778285 0.839973 0
M  V30 12 C -1.884353 2.450411 0.711564 0
M  V30 13 O -1.917049 3.700544 0.843047 0
M  V30 14 C -3.186364 1.850190 0.435030 0
M  V30 15 N -3.317066 0.539270 0.279616 0
M  V30 16 C -4.402258 0.005980 0.047691 0
M  V30 17 C -4.822028 -1.382732 -0.160551 0
M  V30 18 C -6.146301 -1.670853 -0.405896 0
M  V30 19 F -7.106635 -0.719121 -0.469564 0
M  V30 20 C -6.496192 -3.010770 -0.594654 0
M  V30 21 C -5.514771 -3.995693 -0.530552 0
M  V30 22 C -4.202023 -3.656268 -0.282173 0
M  V30 23 C -3.850517 -2.327276 -0.093931 0
M  V30 24 F -2.546982 -2.029318 0.148978 0
M  V30 25 S -5.615612 1.340427 -0.014480 0
M  V30 26 C -4.288574 2.645533 0.336030 0
M  V30 27 N -4.564305 4.059573 0.435369 0
M  V30 28 C 0.885418 -0.908152 0.079667 0
M  V30 29 C 1.691125 -2.024343 -0.613542 0 CFG=1
M  V30 30 N 2.704863 -1.493581 -1.467298 0
M  V30 31 C 2.295090 -2.994741 0.363674 0 CFG=1
M  V30 32 N 3.621979 -3.330786 -0.110144 0
M  V30 33 C 4.200613 -4.516424 0.168247 0
M  V30 34 C 5.458317 -4.522094 -0.425995 0
M  V30 35 N 5.599835 -3.348485 -1.040562 0
M  V30 36 N 4.505165 -2.668967 -0.838001 0
M  V30 37 H 3.207981 -2.364633 3.629995 0
M  V30 38 H 3.217792 -3.907901 2.776710 0
M  V30 39 H 4.401419 -2.571941 2.325487 0
M  V30 40 H 1.359794 -2.173495 2.152675 0
M  V30 41 H 3.079566 -0.346318 2.278099 0
M  V30 42 H 3.624252 -0.857862 0.614795 0
M  V30 43 H 3.846864 1.297637 1.410330 0
M  V30 44 H 4.186311 3.615891 1.868749 0
M  V30 45 H 0.166461 4.353770 1.393536 0
M  V30 46 H -0.829116 0.766047 0.712811 0
M  V30 47 H -7.504669 -3.330563 -0.791379 0
M  V30 48 H -5.813119 -5.033272 -0.681035 0
M  V30 49 H -3.470773 -4.445715 -0.239258 0
M  V30 50 H -4.985288 4.463013 1.324201 0
M  V30 51 H -4.369713 4.749708 -0.342617 0
M  V30 52 H 0.143114 -1.396063 0.735177 0
M  V30 53 H 0.340893 -0.509124 -0.795713 0
M  V30 54 H 0.962912 -2.604253 -1.244689 0
M  V30 55 H 2.410200 -0.528981 -1.800176 0
M  V30 56 H 2.751768 -2.075851 -2.327768 0
M  V30 57 H 1.651183 -3.892700 0.459813 0
M  V30 58 H 3.867428 -5.376712 0.727702 0
M  V30 59 H 6.280465 -5.236672 -0.482822 0
M  V30 END ATOM
M  V30 BEGIN BOND
M  V30 1 1 1 2
M  V30 2 1 2 3
M  V30 3 1 3 4
M  V30 4 1 4 5
M  V30 5 2 5 6
M  V30 6 1 6 7
M  V30 7 2 7 8
M  V30 8 1 8 9
M  V30 9 2 9 10
M  V30 10 1 10 11
M  V30 11 1 11 12
M  V30 12 2 12 13
M  V30 13 1 12 14
M  V30 14 1 14 15
M  V30 15 2 15 16
M  V30 16 1 16 17
M  V30 17 2 17 18
M  V30 18 1 18 19
M  V30 19 1 18 20
M  V30 20 2 20 21
M  V30 21 1 21 22
M  V30 22 2 22 23
M  V30 23 1 23 24
M  V30 24 1 16 25
M  V30 25 1 25 26
M  V30 26 1 26 27
M  V30 27 1 4 28
M  V30 28 1 28 29
M  V30 29 1 29 30
M  V30 30 1 29 31
M  V30 31 1 31 32
M  V30 32 1 32 33
M  V30 33 2 33 34
M  V30 34 1 34 35
M  V30 35 2 35 36
M  V30 36 1 31 2
M  V30 37 1 36 32
M  V30 38 1 10 5
M  V30 39 2 26 14
M  V30 40 1 23 17
M  V30 41 1 1 37
M  V30 42 1 1 38
M  V30 43 1 1 39
M  V30 44 1 2 40 CFG=1
M  V30 45 1 3 41
M  V30 46 1 3 42
M  V30 47 1 6 43
M  V30 48 1 7 44
M  V30 49 1 9 45
M  V30 50 1 11 46
M  V30 51 1 20 47
M  V30 52 1 21 48
M  V30 53 1 22 49
M  V30 54 1 27 50
M  V30 55 1 27 51
M  V30 56 1 28 52
M  V30 57 1 28 53
M  V30 58 1 29 54 CFG=3
M  V30 59 1 30 55
M  V30 60 1 30 56
M  V30 61 1 31 57 CFG=1
M  V30 62 1 33 58
M  V30 63 1 34 59
M  V30 END BOND
M  V30 END CTAB
M  END
>  <Dataset>  (468) 
ChEMBL_Kinases

>  <Ligand_Instance>  (468) 
nan

>  <PDB_ID>  (468) 
nan

>  <Standardized_SMILES>  (468) 
C[C@H]1CN(c2ccncc2NC(=O)c2nc(-c3c(F)cccc3F)sc2N)C[C@@H](N)[C@H]1n1ccnn1

>  <Name>  (468) 
nan

>  <Pocket>  (468) 
nan

>  <ATP_Site>  (468) 
nan

>  <Peripheral>  (468) 
nan

>  <Num_H_Atoms_ProtBoundConf>  (468) 
nan

>  <Num_Resolved_Atoms>  (468) 
nan

>  <Num_Not_Resolved_Atoms>  (468) 
nan

$$$$
CHEMBL2419278
     RDKit          3D

  0  0  0  0  0  0  0  0  0  0999 V3000
M  V30 BEGIN CTAB
M  V30 COUNTS 33 34 0 0 0
M  V30 BEGIN ATOM
M  V30 1 C -3.607855 -3.968208 1.906980 0
M  V30 2 C -2.179523 -4.119249 1.449681 0 CFG=1
M  V30 3 N -2.148871 -5.024059 0.315704 0
M  V30 4 C -1.518205 -2.837196 1.197133 0
M  V30 5 C -2.063307 -1.646373 1.556123 0
M  V30 6 C -1.442755 -0.418429 1.320825 0
M  V30 7 C -0.217373 -0.425987 0.692964 0
M  V30 8 C 0.432887 0.858023 0.446204 0
M  V30 9 O -0.175114 1.891371 0.826819 0
M  V30 10 N 1.692431 0.984161 -0.190188 0
M  V30 11 C 2.341735 2.227171 -0.439220 0
M  V30 12 C 3.212830 2.800085 0.477012 0
M  V30 13 C 3.868666 3.979951 0.311921 0
M  V30 14 N 3.658270 4.650136 -0.832857 0
M  V30 15 C 2.828631 4.159033 -1.767783 0
M  V30 16 C 2.153499 2.951730 -1.606144 0
M  V30 17 C 0.337161 -1.635049 0.327923 0
M  V30 18 C -0.293102 -2.853340 0.568838 0
M  V30 19 H -3.677878 -3.400363 2.852614 0
M  V30 20 H -4.275917 -3.529984 1.157609 0
M  V30 21 H -3.976635 -5.007372 2.074945 0
M  V30 22 H -1.644981 -4.641343 2.288236 0
M  V30 23 H -1.206869 -5.510098 0.283179 0
M  V30 24 H -2.849799 -5.773002 0.497084 0
M  V30 25 H -3.026960 -1.626287 2.050822 0
M  V30 26 H -1.945546 0.498181 1.639760 0
M  V30 27 H 2.202092 0.130041 -0.508421 0
M  V30 28 H 3.377127 2.252586 1.398576 0
M  V30 29 H 4.531507 4.346744 1.088098 0
M  V30 30 H 2.592973 4.616574 -2.715246 0
M  V30 31 H 1.478337 2.520192 -2.330577 0
M  V30 32 H 1.291401 -1.661056 -0.162381 0
M  V30 33 H 0.192122 -3.770657 0.258877 0
M  V30 END ATOM
M  V30 BEGIN BOND
M  V30 1 1 1 2
M  V30 2 1 2 3
M  V30 3 1 2 4
M  V30 4 2 4 5
M  V30 5 1 5 6
M  V30 6 2 6 7
M  V30 7 1 7 8
M  V30 8 2 8 9
M  V30 9 1 8 10
M  V30 10 1 10 11
M  V30 11 2 11 12
M  V30 12 1 12 13
M  V30 13 2 13 14
M  V30 14 1 14 15
M  V30 15 2 15 16
M  V30 16 1 7 17
M  V30 17 2 17 18
M  V30 18 1 18 4
M  V30 19 1 16 11
M  V30 20 1 1 19
M  V30 21 1 1 20
M  V30 22 1 1 21
M  V30 23 1 2 22 CFG=1
M  V30 24 1 3 23
M  V30 25 1 3 24
M  V30 26 1 5 25
M  V30 27 1 6 26
M  V30 28 1 10 27
M  V30 29 1 12 28
M  V30 30 1 13 29
M  V30 31 1 15 30
M  V30 32 1 16 31
M  V30 33 1 17 32
M  V30 34 1 18 33
M  V30 END BOND
M  V30 END CTAB
M  END
>  <Dataset>  (469) 
ChEMBL_Kinases

>  <Ligand_Instance>  (469) 
nan

>  <PDB_ID>  (469) 
nan

>  <Standardized_SMILES>  (469) 
C[C@@H](N)c1ccc(C(=O)Nc2ccncc2)cc1

>  <Name>  (469) 
nan

>  <Pocket>  (469) 
nan

>  <ATP_Site>  (469) 
nan

>  <Peripheral>  (469) 
nan

>  <Num_H_Atoms_ProtBoundConf>  (469) 
nan

>  <Num_Resolved_Atoms>  (469) 
nan

>  <Num_Not_Resolved_Atoms>  (469) 
nan

$$$$
CHEMBL3691939
     RDKit          3D

  0  0  0  0  0  0  0  0  0  0999 V3000
M  V30 BEGIN CTAB
M  V30 COUNTS 71 75 0 0 0
M  V30 BEGIN ATOM
M  V30 1 C 3.611443 -3.268214 8.041112 0
M  V30 2 C 2.475799 -2.683747 7.211045 0
M  V30 3 O 1.914885 -3.611240 6.368081 0
M  V30 4 C 0.869668 -3.090317 5.605325 0
M  V30 5 C 1.319272 -1.963358 4.748291 0
M  V30 6 C 1.772347 -2.360695 3.497994 0
M  V30 7 C 2.208667 -1.371206 2.626697 0
M  V30 8 F 2.658787 -1.733371 1.393664 0
M  V30 9 C 2.201831 -0.020525 2.971448 0
M  V30 10 C 2.683609 0.931133 1.965242 0
M  V30 11 N 1.657843 1.333757 1.180913 0
M  V30 12 C 1.776604 2.198251 0.175634 0
M  V30 13 C 0.696360 2.654494 -0.691074 0
M  V30 14 O 0.825025 3.459276 -1.619629 0
M  V30 15 N -0.576319 2.093882 -0.393400 0
M  V30 16 C -1.901632 2.146317 -0.848318 0
M  V30 17 C -2.872582 3.021149 -0.407763 0
M  V30 18 N -4.114028 3.014237 -0.882849 0
M  V30 19 C -4.442577 2.124965 -1.827459 0
M  V30 20 C -3.546938 1.198419 -2.344198 0
M  V30 21 C -2.241595 1.212593 -1.838289 0
M  V30 22 C -1.298576 0.190221 -2.425338 0 CFG=1
M  V30 23 C -1.316951 -1.081778 -1.657303 0
M  V30 24 C -0.998406 -2.301997 -2.474717 0 CFG=1
M  V30 25 N -0.964771 -3.485086 -1.687501 0
M  V30 26 C -1.904710 -2.358571 -3.682600 0 CFG=1
M  V30 27 N -3.282900 -2.456499 -3.345551 0
M  V30 28 C -3.794083 -2.987431 -2.214262 0
M  V30 29 C -5.160432 -2.852849 -2.352006 0
M  V30 30 N -5.435849 -2.262351 -3.526086 0
M  V30 31 N -4.281310 -2.034118 -4.105464 0
M  V30 32 C -1.466183 -1.227644 -4.532019 0 CFG=1
M  V30 33 C -2.177826 -1.107047 -5.851142 0
M  V30 34 C -1.365947 0.110659 -3.895118 0
M  V30 35 C 3.021218 2.720561 -0.089025 0
M  V30 36 C 4.084978 2.330000 0.691916 0
M  V30 37 C 3.948077 1.436143 1.727159 0
M  V30 38 F 4.862197 0.949290 2.579949 0
M  V30 39 C 1.743489 0.337071 4.225706 0
M  V30 40 F 1.738499 1.646773 4.556208 0
M  V30 41 C 1.307695 -0.630290 5.101080 0
M  V30 42 H 4.578230 -3.059015 7.526165 0
M  V30 43 H 3.462850 -4.324324 8.264363 0
M  V30 44 H 3.642723 -2.704794 8.996601 0
M  V30 45 H 1.695840 -2.358116 7.927133 0
M  V30 46 H 2.821922 -1.765196 6.674262 0
M  V30 47 H 0.120885 -2.666724 6.334358 0
M  V30 48 H 0.358986 -3.857869 5.013652 0
M  V30 49 H 1.811573 -3.379203 3.150705 0
M  V30 50 H -0.724594 1.398998 0.398570 0
M  V30 51 H -2.481134 3.694173 0.361570 0
M  V30 52 H -5.482344 2.189754 -2.160108 0
M  V30 53 H -3.940220 0.552345 -3.087911 0
M  V30 54 H -0.300611 0.660091 -2.160740 0
M  V30 55 H -2.351350 -1.234277 -1.232072 0
M  V30 56 H -0.643133 -1.106159 -0.769701 0
M  V30 57 H 0.044249 -2.130951 -2.874805 0
M  V30 58 H -1.212441 -4.305630 -2.271336 0
M  V30 59 H -0.009929 -3.590043 -1.268039 0
M  V30 60 H -1.625719 -3.298490 -4.217224 0
M  V30 61 H -3.321562 -3.423575 -1.374580 0
M  V30 62 H -5.889832 -3.181484 -1.611028 0
M  V30 63 H -0.406877 -1.499278 -4.833331 0
M  V30 64 H -1.505517 -0.913264 -6.716061 0
M  V30 65 H -2.808522 -1.963658 -6.123301 0
M  V30 66 H -2.877025 -0.231686 -5.821275 0
M  V30 67 H -0.527446 0.705246 -4.375915 0
M  V30 68 H -2.258544 0.725858 -4.226438 0
M  V30 69 H 3.179619 3.419411 -0.883751 0
M  V30 70 H 5.110504 2.685136 0.563549 0
M  V30 71 H 0.942009 -0.387563 6.089937 0
M  V30 END ATOM
M  V30 BEGIN BOND
M  V30 1 1 1 2
M  V30 2 1 2 3
M  V30 3 1 3 4
M  V30 4 1 4 5
M  V30 5 2 5 6
M  V30 6 1 6 7
M  V30 7 1 7 8
M  V30 8 2 7 9
M  V30 9 1 9 10
M  V30 10 2 10 11
M  V30 11 1 11 12
M  V30 12 1 12 13
M  V30 13 2 13 14
M  V30 14 1 13 15
M  V30 15 1 15 16
M  V30 16 2 16 17
M  V30 17 1 17 18
M  V30 18 2 18 19
M  V30 19 1 19 20
M  V30 20 2 20 21
M  V30 21 1 21 22
M  V30 22 1 22 23
M  V30 23 1 23 24
M  V30 24 1 24 25
M  V30 25 1 24 26
M  V30 26 1 26 27
M  V30 27 1 27 28
M  V30 28 2 28 29
M  V30 29 1 29 30
M  V30 30 2 30 31
M  V30 31 1 26 32
M  V30 32 1 32 33
M  V30 33 1 32 34
M  V30 34 2 12 35
M  V30 35 1 35 36
M  V30 36 2 36 37
M  V30 37 1 37 38
M  V30 38 1 9 39
M  V30 39 1 39 40
M  V30 40 2 39 41
M  V30 41 1 41 5
M  V30 42 1 37 10
M  V30 43 1 21 16
M  V30 44 1 34 22
M  V30 45 1 31 27
M  V30 46 1 1 42
M  V30 47 1 1 43
M  V30 48 1 1 44
M  V30 49 1 2 45
M  V30 50 1 2 46
M  V30 51 1 4 47
M  V30 52 1 4 48
M  V30 53 1 6 49
M  V30 54 1 15 50
M  V30 55 1 17 51
M  V30 56 1 19 52
M  V30 57 1 20 53
M  V30 58 1 22 54 CFG=3
M  V30 59 1 23 55
M  V30 60 1 23 56
M  V30 61 1 24 57 CFG=3
M  V30 62 1 25 58
M  V30 63 1 25 59
M  V30 64 1 26 60 CFG=3
M  V30 65 1 28 61
M  V30 66 1 29 62
M  V30 67 1 32 63 CFG=3
M  V30 68 1 33 64
M  V30 69 1 33 65
M  V30 70 1 33 66
M  V30 71 1 34 67
M  V30 72 1 34 68
M  V30 73 1 35 69
M  V30 74 1 36 70
M  V30 75 1 41 71
M  V30 END BOND
M  V30 END CTAB
M  END
>  <Dataset>  (470) 
ChEMBL_Kinases

>  <Ligand_Instance>  (470) 
nan

>  <PDB_ID>  (470) 
nan

>  <Standardized_SMILES>  (470) 
CCOCc1cc(F)c(-c2nc(C(=O)Nc3cnccc3[C@H]3C[C@@H](N)[C@@H](n4ccnn4)[C@@H](C)C3)ccc2F)c(F)c1

>  <Name>  (470) 
nan

>  <Pocket>  (470) 
nan

>  <ATP_Site>  (470) 
nan

>  <Peripheral>  (470) 
nan

>  <Num_H_Atoms_ProtBoundConf>  (470) 
nan

>  <Num_Resolved_Atoms>  (470) 
nan

>  <Num_Not_Resolved_Atoms>  (470) 
nan

$$$$
CHEMBL2420551
     RDKit          3D

  0  0  0  0  0  0  0  0  0  0999 V3000
M  V30 BEGIN CTAB
M  V30 COUNTS 63 68 0 0 0
M  V30 BEGIN ATOM
M  V30 1 O -0.557769 2.506783 2.974438 0
M  V30 2 C 0.182323 1.498854 2.709351 0
M  V30 3 N 1.325007 1.344272 3.550386 0
M  V30 4 C 1.717365 2.185058 4.633140 0
M  V30 5 C 2.972279 1.776519 5.367928 0
M  V30 6 C 4.182339 1.717592 4.560659 0
M  V30 7 C 4.590191 0.593121 3.908288 0
M  V30 8 C 5.740625 0.503951 3.129869 0
M  V30 9 C 6.541970 1.609249 2.989666 0
M  V30 10 F 7.657551 1.558003 2.246490 0
M  V30 11 C 6.169514 2.774040 3.633087 0
M  V30 12 C 5.013002 2.800738 4.394036 0
M  V30 13 C 1.628063 3.698962 4.312464 0
M  V30 14 C 0.786384 3.041947 5.375602 0
M  V30 15 C -0.150468 0.591930 1.615519 0
M  V30 16 C 0.557305 -0.526917 1.226297 0
M  V30 17 C 0.172829 -1.334333 0.175399 0
M  V30 18 C -0.973651 -1.021379 -0.531652 0
M  V30 19 N -1.376747 -1.785918 -1.560851 0
M  V30 20 C -2.487910 -1.528029 -2.286893 0
M  V30 21 N -2.863451 -2.386009 -3.377233 0
M  V30 22 C -1.982024 -3.501977 -3.614881 0 CFG=1
M  V30 23 C -1.839254 -4.459323 -2.488623 0
M  V30 24 C -2.668287 -5.711938 -2.679905 0
M  V30 25 C -4.028486 -5.416264 -3.269207 0 CFG=2
M  V30 26 O -4.680316 -6.660141 -3.359772 0
M  V30 27 C -3.896295 -4.783129 -4.626444 0
M  V30 28 C -2.475532 -4.282413 -4.814075 0
M  V30 29 C -3.214055 -0.408363 -1.912531 0
M  V30 30 N -4.356232 0.093845 -2.446560 0
M  V30 31 C -4.661420 1.192193 -1.728509 0
M  V30 32 C -3.696796 1.379072 -0.731939 0
M  V30 33 N -2.825580 0.369797 -0.883811 0
M  V30 34 C -1.714070 0.087557 -0.179274 0
M  V30 35 C -1.287521 0.863045 0.879380 0
M  V30 36 H 1.896455 0.507857 3.297106 0
M  V30 37 H 2.765641 0.744231 5.769372 0
M  V30 38 H 3.166597 2.454007 6.231695 0
M  V30 39 H 4.037553 -0.328562 3.951233 0
M  V30 40 H 6.046476 -0.404239 2.619003 0
M  V30 41 H 6.826916 3.624233 3.499319 0
M  V30 42 H 4.812018 3.756373 4.854219 0
M  V30 43 H 2.498400 4.314682 4.621495 0
M  V30 44 H 1.173111 4.004844 3.359729 0
M  V30 45 H 1.049258 3.321293 6.426460 0
M  V30 46 H -0.294074 3.122721 5.212486 0
M  V30 47 H 1.446289 -0.754689 1.788265 0
M  V30 48 H 0.786140 -2.197368 -0.065968 0
M  V30 49 H -3.736806 -2.108339 -3.882089 0
M  V30 50 H -1.003873 -3.067876 -3.934570 0
M  V30 51 H -0.783836 -4.807763 -2.457675 0
M  V30 52 H -2.040990 -4.065150 -1.477253 0
M  V30 53 H -2.871435 -6.189842 -1.684042 0
M  V30 54 H -2.176998 -6.468864 -3.322881 0
M  V30 55 H -4.658305 -4.791937 -2.597697 0
M  V30 56 H -4.129650 -7.308023 -3.865626 0
M  V30 57 H -4.124888 -5.565979 -5.377308 0
M  V30 58 H -4.588972 -3.938883 -4.775372 0
M  V30 59 H -2.340861 -3.743743 -5.756075 0
M  V30 60 H -1.828736 -5.194409 -4.874650 0
M  V30 61 H -5.504551 1.856615 -1.860118 0
M  V30 62 H -3.690738 2.191260 -0.001012 0
M  V30 63 H -1.886486 1.724588 1.132405 0
M  V30 END ATOM
M  V30 BEGIN BOND
M  V30 1 2 1 2
M  V30 2 1 2 3
M  V30 3 1 3 4
M  V30 4 1 4 5
M  V30 5 1 5 6
M  V30 6 2 6 7
M  V30 7 1 7 8
M  V30 8 2 8 9
M  V30 9 1 9 10
M  V30 10 1 9 11
M  V30 11 2 11 12
M  V30 12 1 4 13
M  V30 13 1 13 14
M  V30 14 1 2 15
M  V30 15 2 15 16
M  V30 16 1 16 17
M  V30 17 2 17 18
M  V30 18 1 18 19
M  V30 19 2 19 20
M  V30 20 1 20 21
M  V30 21 1 21 22
M  V30 22 1 22 23
M  V30 23 1 23 24
M  V30 24 1 24 25
M  V30 25 1 25 26
M  V30 26 1 25 27
M  V30 27 1 27 28
M  V30 28 1 20 29
M  V30 29 2 29 30
M  V30 30 1 30 31
M  V30 31 2 31 32
M  V30 32 1 32 33
M  V30 33 1 33 34
M  V30 34 2 34 35
M  V30 35 1 14 4
M  V30 36 1 35 15
M  V30 37 1 12 6
M  V30 38 1 34 18
M  V30 39 1 28 22
M  V30 40 1 33 29
M  V30 41 1 3 36
M  V30 42 1 5 37
M  V30 43 1 5 38
M  V30 44 1 7 39
M  V30 45 1 8 40
M  V30 46 1 11 41
M  V30 47 1 12 42
M  V30 48 1 13 43
M  V30 49 1 13 44
M  V30 50 1 14 45
M  V30 51 1 14 46
M  V30 52 1 16 47
M  V30 53 1 17 48
M  V30 54 1 21 49
M  V30 55 1 22 50 CFG=3
M  V30 56 1 23 51
M  V30 57 1 23 52
M  V30 58 1 24 53
M  V30 59 1 24 54
M  V30 60 1 25 55 CFG=1
M  V30 61 1 26 56
M  V30 62 1 27 57
M  V30 63 1 27 58
M  V30 64 1 28 59
M  V30 65 1 28 60
M  V30 66 1 31 61
M  V30 67 1 32 62
M  V30 68 1 35 63
M  V30 END BOND
M  V30 END CTAB
M  END
>  <Dataset>  (471) 
ChEMBL_Kinases

>  <Ligand_Instance>  (471) 
nan

>  <PDB_ID>  (471) 
nan

>  <Standardized_SMILES>  (471) 
O=C(NC1(Cc2ccc(F)cc2)CC1)c1ccc2nc(N[C@H]3CC[C@H](O)CC3)c3nccn3c2c1

>  <Name>  (471) 
nan

>  <Pocket>  (471) 
nan

>  <ATP_Site>  (471) 
nan

>  <Peripheral>  (471) 
nan

>  <Num_H_Atoms_ProtBoundConf>  (471) 
nan

>  <Num_Resolved_Atoms>  (471) 
nan

>  <Num_Not_Resolved_Atoms>  (471) 
nan

$$$$
CHEMBL3691938
     RDKit          3D

  0  0  0  0  0  0  0  0  0  0999 V3000
M  V30 BEGIN CTAB
M  V30 COUNTS 60 64 0 0 0
M  V30 BEGIN ATOM
M  V30 1 C 2.495558 -3.236712 1.157224 0
M  V30 2 C 1.702670 -2.006351 0.752542 0 CFG=1
M  V30 3 C 1.851116 -0.920281 1.767946 0
M  V30 4 C 1.761233 0.401049 1.002331 0 CFG=1
M  V30 5 C 1.534123 1.559797 1.867904 0
M  V30 6 C 2.704496 2.183802 2.284842 0
M  V30 7 C 2.701963 3.292522 3.100214 0
M  V30 8 N 1.497836 3.781950 3.503231 0
M  V30 9 C 0.394526 3.147475 3.076288 0
M  V30 10 C 0.312357 2.045876 2.269281 0
M  V30 11 N -0.845313 1.400541 1.838448 0
M  V30 12 C -2.206732 1.698794 2.100887 0
M  V30 13 O -2.480635 2.672611 2.818458 0
M  V30 14 C -3.345854 0.944282 1.590041 0
M  V30 15 N -3.303146 -0.116765 0.816556 0
M  V30 16 C -4.103686 -0.765126 0.371576 0
M  V30 17 C -4.323902 -1.943418 -0.478436 0
M  V30 18 C -5.554300 -2.448468 -0.804765 0
M  V30 19 F -6.657615 -1.837801 -0.323473 0
M  V30 20 C -5.557806 -3.563082 -1.615711 0
M  V30 21 C -4.379575 -4.123068 -2.062622 0
M  V30 22 C -3.135985 -3.601837 -1.724960 0
M  V30 23 C -3.138483 -2.480275 -0.908758 0
M  V30 24 F -1.912400 -2.002703 -0.602272 0
M  V30 25 S -5.652166 0.093823 1.048403 0
M  V30 26 C -4.643346 1.338682 1.920446 0
M  V30 27 N -5.198149 2.399631 2.711000 0
M  V30 28 C 3.063762 0.486699 0.235602 0
M  V30 29 C 3.007530 -0.555226 -0.855594 0 CFG=1
M  V30 30 N 4.276163 -1.207357 -1.072122 0
M  V30 31 C 1.947091 -1.597963 -0.658426 0 CFG=1
M  V30 32 N 2.366087 -2.742326 -1.482013 0
M  V30 33 C 1.684829 -3.299471 -2.500506 0
M  V30 34 C 2.537419 -4.304858 -2.886116 0
M  V30 35 N 3.648281 -4.326628 -2.132445 0
M  V30 36 N 3.523053 -3.342628 -1.260308 0
M  V30 37 H 2.148660 -4.094566 0.531097 0
M  V30 38 H 2.204595 -3.516792 2.190879 0
M  V30 39 H 3.583449 -3.086373 1.151398 0
M  V30 40 H 0.626002 -2.342073 0.823325 0
M  V30 41 H 1.126559 -0.978577 2.600736 0
M  V30 42 H 2.885014 -0.960710 2.193683 0
M  V30 43 H 0.969044 0.321255 0.260072 0
M  V30 44 H 3.689194 1.861574 2.012551 0
M  V30 45 H 3.610225 3.793097 3.435780 0
M  V30 46 H -0.508137 3.606694 3.446392 0
M  V30 47 H -0.785136 0.554911 1.223366 0
M  V30 48 H -6.526702 -3.979229 -1.886094 0
M  V30 49 H -4.454848 -4.991360 -2.691930 0
M  V30 50 H -2.242956 -4.077887 -2.101237 0
M  V30 51 H -4.768706 2.251569 3.655545 0
M  V30 52 H -5.859055 3.048864 2.231620 0
M  V30 53 H 3.876971 0.150446 0.924554 0
M  V30 54 H 3.320244 1.490841 -0.109759 0
M  V30 55 H 2.771710 -0.008207 -1.797986 0
M  V30 56 H 4.842577 -0.761734 -1.813518 0
M  V30 57 H 4.800449 -1.418102 -0.194232 0
M  V30 58 H 1.000710 -1.211836 -1.092499 0
M  V30 59 H 0.720038 -3.008346 -2.889639 0
M  V30 60 H 2.355772 -5.013611 -3.703930 0
M  V30 END ATOM
M  V30 BEGIN BOND
M  V30 1 1 1 2
M  V30 2 1 2 3
M  V30 3 1 3 4
M  V30 4 1 4 5
M  V30 5 2 5 6
M  V30 6 1 6 7
M  V30 7 2 7 8
M  V30 8 1 8 9
M  V30 9 2 9 10
M  V30 10 1 10 11
M  V30 11 1 11 12
M  V30 12 2 12 13
M  V30 13 1 12 14
M  V30 14 1 14 15
M  V30 15 2 15 16
M  V30 16 1 16 17
M  V30 17 2 17 18
M  V30 18 1 18 19
M  V30 19 1 18 20
M  V30 20 2 20 21
M  V30 21 1 21 22
M  V30 22 2 22 23
M  V30 23 1 23 24
M  V30 24 1 16 25
M  V30 25 1 25 26
M  V30 26 1 26 27
M  V30 27 1 4 28
M  V30 28 1 28 29
M  V30 29 1 29 30
M  V30 30 1 29 31
M  V30 31 1 31 32
M  V30 32 1 32 33
M  V30 33 2 33 34
M  V30 34 1 34 35
M  V30 35 2 35 36
M  V30 36 1 31 2
M  V30 37 1 36 32
M  V30 38 1 10 5
M  V30 39 2 26 14
M  V30 40 1 23 17
M  V30 41 1 1 37
M  V30 42 1 1 38
M  V30 43 1 1 39
M  V30 44 1 2 40 CFG=3
M  V30 45 1 3 41
M  V30 46 1 3 42
M  V30 47 1 4 43 CFG=3
M  V30 48 1 6 44
M  V30 49 1 7 45
M  V30 50 1 9 46
M  V30 51 1 11 47
M  V30 52 1 20 48
M  V30 53 1 21 49
M  V30 54 1 22 50
M  V30 55 1 27 51
M  V30 56 1 27 52
M  V30 57 1 28 53
M  V30 58 1 28 54
M  V30 59 1 29 55 CFG=3
M  V30 60 1 30 56
M  V30 61 1 30 57
M  V30 62 1 31 58 CFG=3
M  V30 63 1 33 59
M  V30 64 1 34 60
M  V30 END BOND
M  V30 END CTAB
M  END
>  <Dataset>  (472) 
ChEMBL_Kinases

>  <Ligand_Instance>  (472) 
nan

>  <PDB_ID>  (472) 
nan

>  <Standardized_SMILES>  (472) 
C[C@H]1C[C@@H](c2ccncc2NC(=O)c2nc(-c3c(F)cccc3F)sc2N)C[C@@H](N)[C@H]1n1ccnn1

>  <Name>  (472) 
nan

>  <Pocket>  (472) 
nan

>  <ATP_Site>  (472) 
nan

>  <Peripheral>  (472) 
nan

>  <Num_H_Atoms_ProtBoundConf>  (472) 
nan

>  <Num_Resolved_Atoms>  (472) 
nan

>  <Num_Not_Resolved_Atoms>  (472) 
nan

$$$$
CHEMBL2420555
     RDKit          3D

  0  0  0  0  0  0  0  0  0  0999 V3000
M  V30 BEGIN CTAB
M  V30 COUNTS 60 65 0 0 0
M  V30 BEGIN ATOM
M  V30 1 O 3.244327 0.421886 2.274904 0
M  V30 2 C 3.006711 -0.072322 1.137186 0
M  V30 3 N 4.152178 -0.217663 0.325300 0
M  V30 4 C 5.444183 0.186804 0.826097 0
M  V30 5 C 5.563629 1.365586 1.723526 0
M  V30 6 C 6.161483 1.363532 2.969174 0
M  V30 7 C 6.234013 2.502182 3.745629 0
M  V30 8 C 5.704945 3.699959 3.300000 0
M  V30 9 F 5.728744 4.874442 3.994488 0
M  V30 10 C 5.113094 3.660560 2.044184 0
M  V30 11 C 5.013009 2.551776 1.226609 0
M  V30 12 C 6.602372 -0.032141 -0.171701 0
M  V30 13 C 6.512472 -0.880477 1.019935 0
M  V30 14 C 1.660879 -0.454980 0.712884 0
M  V30 15 C 1.358199 -0.996833 -0.523534 0
M  V30 16 C 0.067501 -1.342418 -0.873884 0
M  V30 17 C -0.958632 -1.135752 0.053366 0
M  V30 18 N -2.233103 -1.454636 -0.235255 0
M  V30 19 C -3.268347 -1.284633 0.605552 0
M  V30 20 N -4.601559 -1.637102 0.259441 0
M  V30 21 C -4.934008 -2.204699 -1.015886 0 CFG=1
M  V30 22 C -4.255492 -3.509505 -1.264783 0
M  V30 23 C -4.480170 -3.974150 -2.682359 0
M  V30 24 C -5.825166 -3.545147 -3.218254 0 CFG=2
M  V30 25 O -5.721731 -2.386796 -3.970901 0
M  V30 26 C -6.848923 -3.427308 -2.113477 0
M  V30 27 C -6.434221 -2.476874 -1.021976 0
M  V30 28 C -2.941604 -0.743040 1.831502 0
M  V30 29 N -3.742610 -0.456701 2.868972 0
M  V30 30 C -3.017433 0.061377 3.876144 0
M  V30 31 C -1.692652 0.093602 3.426716 0
M  V30 32 N -1.667162 -0.401032 2.177982 0
M  V30 33 C -0.662573 -0.595831 1.287658 0
M  V30 34 C 0.631576 -0.256058 1.622187 0
M  V30 35 H 4.038756 -0.621594 -0.636893 0
M  V30 36 H 6.576273 0.423763 3.318045 0
M  V30 37 H 6.699246 2.499143 4.713944 0
M  V30 38 H 4.685736 4.602071 1.669952 0
M  V30 39 H 4.533079 2.625168 0.265828 0
M  V30 40 H 6.350970 -0.426844 -1.177140 0
M  V30 41 H 7.376794 0.749697 -0.219131 0
M  V30 42 H 7.275005 -0.732813 1.789746 0
M  V30 43 H 6.109380 -1.907044 1.002964 0
M  V30 44 H 2.162485 -1.149627 -1.227557 0
M  V30 45 H -0.142410 -1.767409 -1.854407 0
M  V30 46 H -5.339474 -1.454201 1.004808 0
M  V30 47 H -4.667116 -1.508986 -1.838378 0
M  V30 48 H -3.174352 -3.471869 -1.029927 0
M  V30 49 H -4.696628 -4.299262 -0.605331 0
M  V30 50 H -4.407479 -5.084167 -2.736549 0
M  V30 51 H -3.726894 -3.549837 -3.373714 0
M  V30 52 H -6.186131 -4.340304 -3.903021 0
M  V30 53 H -4.788647 -2.212147 -4.182816 0
M  V30 54 H -7.798552 -3.077164 -2.550666 0
M  V30 55 H -7.040646 -4.461824 -1.725232 0
M  V30 56 H -6.988695 -1.520585 -1.019773 0
M  V30 57 H -6.633528 -2.992521 -0.053032 0
M  V30 58 H -3.206851 0.432877 4.882182 0
M  V30 59 H -0.788823 0.440004 3.932098 0
M  V30 60 H 0.821245 0.164903 2.601442 0
M  V30 END ATOM
M  V30 BEGIN BOND
M  V30 1 2 1 2
M  V30 2 1 2 3
M  V30 3 1 3 4
M  V30 4 1 4 5
M  V30 5 2 5 6
M  V30 6 1 6 7
M  V30 7 2 7 8
M  V30 8 1 8 9
M  V30 9 1 8 10
M  V30 10 2 10 11
M  V30 11 1 4 12
M  V30 12 1 12 13
M  V30 13 1 2 14
M  V30 14 2 14 15
M  V30 15 1 15 16
M  V30 16 2 16 17
M  V30 17 1 17 18
M  V30 18 2 18 19
M  V30 19 1 19 20
M  V30 20 1 20 21
M  V30 21 1 21 22
M  V30 22 1 22 23
M  V30 23 1 23 24
M  V30 24 1 24 25
M  V30 25 1 24 26
M  V30 26 1 26 27
M  V30 27 1 19 28
M  V30 28 2 28 29
M  V30 29 1 29 30
M  V30 30 2 30 31
M  V30 31 1 31 32
M  V30 32 1 32 33
M  V30 33 2 33 34
M  V30 34 1 13 4
M  V30 35 1 34 14
M  V30 36 1 11 5
M  V30 37 1 33 17
M  V30 38 1 27 21
M  V30 39 1 32 28
M  V30 40 1 3 35
M  V30 41 1 6 36
M  V30 42 1 7 37
M  V30 43 1 10 38
M  V30 44 1 11 39
M  V30 45 1 12 40
M  V30 46 1 12 41
M  V30 47 1 13 42
M  V30 48 1 13 43
M  V30 49 1 15 44
M  V30 50 1 16 45
M  V30 51 1 20 46
M  V30 52 1 21 47 CFG=3
M  V30 53 1 22 48
M  V30 54 1 22 49
M  V30 55 1 23 50
M  V30 56 1 23 51
M  V30 57 1 24 52 CFG=3
M  V30 58 1 25 53
M  V30 59 1 26 54
M  V30 60 1 26 55
M  V30 61 1 27 56
M  V30 62 1 27 57
M  V30 63 1 30 58
M  V30 64 1 31 59
M  V30 65 1 34 60
M  V30 END BOND
M  V30 END CTAB
M  END
>  <Dataset>  (473) 
ChEMBL_Kinases

>  <Ligand_Instance>  (473) 
nan

>  <PDB_ID>  (473) 
nan

>  <Standardized_SMILES>  (473) 
O=C(NC1(c2ccc(F)cc2)CC1)c1ccc2nc(N[C@H]3CC[C@H](O)CC3)c3nccn3c2c1

>  <Name>  (473) 
nan

>  <Pocket>  (473) 
nan

>  <ATP_Site>  (473) 
nan

>  <Peripheral>  (473) 
nan

>  <Num_H_Atoms_ProtBoundConf>  (473) 
nan

>  <Num_Resolved_Atoms>  (473) 
nan

>  <Num_Not_Resolved_Atoms>  (473) 
nan

$$$$
CHEMBL2420556
     RDKit          3D

  0  0  0  0  0  0  0  0  0  0999 V3000
M  V30 BEGIN CTAB
M  V30 COUNTS 59 63 0 0 0
M  V30 BEGIN ATOM
M  V30 1 C 3.554402 -5.319117 3.097520 0
M  V30 2 C 2.810679 -5.445565 1.779705 0 CFG=1
M  V30 3 N 2.426840 -4.078046 1.397818 0
M  V30 4 C 1.068545 -3.726701 1.187481 0
M  V30 5 O 0.260928 -4.680404 1.358013 0
M  V30 6 C 0.672871 -2.374929 0.808544 0
M  V30 7 C 1.499356 -1.290182 0.606372 0
M  V30 8 C 0.982943 -0.062460 0.248232 0
M  V30 9 C -0.373402 0.126547 0.079362 0
M  V30 10 N -0.916280 1.316286 -0.271467 0
M  V30 11 C -2.251085 1.488256 -0.434080 0
M  V30 12 N -2.796963 2.745460 -0.802331 0
M  V30 13 C -1.903083 3.851151 -1.003852 0 CFG=1
M  V30 14 C -2.726048 5.065124 -1.385849 0
M  V30 15 C -3.570233 5.587586 -0.274522 0
M  V30 16 C -3.433319 4.883739 1.032427 0 CFG=2
M  V30 17 O -3.869940 5.785835 2.030111 0
M  V30 18 C -2.044567 4.491541 1.412682 0
M  V30 19 C -1.138830 4.231775 0.239491 0
M  V30 20 C -3.041013 0.376368 -0.221759 0
M  V30 21 N -4.382403 0.264529 -0.312804 0
M  V30 22 C -4.729725 -1.018443 -0.017560 0
M  V30 23 C -3.559945 -1.701726 0.260349 0
M  V30 24 N -2.550557 -0.823030 0.126858 0
M  V30 25 C -1.221866 -0.949143 0.277269 0
M  V30 26 C -0.697412 -2.174301 0.635473 0
M  V30 27 C 3.800851 -6.000446 0.797192 0
M  V30 28 C 3.682457 -7.279779 0.297392 0
M  V30 29 C 4.551719 -7.853141 -0.604686 0
M  V30 30 C 5.615488 -7.066459 -1.025898 0
M  V30 31 C 5.752780 -5.778916 -0.536222 0
M  V30 32 C 4.855699 -5.218477 0.380380 0
M  V30 33 H 3.919232 -4.262348 3.255504 0
M  V30 34 H 2.932817 -5.545419 3.978595 0
M  V30 35 H 4.501492 -5.921934 3.104542 0
M  V30 36 H 1.936215 -6.094410 1.866867 0
M  V30 37 H 3.194797 -3.380021 1.288763 0
M  V30 38 H 2.553011 -1.479242 0.748287 0
M  V30 39 H 1.653197 0.768844 0.096577 0
M  V30 40 H -3.828834 2.810528 -0.910762 0
M  V30 41 H -1.163186 3.678483 -1.809246 0
M  V30 42 H -3.401803 4.736658 -2.219438 0
M  V30 43 H -2.064987 5.852721 -1.828667 0
M  V30 44 H -4.668716 5.546266 -0.533681 0
M  V30 45 H -3.383839 6.687090 -0.101514 0
M  V30 46 H -4.137855 4.013915 1.143982 0
M  V30 47 H -3.605111 5.514911 2.932464 0
M  V30 48 H -2.122440 3.569484 2.057647 0
M  V30 49 H -1.568701 5.239600 2.093794 0
M  V30 50 H -0.623414 5.192919 0.023383 0
M  V30 51 H -0.329379 3.514997 0.474602 0
M  V30 52 H -5.717838 -1.491178 0.014622 0
M  V30 53 H -3.437647 -2.749916 0.537725 0
M  V30 54 H -1.402515 -2.995101 0.781349 0
M  V30 55 H 2.833642 -7.842991 0.663100 0
M  V30 56 H 4.373967 -8.867299 -0.939193 0
M  V30 57 H 6.317208 -7.487056 -1.734739 0
M  V30 58 H 6.592647 -5.187319 -0.882318 0
M  V30 59 H 4.988020 -4.210053 0.745664 0
M  V30 END ATOM
M  V30 BEGIN BOND
M  V30 1 1 1 2
M  V30 2 1 2 3
M  V30 3 1 3 4
M  V30 4 2 4 5
M  V30 5 1 4 6
M  V30 6 2 6 7
M  V30 7 1 7 8
M  V30 8 2 8 9
M  V30 9 1 9 10
M  V30 10 2 10 11
M  V30 11 1 11 12
M  V30 12 1 12 13
M  V30 13 1 13 14
M  V30 14 1 14 15
M  V30 15 1 15 16
M  V30 16 1 16 17
M  V30 17 1 16 18
M  V30 18 1 18 19
M  V30 19 1 11 20
M  V30 20 2 20 21
M  V30 21 1 21 22
M  V30 22 2 22 23
M  V30 23 1 23 24
M  V30 24 1 24 25
M  V30 25 2 25 26
M  V30 26 1 2 27
M  V30 27 2 27 28
M  V30 28 1 28 29
M  V30 29 2 29 30
M  V30 30 1 30 31
M  V30 31 2 31 32
M  V30 32 1 26 6
M  V30 33 1 32 27
M  V30 34 1 25 9
M  V30 35 1 19 13
M  V30 36 1 24 20
M  V30 37 1 1 33
M  V30 38 1 1 34
M  V30 39 1 1 35
M  V30 40 1 2 36 CFG=1
M  V30 41 1 3 37
M  V30 42 1 7 38
M  V30 43 1 8 39
M  V30 44 1 12 40
M  V30 45 1 13 41 CFG=3
M  V30 46 1 14 42
M  V30 47 1 14 43
M  V30 48 1 15 44
M  V30 49 1 15 45
M  V30 50 1 16 46 CFG=3
M  V30 51 1 17 47
M  V30 52 1 18 48
M  V30 53 1 18 49
M  V30 54 1 19 50
M  V30 55 1 19 51
M  V30 56 1 22 52
M  V30 57 1 23 53
M  V30 58 1 26 54
M  V30 59 1 28 55
M  V30 60 1 29 56
M  V30 61 1 30 57
M  V30 62 1 31 58
M  V30 63 1 32 59
M  V30 END BOND
M  V30 END CTAB
M  END
>  <Dataset>  (474) 
ChEMBL_Kinases

>  <Ligand_Instance>  (474) 
nan

>  <PDB_ID>  (474) 
nan

>  <Standardized_SMILES>  (474) 
C[C@@H](NC(=O)c1ccc2nc(N[C@H]3CC[C@H](O)CC3)c3nccn3c2c1)c1ccccc1

>  <Name>  (474) 
nan

>  <Pocket>  (474) 
nan

>  <ATP_Site>  (474) 
nan

>  <Peripheral>  (474) 
nan

>  <Num_H_Atoms_ProtBoundConf>  (474) 
nan

>  <Num_Resolved_Atoms>  (474) 
nan

>  <Num_Not_Resolved_Atoms>  (474) 
nan

$$$$
CHEMBL4453072
     RDKit          3D

  0  0  0  0  0  0  0  0  0  0999 V3000
M  V30 BEGIN CTAB
M  V30 COUNTS 43 46 0 0 0
M  V30 BEGIN ATOM
M  V30 1 C -3.264223 -4.189063 0.494977 0
M  V30 2 C -2.301179 -3.114100 0.086217 0
M  V30 3 N -1.625827 -3.231872 -1.056916 0
M  V30 4 C -0.824460 -2.159656 -1.223345 0
M  V30 5 C 0.142947 -1.632316 -2.181312 0
M  V30 6 C 1.399809 -2.233033 -2.239961 0
M  V30 7 C 2.278488 -1.700149 -3.165004 0
M  V30 8 C 1.985017 -0.628421 -4.016567 0
M  V30 9 O 2.979929 -0.214833 -4.887849 0
M  V30 10 C 0.722090 -0.064383 -3.922293 0
M  V30 11 C -0.176296 -0.574783 -3.007625 0
M  V30 12 C -1.014717 -1.337714 -0.126084 0
M  V30 13 C -0.579592 -0.053795 0.472842 0
M  V30 14 C -0.831609 1.174574 -0.105924 0
M  V30 15 C -0.374822 2.284752 0.549190 0
M  V30 16 N 0.285212 2.206463 1.694692 0
M  V30 17 C 0.565561 1.048271 2.314081 0
M  V30 18 N 1.276129 1.108804 3.539545 0
M  V30 19 C 1.706126 0.059813 4.388509 0
M  V30 20 O 1.447335 -1.122063 4.051984 0
M  V30 21 C 2.434081 0.214893 5.643099 0
M  V30 22 C 1.717884 1.204210 6.604784 0
M  V30 23 C 3.113671 1.426826 6.094793 0
M  V30 24 C 0.115823 -0.058971 1.670701 0
M  V30 25 N -1.936800 -1.944345 0.680652 0
M  V30 26 H -4.208031 -3.960370 -0.045748 0
M  V30 27 H -2.864063 -5.187751 0.311139 0
M  V30 28 H -3.470366 -4.053940 1.588025 0
M  V30 29 H 1.715316 -3.062221 -1.623361 0
M  V30 30 H 3.268649 -2.159959 -3.223518 0
M  V30 31 H 2.946279 -0.359850 -5.890380 0
M  V30 32 H 0.535099 0.763904 -4.600503 0
M  V30 33 H -1.122057 -0.096642 -2.994268 0
M  V30 34 H -1.367500 1.226016 -1.030736 0
M  V30 35 H -0.539617 3.272545 0.147816 0
M  V30 36 H 1.556319 2.034176 3.932638 0
M  V30 37 H 2.669919 -0.767475 6.136444 0
M  V30 38 H 0.981170 1.900357 6.176679 0
M  V30 39 H 1.536029 0.859339 7.622248 0
M  V30 40 H 3.352115 2.267605 5.425410 0
M  V30 41 H 3.879524 1.261023 6.906868 0
M  V30 42 H 0.297014 -1.014463 2.094030 0
M  V30 43 H -2.431409 -1.770783 1.602819 0
M  V30 END ATOM
M  V30 BEGIN BOND
M  V30 1 1 1 2
M  V30 2 2 2 3
M  V30 3 1 3 4
M  V30 4 1 4 5
M  V30 5 2 5 6
M  V30 6 1 6 7
M  V30 7 2 7 8
M  V30 8 1 8 9
M  V30 9 1 8 10
M  V30 10 2 10 11
M  V30 11 2 4 12
M  V30 12 1 12 13
M  V30 13 2 13 14
M  V30 14 1 14 15
M  V30 15 2 15 16
M  V30 16 1 16 17
M  V30 17 1 17 18
M  V30 18 1 18 19
M  V30 19 2 19 20
M  V30 20 1 19 21
M  V30 21 1 21 22
M  V30 22 1 22 23
M  V30 23 2 17 24
M  V30 24 1 12 25
M  V30 25 1 25 2
M  V30 26 1 11 5
M  V30 27 1 24 13
M  V30 28 1 23 21
M  V30 29 1 1 26
M  V30 30 1 1 27
M  V30 31 1 1 28
M  V30 32 1 6 29
M  V30 33 1 7 30
M  V30 34 1 9 31
M  V30 35 1 10 32
M  V30 36 1 11 33
M  V30 37 1 14 34
M  V30 38 1 15 35
M  V30 39 1 18 36
M  V30 40 1 21 37
M  V30 41 1 22 38
M  V30 42 1 22 39
M  V30 43 1 23 40
M  V30 44 1 23 41
M  V30 45 1 24 42
M  V30 46 1 25 43
M  V30 END BOND
M  V30 END CTAB
M  END
>  <Dataset>  (475) 
ChEMBL_Kinases

>  <Ligand_Instance>  (475) 
nan

>  <PDB_ID>  (475) 
nan

>  <Standardized_SMILES>  (475) 
Cc1nc(-c2ccc(O)cc2)c(-c2ccnc(NC(=O)C3CC3)c2)[nH]1

>  <Name>  (475) 
nan

>  <Pocket>  (475) 
nan

>  <ATP_Site>  (475) 
nan

>  <Peripheral>  (475) 
nan

>  <Num_H_Atoms_ProtBoundConf>  (475) 
nan

>  <Num_Resolved_Atoms>  (475) 
nan

>  <Num_Not_Resolved_Atoms>  (475) 
nan

$$$$
CHEMBL4453060
     RDKit          3D

  0  0  0  0  0  0  0  0  0  0999 V3000
M  V30 BEGIN CTAB
M  V30 COUNTS 47 51 0 0 0
M  V30 BEGIN ATOM
M  V30 1 C -2.180070 -3.568686 -2.625601 0
M  V30 2 C -0.780921 -3.342515 -2.167231 0
M  V30 3 C 0.220887 -4.171223 -2.669337 0
M  V30 4 C 1.552109 -4.007478 -2.276505 0
M  V30 5 C 1.770327 -2.981103 -1.374493 0
M  V30 6 C 0.790327 -2.154212 -0.869687 0
M  V30 7 C 1.171866 -1.113565 0.076215 0
M  V30 8 N 1.984316 -0.048519 -0.005263 0
M  V30 9 C 2.024205 0.650458 1.168327 0
M  V30 10 C 2.910788 1.854312 1.173264 0
M  V30 11 N 2.238722 3.034129 0.735710 0
M  V30 12 C 1.155581 3.735761 1.325488 0
M  V30 13 C 0.561415 3.355276 2.510005 0
M  V30 14 C -0.483305 3.988643 3.143689 0
M  V30 15 C -0.996302 5.130952 2.530531 0
M  V30 16 C -0.439546 5.555268 1.345723 0
M  V30 17 C 0.604985 4.877533 0.761324 0
M  V30 18 F 1.097770 5.355927 -0.401646 0
M  V30 19 N 1.206583 -0.031104 1.960824 0
M  V30 20 C 0.667149 -1.099214 1.357709 0
M  V30 21 C -0.261920 -1.962540 2.097985 0
M  V30 22 C -1.403539 -1.317015 2.524427 0
M  V30 23 C -2.321617 -2.050420 3.222546 0
M  V30 24 C -2.128413 -3.371684 3.493979 0
M  V30 25 N -2.976314 -4.327809 4.217920 0
M  V30 26 S -2.260262 -5.736122 4.234949 0
M  V30 27 N -0.705265 -5.369957 3.300752 0
M  V30 28 C -1.010481 -4.008806 3.077734 0
M  V30 29 C -0.074154 -3.288904 2.373693 0
M  V30 30 N -0.469559 -2.370247 -1.292627 0
M  V30 31 H -2.228558 -3.148346 -3.666814 0
M  V30 32 H -2.450778 -4.630786 -2.632341 0
M  V30 33 H -2.847171 -2.917551 -2.031711 0
M  V30 34 H 0.007470 -4.958343 -3.369741 0
M  V30 35 H 2.359781 -4.632466 -2.644883 0
M  V30 36 H 2.806471 -2.855322 -1.070212 0
M  V30 37 H 2.462185 0.088951 -0.943690 0
M  V30 38 H 3.836568 1.690073 0.605648 0
M  V30 39 H 3.262733 1.993335 2.243803 0
M  V30 40 H 2.591785 3.467725 -0.173559 0
M  V30 41 H 0.905974 2.489572 3.043154 0
M  V30 42 H -0.918443 3.657706 4.068751 0
M  V30 43 H -1.814567 5.689474 2.957632 0
M  V30 44 H -0.832815 6.438845 0.866890 0
M  V30 45 H -1.653189 -0.278638 2.363272 0
M  V30 46 H -3.222881 -1.631652 3.585079 0
M  V30 47 H 0.860159 -3.623981 1.969912 0
M  V30 END ATOM
M  V30 BEGIN BOND
M  V30 1 1 1 2
M  V30 2 2 2 3
M  V30 3 1 3 4
M  V30 4 2 4 5
M  V30 5 1 5 6
M  V30 6 1 6 7
M  V30 7 1 7 8
M  V30 8 1 8 9
M  V30 9 1 9 10
M  V30 10 1 10 11
M  V30 11 1 11 12
M  V30 12 2 12 13
M  V30 13 1 13 14
M  V30 14 2 14 15
M  V30 15 1 15 16
M  V30 16 2 16 17
M  V30 17 1 17 18
M  V30 18 2 9 19
M  V30 19 1 19 20
M  V30 20 1 20 21
M  V30 21 1 21 22
M  V30 22 2 22 23
M  V30 23 1 23 24
M  V30 24 2 24 25
M  V30 25 1 25 26
M  V30 26 1 26 27
M  V30 27 2 27 28
M  V30 28 1 28 29
M  V30 29 2 6 30
M  V30 30 1 30 2
M  V30 31 2 20 7
M  V30 32 2 29 21
M  V30 33 1 17 12
M  V30 34 1 28 24
M  V30 35 1 1 31
M  V30 36 1 1 32
M  V30 37 1 1 33
M  V30 38 1 3 34
M  V30 39 1 4 35
M  V30 40 1 5 36
M  V30 41 1 8 37
M  V30 42 1 10 38
M  V30 43 1 10 39
M  V30 44 1 11 40
M  V30 45 1 13 41
M  V30 46 1 14 42
M  V30 47 1 15 43
M  V30 48 1 16 44
M  V30 49 1 22 45
M  V30 50 1 23 46
M  V30 51 1 29 47
M  V30 END BOND
M  V30 END CTAB
M  END
>  <Dataset>  (476) 
ChEMBL_Kinases

>  <Ligand_Instance>  (476) 
nan

>  <PDB_ID>  (476) 
nan

>  <Standardized_SMILES>  (476) 
Cc1cccc(-c2[nH]c(CNc3ccccc3F)nc2-c2ccc3nsnc3c2)n1

>  <Name>  (476) 
nan

>  <Pocket>  (476) 
nan

>  <ATP_Site>  (476) 
nan

>  <Peripheral>  (476) 
nan

>  <Num_H_Atoms_ProtBoundConf>  (476) 
nan

>  <Num_Resolved_Atoms>  (476) 
nan

>  <Num_Not_Resolved_Atoms>  (476) 
nan

$$$$
CHEMBL4453446
     RDKit          3D

  0  0  0  0  0  0  0  0  0  0999 V3000
M  V30 BEGIN CTAB
M  V30 COUNTS 35 37 0 0 0
M  V30 BEGIN ATOM
M  V30 1 N 0.409978 -5.061028 4.654069 0
M  V30 2 C 1.342229 -4.934027 3.596831 0
M  V30 3 O 2.196177 -5.824044 3.829948 0
M  V30 4 C 1.143435 -3.915323 2.573381 0
M  V30 5 C 0.052370 -3.071953 2.637039 0
M  V30 6 C -0.014674 -2.156545 1.606788 0
M  V30 7 C 0.884509 -2.028350 0.568627 0
M  V30 8 C 0.714253 -1.017878 -0.475990 0
M  V30 9 C 1.163457 -1.267447 -1.754592 0
M  V30 10 N 1.000859 -0.324466 -2.719280 0
M  V30 11 C 0.407536 0.850422 -2.444962 0
M  V30 12 C -0.034234 1.076996 -1.155445 0
M  V30 13 C -0.681800 2.353372 -0.847608 0
M  V30 14 C -0.304074 3.518449 -1.519582 0
M  V30 15 C -0.858964 4.735429 -1.288762 0
M  V30 16 C -1.853813 4.787070 -0.324801 0
M  V30 17 C -2.275412 3.679161 0.375574 0
M  V30 18 C -1.683823 2.450632 0.111633 0
M  V30 19 C 0.087484 0.180450 -0.114820 0
M  V30 20 C 1.956842 -2.914239 0.574345 0
M  V30 21 C 2.092801 -3.860247 1.573323 0
M  V30 22 H -0.319815 -5.279842 5.326022 0
M  V30 23 H 0.165958 -4.604936 5.572306 0
M  V30 24 H -0.687870 -3.119405 3.422442 0
M  V30 25 H -0.873621 -1.466634 1.626149 0
M  V30 26 H 1.645735 -2.206485 -2.003906 0
M  V30 27 H 0.288422 1.585522 -3.225992 0
M  V30 28 H 0.478836 3.412677 -2.261025 0
M  V30 29 H -0.523350 5.598806 -1.841842 0
M  V30 30 H -2.320913 5.739520 -0.112155 0
M  V30 31 H -3.046598 3.692903 1.129622 0
M  V30 32 H -1.998075 1.569401 0.647722 0
M  V30 33 H -0.271120 0.393719 0.883050 0
M  V30 34 H 2.698942 -2.872419 -0.206204 0
M  V30 35 H 2.912495 -4.570713 1.617389 0
M  V30 END ATOM
M  V30 BEGIN BOND
M  V30 1 1 1 2
M  V30 2 2 2 3
M  V30 3 1 2 4
M  V30 4 2 4 5
M  V30 5 1 5 6
M  V30 6 2 6 7
M  V30 7 1 7 8
M  V30 8 2 8 9
M  V30 9 1 9 10
M  V30 10 2 10 11
M  V30 11 1 11 12
M  V30 12 1 12 13
M  V30 13 2 13 14
M  V30 14 1 14 15
M  V30 15 2 15 16
M  V30 16 1 16 17
M  V30 17 2 17 18
M  V30 18 2 12 19
M  V30 19 1 7 20
M  V30 20 2 20 21
M  V30 21 1 21 4
M  V30 22 1 19 8
M  V30 23 1 18 13
M  V30 24 1 1 22
M  V30 25 1 1 23
M  V30 26 1 5 24
M  V30 27 1 6 25
M  V30 28 1 9 26
M  V30 29 1 11 27
M  V30 30 1 14 28
M  V30 31 1 15 29
M  V30 32 1 16 30
M  V30 33 1 17 31
M  V30 34 1 18 32
M  V30 35 1 19 33
M  V30 36 1 20 34
M  V30 37 1 21 35
M  V30 END BOND
M  V30 END CTAB
M  END
>  <Dataset>  (477) 
ChEMBL_Kinases

>  <Ligand_Instance>  (477) 
nan

>  <PDB_ID>  (477) 
nan

>  <Standardized_SMILES>  (477) 
NC(=O)c1ccc(-c2cncc(-c3ccccc3)c2)cc1

>  <Name>  (477) 
nan

>  <Pocket>  (477) 
nan

>  <ATP_Site>  (477) 
nan

>  <Peripheral>  (477) 
nan

>  <Num_H_Atoms_ProtBoundConf>  (477) 
nan

>  <Num_Resolved_Atoms>  (477) 
nan

>  <Num_Not_Resolved_Atoms>  (477) 
nan

$$$$
CHEMBL3691958
     RDKit          3D

  0  0  0  0  0  0  0  0  0  0999 V3000
M  V30 BEGIN CTAB
M  V30 COUNTS 64 67 0 0 0
M  V30 BEGIN ATOM
M  V30 1 C 4.200202 -4.986214 2.695211 0
M  V30 2 O 3.436929 -3.906783 2.154885 0
M  V30 3 C 3.434062 -2.639676 2.766222 0
M  V30 4 O 4.129285 -2.506021 3.800759 0
M  V30 5 N 2.647050 -1.601016 2.172942 0
M  V30 6 C 2.563310 -0.266547 2.704187 0 CFG=2
M  V30 7 C 1.145721 -0.035986 3.168722 0 CFG=2
M  V30 8 N 0.691057 -1.297722 3.733953 0
M  V30 9 C 0.191966 0.334007 2.064737 0
M  V30 10 N 0.744973 1.394442 1.211772 0
M  V30 11 C 0.100459 2.648641 1.047879 0
M  V30 12 C 0.747348 3.823794 1.410618 0
M  V30 13 C 0.072257 5.003717 1.228162 0
M  V30 14 N -1.184236 5.075607 0.715462 0
M  V30 15 C -1.829246 3.943796 0.357037 0
M  V30 16 C -1.185029 2.727548 0.523784 0
M  V30 17 N -1.811119 1.479148 0.163448 0
M  V30 18 C -1.489799 1.195574 -1.193099 0
M  V30 19 O -0.763941 2.053115 -1.758928 0
M  V30 20 C -1.921968 0.028049 -1.951842 0
M  V30 21 N -2.697835 -0.917521 -1.395800 0
M  V30 22 C -3.107957 -2.008061 -2.086806 0
M  V30 23 C -3.949024 -3.064315 -1.536221 0
M  V30 24 C -5.330129 -3.066722 -1.579276 0
M  V30 25 F -5.925391 -2.007362 -2.177672 0
M  V30 26 C -5.988020 -4.139581 -1.013737 0
M  V30 27 C -5.287524 -5.182789 -0.420754 0
M  V30 28 C -3.905126 -5.170549 -0.383032 0
M  V30 29 C -3.237339 -4.105258 -0.944121 0
M  V30 30 F -1.872558 -4.134045 -0.884541 0
M  V30 31 C -2.714554 -2.143191 -3.393446 0
M  V30 32 F -3.076947 -3.205641 -4.168692 0
M  V30 33 C -1.912209 -1.169808 -3.975901 0
M  V30 34 C -1.501243 -0.054065 -3.245223 0
M  V30 35 N -0.678343 0.916079 -3.889674 0
M  V30 36 C 1.995432 0.887060 0.634056 0
M  V30 37 C 2.981498 0.813515 1.752685 0 CFG=2
M  V30 38 C 4.399277 0.711244 1.313400 0
M  V30 39 H 3.528887 -5.887030 2.657515 0
M  V30 40 H 5.074986 -5.225559 2.057612 0
M  V30 41 H 4.463835 -4.826403 3.755010 0
M  V30 42 H 2.102903 -1.815740 1.310574 0
M  V30 43 H 3.189783 -0.157797 3.638902 0
M  V30 44 H 1.101918 0.708880 3.995388 0
M  V30 45 H 0.266142 -1.188635 4.665465 0
M  V30 46 H 0.177854 -1.898577 3.063343 0
M  V30 47 H -0.713847 0.762942 2.539557 0
M  V30 48 H -0.103866 -0.546385 1.477379 0
M  V30 49 H 1.735599 3.837048 1.819558 0
M  V30 50 H 0.577900 5.927121 1.512082 0
M  V30 51 H -2.836085 3.927184 -0.059826 0
M  V30 52 H -2.423037 0.766038 0.656777 0
M  V30 53 H -7.073472 -4.119557 -1.059593 0
M  V30 54 H -5.871333 -5.986384 -0.000051 0
M  V30 55 H -3.354486 -5.985361 0.080222 0
M  V30 56 H -1.589624 -1.259788 -5.012517 0
M  V30 57 H -0.937605 1.868848 -4.264992 0
M  V30 58 H 0.337914 0.909104 -4.131705 0
M  V30 59 H 2.328294 1.524579 -0.208610 0
M  V30 60 H 1.874056 -0.125563 0.200379 0
M  V30 61 H 2.867586 1.776699 2.329157 0
M  V30 62 H 4.443544 0.264946 0.281812 0
M  V30 63 H 4.902878 1.709324 1.277721 0
M  V30 64 H 5.028456 0.028223 1.931403 0
M  V30 END ATOM
M  V30 BEGIN BOND
M  V30 1 1 1 2
M  V30 2 1 2 3
M  V30 3 2 3 4
M  V30 4 1 3 5
M  V30 5 1 5 6
M  V30 6 1 6 7
M  V30 7 1 7 8
M  V30 8 1 7 9
M  V30 9 1 9 10
M  V30 10 1 10 11
M  V30 11 2 11 12
M  V30 12 1 12 13
M  V30 13 2 13 14
M  V30 14 1 14 15
M  V30 15 2 15 16
M  V30 16 1 16 17
M  V30 17 1 17 18
M  V30 18 2 18 19
M  V30 19 1 18 20
M  V30 20 2 20 21
M  V30 21 1 21 22
M  V30 22 1 22 23
M  V30 23 2 23 24
M  V30 24 1 24 25
M  V30 25 1 24 26
M  V30 26 2 26 27
M  V30 27 1 27 28
M  V30 28 2 28 29
M  V30 29 1 29 30
M  V30 30 2 22 31
M  V30 31 1 31 32
M  V30 32 1 31 33
M  V30 33 2 33 34
M  V30 34 1 34 35
M  V30 35 1 10 36
M  V30 36 1 36 37
M  V30 37 1 37 38
M  V30 38 1 37 6
M  V30 39 1 16 11
M  V30 40 1 34 20
M  V30 41 1 29 23
M  V30 42 1 1 39
M  V30 43 1 1 40
M  V30 44 1 1 41
M  V30 45 1 5 42
M  V30 46 1 6 43 CFG=1
M  V30 47 1 7 44 CFG=1
M  V30 48 1 8 45
M  V30 49 1 8 46
M  V30 50 1 9 47
M  V30 51 1 9 48
M  V30 52 1 12 49
M  V30 53 1 13 50
M  V30 54 1 15 51
M  V30 55 1 17 52
M  V30 56 1 26 53
M  V30 57 1 27 54
M  V30 58 1 28 55
M  V30 59 1 33 56
M  V30 60 1 35 57
M  V30 61 1 35 58
M  V30 62 1 36 59
M  V30 63 1 36 60
M  V30 64 1 37 61 CFG=1
M  V30 65 1 38 62
M  V30 66 1 38 63
M  V30 67 1 38 64
M  V30 END BOND
M  V30 END CTAB
M  END
>  <Dataset>  (478) 
ChEMBL_Kinases

>  <Ligand_Instance>  (478) 
nan

>  <PDB_ID>  (478) 
nan

>  <Standardized_SMILES>  (478) 
COC(=O)N[C@@H]1[C@H](N)CN(c2ccncc2NC(=O)c2nc(-c3c(F)cccc3F)c(F)cc2N)C[C@@H]1C

>  <Name>  (478) 
nan

>  <Pocket>  (478) 
nan

>  <ATP_Site>  (478) 
nan

>  <Peripheral>  (478) 
nan

>  <Num_H_Atoms_ProtBoundConf>  (478) 
nan

>  <Num_Resolved_Atoms>  (478) 
nan

>  <Num_Not_Resolved_Atoms>  (478) 
nan

$$$$
CHEMBL2407918
     RDKit          3D

  0  0  0  0  0  0  0  0  0  0999 V3000
M  V30 BEGIN CTAB
M  V30 COUNTS 38 41 0 0 0
M  V30 BEGIN ATOM
M  V30 1 C 1.575992 -5.019486 0.446993 0
M  V30 2 C 0.617311 -3.944304 0.787177 0
M  V30 3 O -0.340756 -3.678704 0.033768 0
M  V30 4 N 0.707282 -3.142227 1.975855 0
M  V30 5 C -0.352382 -2.194479 2.026720 0
M  V30 6 C -1.485649 -2.696996 2.680181 0
M  V30 7 C -2.622569 -1.936009 2.836371 0
M  V30 8 C -2.690360 -0.648457 2.354720 0
M  V30 9 C -1.577989 -0.176882 1.720198 0
M  V30 10 C -0.438671 -0.906123 1.552255 0
M  V30 11 C -1.868005 1.179752 1.318971 0
M  V30 12 C -1.069292 1.939943 0.626760 0
M  V30 13 C 0.242737 1.751707 0.052692 0
M  V30 14 C 1.209890 2.663127 0.514461 0
M  V30 15 C 2.517666 2.757532 0.091684 0
M  V30 16 C 2.904861 1.863411 -0.882089 0
M  V30 17 C 4.071736 1.597379 -1.581649 0
M  V30 18 N 3.842875 0.579586 -2.429211 0
M  V30 19 N 2.583258 0.151417 -2.332414 0
M  V30 20 C 2.025741 0.935533 -1.393482 0
M  V30 21 C 0.732859 0.885883 -0.935274 0
M  V30 22 C -3.207081 1.503720 1.746164 0
M  V30 23 O -3.797658 2.582763 1.578075 0
M  V30 24 N -3.704961 0.341779 2.393369 0
M  V30 25 H 1.062108 -5.888746 -0.050883 0
M  V30 26 H 2.465768 -4.666626 -0.083691 0
M  V30 27 H 1.935480 -5.445541 1.420926 0
M  V30 28 H 1.495603 -3.328230 2.639657 0
M  V30 29 H -1.561581 -3.684405 3.099988 0
M  V30 30 H -3.508247 -2.301107 3.336543 0
M  V30 31 H 0.507450 -0.687952 1.116086 0
M  V30 32 H -1.440772 2.955324 0.406812 0
M  V30 33 H 0.966163 3.405972 1.293135 0
M  V30 34 H 3.212740 3.465354 0.472230 0
M  V30 35 H 5.006055 2.143334 -1.443254 0
M  V30 36 H 2.143035 -0.622682 -2.873350 0
M  V30 37 H -0.055283 0.211524 -1.248938 0
M  V30 38 H -4.630639 0.232780 2.814624 0
M  V30 END ATOM
M  V30 BEGIN BOND
M  V30 1 1 1 2
M  V30 2 2 2 3
M  V30 3 1 2 4
M  V30 4 1 4 5
M  V30 5 2 5 6
M  V30 6 1 6 7
M  V30 7 2 7 8
M  V30 8 1 8 9
M  V30 9 2 9 10
M  V30 10 1 9 11
M  V30 11 2 11 12
M  V30 12 1 12 13
M  V30 13 2 13 14
M  V30 14 1 14 15
M  V30 15 2 15 16
M  V30 16 1 16 17
M  V30 17 2 17 18
M  V30 18 1 18 19
M  V30 19 1 19 20
M  V30 20 2 20 21
M  V30 21 1 11 22
M  V30 22 2 22 23
M  V30 23 1 22 24
M  V30 24 1 10 5
M  V30 25 1 21 13
M  V30 26 1 24 8
M  V30 27 1 20 16
M  V30 28 1 1 25
M  V30 29 1 1 26
M  V30 30 1 1 27
M  V30 31 1 4 28
M  V30 32 1 6 29
M  V30 33 1 7 30
M  V30 34 1 10 31
M  V30 35 1 12 32
M  V30 36 1 14 33
M  V30 37 1 15 34
M  V30 38 1 17 35
M  V30 39 1 19 36
M  V30 40 1 21 37
M  V30 41 1 24 38
M  V30 END BOND
M  V30 END CTAB
M  END
>  <Dataset>  (479) 
ChEMBL_Kinases

>  <Ligand_Instance>  (479) 
nan

>  <PDB_ID>  (479) 
nan

>  <Standardized_SMILES>  (479) 
CC(=O)Nc1ccc2c(c1)/C(=C\c1ccc3cn[nH]c3c1)C(=O)N2

>  <Name>  (479) 
nan

>  <Pocket>  (479) 
nan

>  <ATP_Site>  (479) 
nan

>  <Peripheral>  (479) 
nan

>  <Num_H_Atoms_ProtBoundConf>  (479) 
nan

>  <Num_Resolved_Atoms>  (479) 
nan

>  <Num_Not_Resolved_Atoms>  (479) 
nan

$$$$
CHEMBL3691957
     RDKit          3D

  0  0  0  0  0  0  0  0  0  0999 V3000
M  V30 BEGIN CTAB
M  V30 COUNTS 66 69 0 0 0
M  V30 BEGIN ATOM
M  V30 1 C 1.138456 0.658750 6.965206 0
M  V30 2 O 0.340197 1.250099 5.972233 0
M  V30 3 C 0.216044 0.778970 4.652104 0
M  V30 4 O 0.991743 -0.021952 5.154557 0
M  V30 5 N -0.618581 1.502694 3.827318 0
M  V30 6 C -0.605580 0.871405 2.521958 0 CFG=2
M  V30 7 C -0.112486 1.938636 1.557695 0 CFG=2
M  V30 8 N -0.538348 3.247911 2.021897 0
M  V30 9 C -0.613337 1.703400 0.172878 0
M  V30 10 N -2.057446 1.626124 0.090336 0
M  V30 11 C -2.832443 1.704126 -1.091400 0
M  V30 12 C -3.749096 2.742543 -1.192692 0
M  V30 13 C -4.511574 2.809945 -2.361747 0
M  V30 14 N -4.358798 1.913813 -3.328015 0
M  V30 15 C -3.471714 0.908396 -3.231001 0
M  V30 16 C -2.675748 0.760945 -2.116859 0
M  V30 17 N -1.720815 -0.314626 -1.991194 0
M  V30 18 C -2.338995 -1.423113 -1.350739 0
M  V30 19 O -3.536579 -1.432543 -0.967016 0
M  V30 20 C -1.495471 -2.623669 -1.136014 0
M  V30 21 C -2.016166 -3.743912 -0.541420 0
M  V30 22 C -1.220821 -4.866587 -0.345381 0
M  V30 23 C 0.119879 -4.891131 -0.742651 0
M  V30 24 F 0.935335 -5.959765 -0.570395 0
M  V30 25 C 0.589401 -3.727805 -1.338499 0
M  V30 26 C 1.988173 -3.707197 -1.765300 0
M  V30 27 C 2.844203 -3.291548 -0.737565 0
M  V30 28 F 2.483711 -2.938297 0.519541 0
M  V30 29 C 4.211805 -3.234690 -1.041793 0
M  V30 30 C 4.671599 -3.574707 -2.298519 0
M  V30 31 O 6.038205 -3.494796 -2.531765 0
M  V30 32 C 6.959769 -3.085448 -1.546538 0
M  V30 33 C 3.820855 -3.981133 -3.300823 0
M  V30 34 C 2.472818 -4.041342 -3.011650 0
M  V30 35 F 1.556407 -4.424138 -3.919223 0
M  V30 36 N -0.228012 -2.668663 -1.503061 0
M  V30 37 C -2.727359 1.448089 1.375789 0
M  V30 38 C -1.989164 0.376189 2.158360 0 CFG=2
M  V30 39 C -2.826181 -0.003231 3.346372 0
M  V30 40 H 1.049336 1.321838 7.879341 0
M  V30 41 H 2.231641 0.665321 6.729517 0
M  V30 42 H 0.797584 -0.364162 7.228835 0
M  V30 43 H -1.134983 2.341560 4.151079 0
M  V30 44 H 0.051593 -0.001912 2.521227 0
M  V30 45 H 0.985257 1.870700 1.565803 0
M  V30 46 H -0.509831 3.971934 1.294963 0
M  V30 47 H -0.017802 3.488460 2.886626 0
M  V30 48 H -0.329855 2.620355 -0.419050 0
M  V30 49 H -0.129172 0.869753 -0.353208 0
M  V30 50 H -3.852579 3.470540 -0.374108 0
M  V30 51 H -5.221929 3.637014 -2.412315 0
M  V30 52 H -3.324369 0.158363 -4.008661 0
M  V30 53 H -0.707673 -0.390715 -2.289764 0
M  V30 54 H -3.034900 -3.774997 -0.221837 0
M  V30 55 H -1.592625 -5.769857 0.120145 0
M  V30 56 H 4.920988 -2.924683 -0.289692 0
M  V30 57 H 7.966324 -3.063786 -1.979732 0
M  V30 58 H 6.707874 -2.098106 -1.102592 0
M  V30 59 H 6.966961 -3.797939 -0.679504 0
M  V30 60 H 4.158950 -4.253786 -4.294545 0
M  V30 61 H -2.778294 2.379176 1.961383 0
M  V30 62 H -3.746597 1.076884 1.187597 0
M  V30 63 H -1.895181 -0.499946 1.486558 0
M  V30 64 H -2.430705 0.461133 4.268973 0
M  V30 65 H -3.843293 0.361388 3.208212 0
M  V30 66 H -2.863826 -1.120573 3.477000 0
M  V30 END ATOM
M  V30 BEGIN BOND
M  V30 1 1 1 2
M  V30 2 1 2 3
M  V30 3 2 3 4
M  V30 4 1 3 5
M  V30 5 1 5 6
M  V30 6 1 6 7
M  V30 7 1 7 8
M  V30 8 1 7 9
M  V30 9 1 9 10
M  V30 10 1 10 11
M  V30 11 2 11 12
M  V30 12 1 12 13
M  V30 13 2 13 14
M  V30 14 1 14 15
M  V30 15 2 15 16
M  V30 16 1 16 17
M  V30 17 1 17 18
M  V30 18 2 18 19
M  V30 19 1 18 20
M  V30 20 2 20 21
M  V30 21 1 21 22
M  V30 22 2 22 23
M  V30 23 1 23 24
M  V30 24 1 23 25
M  V30 25 1 25 26
M  V30 26 2 26 27
M  V30 27 1 27 28
M  V30 28 1 27 29
M  V30 29 2 29 30
M  V30 30 1 30 31
M  V30 31 1 31 32
M  V30 32 1 30 33
M  V30 33 2 33 34
M  V30 34 1 34 35
M  V30 35 2 25 36
M  V30 36 1 10 37
M  V30 37 1 37 38
M  V30 38 1 38 39
M  V30 39 1 38 6
M  V30 40 1 16 11
M  V30 41 1 36 20
M  V30 42 1 34 26
M  V30 43 1 1 40
M  V30 44 1 1 41
M  V30 45 1 1 42
M  V30 46 1 5 43
M  V30 47 1 6 44 CFG=1
M  V30 48 1 7 45 CFG=3
M  V30 49 1 8 46
M  V30 50 1 8 47
M  V30 51 1 9 48
M  V30 52 1 9 49
M  V30 53 1 12 50
M  V30 54 1 13 51
M  V30 55 1 15 52
M  V30 56 1 17 53
M  V30 57 1 21 54
M  V30 58 1 22 55
M  V30 59 1 29 56
M  V30 60 1 32 57
M  V30 61 1 32 58
M  V30 62 1 32 59
M  V30 63 1 33 60
M  V30 64 1 37 61
M  V30 65 1 37 62
M  V30 66 1 38 63 CFG=3
M  V30 67 1 39 64
M  V30 68 1 39 65
M  V30 69 1 39 66
M  V30 END BOND
M  V30 END CTAB
M  END
>  <Dataset>  (480) 
ChEMBL_Kinases

>  <Ligand_Instance>  (480) 
nan

>  <PDB_ID>  (480) 
nan

>  <Standardized_SMILES>  (480) 
COC(=O)N[C@@H]1[C@H](N)CN(c2ccncc2NC(=O)c2ccc(F)c(-c3c(F)cc(OC)cc3F)n2)C[C@@H]1C

>  <Name>  (480) 
nan

>  <Pocket>  (480) 
nan

>  <ATP_Site>  (480) 
nan

>  <Peripheral>  (480) 
nan

>  <Num_H_Atoms_ProtBoundConf>  (480) 
nan

>  <Num_Resolved_Atoms>  (480) 
nan

>  <Num_Not_Resolved_Atoms>  (480) 
nan

$$$$
CHEMBL2407919
     RDKit          3D

  0  0  0  0  0  0  0  0  0  0999 V3000
M  V30 BEGIN CTAB
M  V30 COUNTS 38 41 0 0 0
M  V30 BEGIN ATOM
M  V30 1 C 2.590319 -4.917250 -2.712169 0
M  V30 2 C 2.110007 -3.643335 -2.124652 0
M  V30 3 O 0.856390 -3.596083 -1.982633 0
M  V30 4 N 2.874401 -2.508301 -1.716953 0
M  V30 5 C 1.994251 -1.519307 -1.211074 0
M  V30 6 C 1.627878 -1.444449 0.136925 0
M  V30 7 C 0.763590 -0.432270 0.486479 0
M  V30 8 C 0.298356 0.440635 -0.443048 0
M  V30 9 C 0.643777 0.387987 -1.765728 0
M  V30 10 C 1.509238 -0.619560 -2.135472 0
M  V30 11 N 0.023899 1.435821 -2.495860 0
M  V30 12 C -0.761857 2.198856 -1.589402 0
M  V30 13 O -1.466185 3.208922 -1.829386 0
M  V30 14 C -0.587572 1.565795 -0.294053 0
M  V30 15 C -1.186025 1.902886 0.820029 0
M  V30 16 C -1.197301 1.346151 2.149570 0
M  V30 17 C -0.766107 2.203169 3.139323 0
M  V30 18 C -0.739098 1.951805 4.498391 0
M  V30 19 C -1.190201 0.715478 4.908007 0
M  V30 20 C -1.346565 0.037772 6.109493 0
M  V30 21 N -1.850677 -1.175615 5.853103 0
M  V30 22 N -2.041230 -1.351927 4.555936 0
M  V30 23 C -1.639363 -0.202461 3.985560 0
M  V30 24 C -1.639513 0.111403 2.649766 0
M  V30 25 H 2.242964 -5.799421 -2.097806 0
M  V30 26 H 2.209659 -5.109275 -3.736517 0
M  V30 27 H 3.696901 -4.942441 -2.723887 0
M  V30 28 H 3.897595 -2.620505 -1.864421 0
M  V30 29 H 2.099259 -2.229369 0.734667 0
M  V30 30 H 0.618670 -0.511192 1.538304 0
M  V30 31 H 1.783391 -0.667812 -3.168400 0
M  V30 32 H 0.143581 1.593948 -3.523138 0
M  V30 33 H -1.830242 2.797240 0.766043 0
M  V30 34 H -0.387701 3.212307 2.915081 0
M  V30 35 H -0.400493 2.633347 5.239919 0
M  V30 36 H -1.084631 0.470656 7.080857 0
M  V30 37 H -2.423369 -2.211981 4.106527 0
M  V30 38 H -1.971276 -0.532757 1.822799 0
M  V30 END ATOM
M  V30 BEGIN BOND
M  V30 1 1 1 2
M  V30 2 2 2 3
M  V30 3 1 2 4
M  V30 4 1 4 5
M  V30 5 2 5 6
M  V30 6 1 6 7
M  V30 7 2 7 8
M  V30 8 1 8 9
M  V30 9 2 9 10
M  V30 10 1 9 11
M  V30 11 1 11 12
M  V30 12 2 12 13
M  V30 13 1 12 14
M  V30 14 2 14 15
M  V30 15 1 15 16
M  V30 16 2 16 17
M  V30 17 1 17 18
M  V30 18 2 18 19
M  V30 19 1 19 20
M  V30 20 2 20 21
M  V30 21 1 21 22
M  V30 22 1 22 23
M  V30 23 2 23 24
M  V30 24 1 10 5
M  V30 25 1 24 16
M  V30 26 1 14 8
M  V30 27 1 23 19
M  V30 28 1 1 25
M  V30 29 1 1 26
M  V30 30 1 1 27
M  V30 31 1 4 28
M  V30 32 1 6 29
M  V30 33 1 7 30
M  V30 34 1 10 31
M  V30 35 1 11 32
M  V30 36 1 15 33
M  V30 37 1 17 34
M  V30 38 1 18 35
M  V30 39 1 20 36
M  V30 40 1 22 37
M  V30 41 1 24 38
M  V30 END BOND
M  V30 END CTAB
M  END
>  <Dataset>  (481) 
ChEMBL_Kinases

>  <Ligand_Instance>  (481) 
nan

>  <PDB_ID>  (481) 
nan

>  <Standardized_SMILES>  (481) 
CC(=O)Nc1ccc2c(c1)NC(=O)/C2=C/c1ccc2cn[nH]c2c1

>  <Name>  (481) 
nan

>  <Pocket>  (481) 
nan

>  <ATP_Site>  (481) 
nan

>  <Peripheral>  (481) 
nan

>  <Num_H_Atoms_ProtBoundConf>  (481) 
nan

>  <Num_Resolved_Atoms>  (481) 
nan

>  <Num_Not_Resolved_Atoms>  (481) 
nan

$$$$
CHEMBL2182002
     RDKit          3D

  0  0  0  0  0  0  0  0  0  0999 V3000
M  V30 BEGIN CTAB
M  V30 COUNTS 58 61 0 0 0
M  V30 BEGIN ATOM
M  V30 1 C -1.454968 -0.905324 3.951660 0
M  V30 2 C -0.407463 -0.752979 2.939815 0
M  V30 3 C 0.771148 -0.133035 3.296766 0
M  V30 4 C 1.832980 0.034882 2.447619 0
M  V30 5 S 3.299927 0.823136 2.940651 0
M  V30 6 O 3.587298 0.570714 4.399237 0
M  V30 7 O 4.485264 0.280010 2.185117 0
M  V30 8 N 3.258130 2.533966 2.656690 0
M  V30 9 C 3.107992 2.817883 1.263862 0
M  V30 10 C 1.722129 3.207767 0.856844 0
M  V30 11 N 1.135444 4.248051 1.660243 0
M  V30 12 C -0.304524 4.105164 1.754508 0
M  V30 13 C 1.768422 4.461527 2.926198 0
M  V30 14 C 2.338208 3.200956 3.526281 0
M  V30 15 C 1.666028 -0.458201 1.182955 0
M  V30 16 C 0.489928 -1.075598 0.828374 0
M  V30 17 C -0.585388 -1.248755 1.675493 0
M  V30 18 C -1.727925 -1.936166 1.125635 0
M  V30 19 C -3.011609 -2.017219 1.574805 0
M  V30 20 N -4.001443 -2.668477 0.954396 0
M  V30 21 C -3.791121 -3.315292 -0.205075 0
M  V30 22 N -4.733911 -4.044842 -0.975282 0
M  V30 23 C -2.510409 -3.260606 -0.698474 0
M  V30 24 C -2.157101 -3.922820 -1.947772 0
M  V30 25 O -3.032837 -4.552985 -2.584708 0
M  V30 26 N -0.832482 -3.868509 -2.461702 0
M  V30 27 C -0.549991 -4.538273 -3.691175 0
M  V30 28 C -0.132015 -5.826143 -3.943021 0
M  V30 29 C 0.065922 -6.212477 -5.242420 0
M  V30 30 C -0.146274 -5.336578 -6.286900 0
M  V30 31 N -0.556843 -4.069184 -6.051906 0
M  V30 32 C -0.757930 -3.670677 -4.763679 0
M  V30 33 N -1.564574 -2.595064 -0.033804 0
M  V30 34 H -2.251780 -0.167764 3.955193 0
M  V30 35 H -1.783131 -1.979610 4.073113 0
M  V30 36 H -0.947893 -0.739656 4.969861 0
M  V30 37 H 0.894323 0.259714 4.316404 0
M  V30 38 H 3.374298 1.909176 0.697934 0
M  V30 39 H 3.775722 3.662877 0.997515 0
M  V30 40 H 1.038155 2.353384 0.760501 0
M  V30 41 H 1.820546 3.651159 -0.177204 0
M  V30 42 H -0.785932 4.736561 0.976726 0
M  V30 43 H -0.626096 3.055600 1.609033 0
M  V30 44 H -0.635833 4.525259 2.728976 0
M  V30 45 H 2.565220 5.237775 2.893514 0
M  V30 46 H 0.984961 4.826247 3.624583 0
M  V30 47 H 2.899038 3.504433 4.447564 0
M  V30 48 H 1.519147 2.555494 3.900024 0
M  V30 49 H 2.475965 -0.343843 0.493654 0
M  V30 50 H 0.487008 -1.424603 -0.215191 0
M  V30 51 H -3.288848 -1.529279 2.456854 0
M  V30 52 H -4.701354 -5.089723 -1.030636 0
M  V30 53 H -5.520108 -3.635466 -1.539618 0
M  V30 54 H -0.142425 -3.330397 -1.891483 0
M  V30 55 H -0.011194 -6.386083 -3.025194 0
M  V30 56 H 0.393603 -7.236995 -5.361776 0
M  V30 57 H 0.025512 -5.691658 -7.310291 0
M  V30 58 H -1.084310 -2.635304 -4.724019 0
M  V30 END ATOM
M  V30 BEGIN BOND
M  V30 1 1 1 2
M  V30 2 2 2 3
M  V30 3 1 3 4
M  V30 4 1 4 5
M  V30 5 2 5 6
M  V30 6 2 5 7
M  V30 7 1 5 8
M  V30 8 1 8 9
M  V30 9 1 9 10
M  V30 10 1 10 11
M  V30 11 1 11 12
M  V30 12 1 11 13
M  V30 13 1 13 14
M  V30 14 2 4 15
M  V30 15 1 15 16
M  V30 16 2 16 17
M  V30 17 1 17 18
M  V30 18 2 18 19
M  V30 19 1 19 20
M  V30 20 2 20 21
M  V30 21 1 21 22
M  V30 22 1 21 23
M  V30 23 1 23 24
M  V30 24 2 24 25
M  V30 25 1 24 26
M  V30 26 1 26 27
M  V30 27 2 27 28
M  V30 28 1 28 29
M  V30 29 2 29 30
M  V30 30 1 30 31
M  V30 31 2 31 32
M  V30 32 2 23 33
M  V30 33 1 17 2
M  V30 34 1 33 18
M  V30 35 1 14 8
M  V30 36 1 32 27
M  V30 37 1 1 34
M  V30 38 1 1 35
M  V30 39 1 1 36
M  V30 40 1 3 37
M  V30 41 1 9 38
M  V30 42 1 9 39
M  V30 43 1 10 40
M  V30 44 1 10 41
M  V30 45 1 12 42
M  V30 46 1 12 43
M  V30 47 1 12 44
M  V30 48 1 13 45
M  V30 49 1 13 46
M  V30 50 1 14 47
M  V30 51 1 14 48
M  V30 52 1 15 49
M  V30 53 1 16 50
M  V30 54 1 19 51
M  V30 55 1 22 52
M  V30 56 1 22 53
M  V30 57 1 26 54
M  V30 58 1 28 55
M  V30 59 1 29 56
M  V30 60 1 30 57
M  V30 61 1 32 58
M  V30 END BOND
M  V30 END CTAB
M  END
>  <Dataset>  (482) 
ChEMBL_Kinases

>  <Ligand_Instance>  (482) 
nan

>  <PDB_ID>  (482) 
nan

>  <Standardized_SMILES>  (482) 
Cc1cc(S(=O)(=O)N2CCN(C)CC2)ccc1-c1cnc(N)c(C(=O)Nc2cccnc2)n1

>  <Name>  (482) 
nan

>  <Pocket>  (482) 
nan

>  <ATP_Site>  (482) 
nan

>  <Peripheral>  (482) 
nan

>  <Num_H_Atoms_ProtBoundConf>  (482) 
nan

>  <Num_Resolved_Atoms>  (482) 
nan

>  <Num_Not_Resolved_Atoms>  (482) 
nan

$$$$
CHEMBL3691956
     RDKit          3D

  0  0  0  0  0  0  0  0  0  0999 V3000
M  V30 BEGIN CTAB
M  V30 COUNTS 72 77 0 0 0
M  V30 BEGIN ATOM
M  V30 1 C 4.028881 1.331917 3.527412 0
M  V30 2 C 3.105589 0.405793 2.727112 0 CFG=1
M  V30 3 C 2.958064 1.014242 1.354030 0
M  V30 4 C 2.437941 0.034091 0.340226 0 CFG=1
M  V30 5 C 2.649017 0.569920 -1.024050 0
M  V30 6 C 3.764381 0.414989 -1.818950 0
M  V30 7 C 3.865089 0.956324 -3.082485 0
M  V30 8 N 2.860080 1.676435 -3.611988 0
M  V30 9 C 1.727177 1.866756 -2.875227 0
M  V30 10 C 1.627241 1.323310 -1.607906 0
M  V30 11 N 0.388006 1.609807 -0.975604 0
M  V30 12 C -0.162271 2.616006 -0.147282 0
M  V30 13 O 0.525271 3.597533 0.211703 0
M  V30 14 C -1.554056 2.388008 0.221148 0
M  V30 15 C -2.115504 3.354664 1.028434 0
M  V30 16 C -3.424633 3.235303 1.434269 0
M  V30 17 C -4.188143 2.156053 1.042817 0
M  V30 18 F -5.477252 1.874526 1.340427 0
M  V30 19 C -3.596793 1.206863 0.235456 0
M  V30 20 C -4.171210 -0.030907 -0.323888 0
M  V30 21 C -3.989445 -1.116158 0.523051 0
M  V30 22 F -3.366645 -1.093377 1.728141 0
M  V30 23 C -4.461149 -2.355048 0.164443 0
M  V30 24 C -5.119607 -2.551339 -1.031498 0
M  V30 25 C -5.682826 -3.793095 -1.567789 0
M  V30 26 O -5.419970 -4.024224 -2.916446 0
M  V30 27 C -5.545425 -5.037660 -0.737121 0
M  V30 28 C -7.014303 -5.335436 -1.032766 0
M  V30 29 C -7.177504 -3.854679 -1.335548 0
M  V30 30 C -5.286694 -1.454398 -1.855070 0
M  V30 31 C -4.824997 -0.201099 -1.522518 0
M  V30 32 F -4.940996 0.919730 -2.257212 0
M  V30 33 N -2.315619 1.346412 -0.147579 0
M  V30 34 C 3.056240 -1.317156 0.440563 0
M  V30 35 C 2.824535 -1.852091 1.852026 0 CFG=1
M  V30 36 N 3.115692 -3.246326 1.984018 0
M  V30 37 C 3.696311 -0.963864 2.737000 0 CFG=1
M  V30 38 N 5.025803 -0.989303 2.172870 0
M  V30 39 C 5.738754 -2.108422 1.942181 0
M  V30 40 C 6.938106 -1.694296 1.404843 0
M  V30 41 N 6.899715 -0.350887 1.333888 0
M  V30 42 N 5.728913 0.049951 1.806119 0
M  V30 43 H 4.667739 0.730101 4.230042 0
M  V30 44 H 4.671949 1.946052 2.855404 0
M  V30 45 H 3.453025 2.049159 4.148657 0
M  V30 46 H 2.135259 0.383831 3.246092 0
M  V30 47 H 3.900739 1.481729 1.074643 0
M  V30 48 H 2.201084 1.818472 1.460869 0
M  V30 49 H 1.331212 -0.103350 0.477400 0
M  V30 50 H 4.574547 -0.162395 -1.397206 0
M  V30 51 H 4.786470 0.773988 -3.622706 0
M  V30 52 H 0.970088 2.446208 -3.353543 0
M  V30 53 H -0.156099 0.759376 -1.305711 0
M  V30 54 H -1.549988 4.228837 1.364787 0
M  V30 55 H -3.952299 3.941240 2.066856 0
M  V30 56 H -4.355631 -3.240766 0.772052 0
M  V30 57 H -4.593358 -4.574555 -3.055871 0
M  V30 58 H -5.427689 -4.920846 0.338534 0
M  V30 59 H -4.882141 -5.820307 -1.177646 0
M  V30 60 H -7.186776 -6.003621 -1.893083 0
M  V30 61 H -7.605340 -5.663018 -0.166778 0
M  V30 62 H -7.791004 -3.736273 -2.255029 0
M  V30 63 H -7.553230 -3.261838 -0.495426 0
M  V30 64 H -5.788510 -1.486273 -2.819872 0
M  V30 65 H 2.628187 -1.966502 -0.332874 0
M  V30 66 H 4.149135 -1.229974 0.269895 0
M  V30 67 H 1.780043 -1.672865 2.124400 0
M  V30 68 H 2.425897 -3.689259 2.612900 0
M  V30 69 H 2.942876 -3.692033 1.040502 0
M  V30 70 H 3.743280 -1.323577 3.762475 0
M  V30 71 H 5.491060 -3.155708 2.115752 0
M  V30 72 H 7.745980 -2.352832 1.103867 0
M  V30 END ATOM
M  V30 BEGIN BOND
M  V30 1 1 1 2
M  V30 2 1 2 3
M  V30 3 1 3 4
M  V30 4 1 4 5
M  V30 5 2 5 6
M  V30 6 1 6 7
M  V30 7 2 7 8
M  V30 8 1 8 9
M  V30 9 2 9 10
M  V30 10 1 10 11
M  V30 11 1 11 12
M  V30 12 2 12 13
M  V30 13 1 12 14
M  V30 14 2 14 15
M  V30 15 1 15 16
M  V30 16 2 16 17
M  V30 17 1 17 18
M  V30 18 1 17 19
M  V30 19 1 19 20
M  V30 20 2 20 21
M  V30 21 1 21 22
M  V30 22 1 21 23
M  V30 23 2 23 24
M  V30 24 1 24 25
M  V30 25 1 25 26
M  V30 26 1 25 27
M  V30 27 1 27 28
M  V30 28 1 28 29
M  V30 29 1 24 30
M  V30 30 2 30 31
M  V30 31 1 31 32
M  V30 32 2 19 33
M  V30 33 1 4 34
M  V30 34 1 34 35
M  V30 35 1 35 36
M  V30 36 1 35 37
M  V30 37 1 37 38
M  V30 38 1 38 39
M  V30 39 2 39 40
M  V30 40 1 40 41
M  V30 41 2 41 42
M  V30 42 1 37 2
M  V30 43 1 42 38
M  V30 44 1 10 5
M  V30 45 1 33 14
M  V30 46 1 31 20
M  V30 47 1 29 25
M  V30 48 1 1 43
M  V30 49 1 1 44
M  V30 50 1 1 45
M  V30 51 1 2 46 CFG=1
M  V30 52 1 3 47
M  V30 53 1 3 48
M  V30 54 1 4 49 CFG=1
M  V30 55 1 6 50
M  V30 56 1 7 51
M  V30 57 1 9 52
M  V30 58 1 11 53
M  V30 59 1 15 54
M  V30 60 1 16 55
M  V30 61 1 23 56
M  V30 62 1 26 57
M  V30 63 1 27 58
M  V30 64 1 27 59
M  V30 65 1 28 60
M  V30 66 1 28 61
M  V30 67 1 29 62
M  V30 68 1 29 63
M  V30 69 1 30 64
M  V30 70 1 34 65
M  V30 71 1 34 66
M  V30 72 1 35 67 CFG=1
M  V30 73 1 36 68
M  V30 74 1 36 69
M  V30 75 1 37 70 CFG=1
M  V30 76 1 39 71
M  V30 77 1 40 72
M  V30 END BOND
M  V30 END CTAB
M  END
>  <Dataset>  (483) 
ChEMBL_Kinases

>  <Ligand_Instance>  (483) 
nan

>  <PDB_ID>  (483) 
nan

>  <Standardized_SMILES>  (483) 
C[C@H]1C[C@@H](c2ccncc2NC(=O)c2ccc(F)c(-c3c(F)cc(C4(O)CCC4)cc3F)n2)C[C@@H](N)[C@H]1n1ccnn1

>  <Name>  (483) 
nan

>  <Pocket>  (483) 
nan

>  <ATP_Site>  (483) 
nan

>  <Peripheral>  (483) 
nan

>  <Num_H_Atoms_ProtBoundConf>  (483) 
nan

>  <Num_Resolved_Atoms>  (483) 
nan

>  <Num_Not_Resolved_Atoms>  (483) 
nan

$$$$
CHEMBL3691955
     RDKit          3D

  0  0  0  0  0  0  0  0  0  0999 V3000
M  V30 BEGIN CTAB
M  V30 COUNTS 76 81 0 0 0
M  V30 BEGIN ATOM
M  V30 1 C 1.872075 -3.852501 -1.870042 0
M  V30 2 C 1.350119 -2.474360 -2.068673 0 CFG=1
M  V30 3 C 1.755778 -1.496861 -0.977613 0
M  V30 4 C 3.148465 -1.123877 -0.909572 0 CFG=1
M  V30 5 C 3.960173 -1.351323 0.278542 0
M  V30 6 C 4.806459 -2.428749 0.609819 0
M  V30 7 C 5.513081 -2.507824 1.766462 0
M  V30 8 N 5.454042 -1.545512 2.694022 0
M  V30 9 C 4.670902 -0.474112 2.468906 0
M  V30 10 C 3.946028 -0.378768 1.298908 0
M  V30 11 N 3.135584 0.745832 1.105497 0
M  V30 12 C 3.164756 2.062672 0.565956 0
M  V30 13 O 4.210035 2.543457 0.039663 0
M  V30 14 C 1.912437 2.799410 0.666585 0
M  V30 15 C 1.896267 4.079193 0.163502 0
M  V30 16 C 0.750253 4.835319 0.223436 0
M  V30 17 C -0.412948 4.342166 0.784102 0
M  V30 18 F -1.617402 4.936755 0.926014 0
M  V30 19 C -0.362676 3.048014 1.281021 0
M  V30 20 C -1.424952 2.261926 1.923748 0
M  V30 21 C -1.687980 2.192247 3.276979 0
M  V30 22 F -0.881681 2.926116 4.077157 0
M  V30 23 C -2.738567 1.389985 3.714321 0
M  V30 24 C -3.520309 0.666814 2.834007 0
M  V30 25 O -4.493949 -0.052289 3.458344 0
M  V30 26 C -5.461722 -0.881332 2.884117 0
M  V30 27 C -6.850728 -0.377006 3.133779 0
M  V30 28 C -7.636700 -1.165552 4.133095 0
M  V30 29 O -7.511516 -2.527199 3.845554 0
M  V30 30 C -6.204431 -2.864501 4.255392 0
M  V30 31 C -5.272922 -2.348394 3.212599 0
M  V30 32 C -3.216605 0.771471 1.493212 0
M  V30 33 C -2.191347 1.547292 0.999726 0
M  V30 34 F -2.022584 1.543923 -0.341582 0
M  V30 35 N 0.766523 2.328886 1.212514 0
M  V30 36 C 3.931611 -1.660376 -2.110518 0
M  V30 37 C 3.202611 -1.640669 -3.405452 0 CFG=1
M  V30 38 N 3.678234 -2.676894 -4.309347 0
M  V30 39 C 1.731237 -1.800076 -3.340554 0 CFG=1
M  V30 40 N 1.150761 -2.545914 -4.436785 0
M  V30 41 C -0.044168 -2.363375 -5.023458 0
M  V30 42 C -0.274583 -3.258305 -6.043930 0
M  V30 43 N 0.838381 -3.994598 -6.048616 0
M  V30 44 N 1.656308 -3.570398 -5.111630 0
M  V30 45 H 2.462856 -4.011379 -0.944857 0
M  V30 46 H 0.982704 -4.537180 -1.731011 0
M  V30 47 H 2.371981 -4.265527 -2.775345 0
M  V30 48 H 0.212372 -2.469703 -2.059530 0
M  V30 49 H 1.255841 -1.897727 -0.082635 0
M  V30 50 H 1.118425 -0.602599 -1.195341 0
M  V30 51 H 3.218217 0.004202 -1.062945 0
M  V30 52 H 4.853832 -3.203089 -0.131660 0
M  V30 53 H 6.137828 -3.374297 1.932775 0
M  V30 54 H 4.610293 0.313812 3.208358 0
M  V30 55 H 2.241618 0.368171 1.550033 0
M  V30 56 H 2.790446 4.488631 -0.281081 0
M  V30 57 H 0.657248 5.841115 -0.149885 0
M  V30 58 H -2.854212 1.410288 4.806603 0
M  V30 59 H -5.315572 -0.824644 1.766921 0
M  V30 60 H -6.750888 0.664608 3.558293 0
M  V30 61 H -7.445662 -0.219353 2.200271 0
M  V30 62 H -8.701826 -0.862089 4.038614 0
M  V30 63 H -7.220112 -1.009803 5.136190 0
M  V30 64 H -6.078886 -3.961987 4.302124 0
M  V30 65 H -6.000984 -2.377919 5.220781 0
M  V30 66 H -4.225544 -2.462479 3.615854 0
M  V30 67 H -5.355035 -2.997587 2.310680 0
M  V30 68 H -3.842387 0.199000 0.836865 0
M  V30 69 H 4.207389 -2.717528 -1.943490 0
M  V30 70 H 4.893913 -1.125194 -2.238382 0
M  V30 71 H 3.407580 -0.685919 -3.935208 0
M  V30 72 H 4.160975 -2.318501 -5.142151 0
M  V30 73 H 4.353092 -3.291258 -3.768436 0
M  V30 74 H 1.275080 -0.769181 -3.284280 0
M  V30 75 H -0.736629 -1.574169 -4.697093 0
M  V30 76 H -1.125698 -3.371258 -6.702787 0
M  V30 END ATOM
M  V30 BEGIN BOND
M  V30 1 1 1 2
M  V30 2 1 2 3
M  V30 3 1 3 4
M  V30 4 1 4 5
M  V30 5 2 5 6
M  V30 6 1 6 7
M  V30 7 2 7 8
M  V30 8 1 8 9
M  V30 9 2 9 10
M  V30 10 1 10 11
M  V30 11 1 11 12
M  V30 12 2 12 13
M  V30 13 1 12 14
M  V30 14 2 14 15
M  V30 15 1 15 16
M  V30 16 2 16 17
M  V30 17 1 17 18
M  V30 18 1 17 19
M  V30 19 1 19 20
M  V30 20 2 20 21
M  V30 21 1 21 22
M  V30 22 1 21 23
M  V30 23 2 23 24
M  V30 24 1 24 25
M  V30 25 1 25 26
M  V30 26 1 26 27
M  V30 27 1 27 28
M  V30 28 1 28 29
M  V30 29 1 29 30
M  V30 30 1 30 31
M  V30 31 1 24 32
M  V30 32 2 32 33
M  V30 33 1 33 34
M  V30 34 2 19 35
M  V30 35 1 4 36
M  V30 36 1 36 37
M  V30 37 1 37 38
M  V30 38 1 37 39
M  V30 39 1 39 40
M  V30 40 1 40 41
M  V30 41 2 41 42
M  V30 42 1 42 43
M  V30 43 2 43 44
M  V30 44 1 39 2
M  V30 45 1 44 40
M  V30 46 1 10 5
M  V30 47 1 35 14
M  V30 48 1 33 20
M  V30 49 1 31 26
M  V30 50 1 1 45
M  V30 51 1 1 46
M  V30 52 1 1 47
M  V30 53 1 2 48 CFG=3
M  V30 54 1 3 49
M  V30 55 1 3 50
M  V30 56 1 4 51 CFG=3
M  V30 57 1 6 52
M  V30 58 1 7 53
M  V30 59 1 9 54
M  V30 60 1 11 55
M  V30 61 1 15 56
M  V30 62 1 16 57
M  V30 63 1 23 58
M  V30 64 1 26 59
M  V30 65 1 27 60
M  V30 66 1 27 61
M  V30 67 1 28 62
M  V30 68 1 28 63
M  V30 69 1 30 64
M  V30 70 1 30 65
M  V30 71 1 31 66
M  V30 72 1 31 67
M  V30 73 1 32 68
M  V30 74 1 36 69
M  V30 75 1 36 70
M  V30 76 1 37 71 CFG=3
M  V30 77 1 38 72
M  V30 78 1 38 73
M  V30 79 1 39 74 CFG=1
M  V30 80 1 41 75
M  V30 81 1 42 76
M  V30 END BOND
M  V30 END CTAB
M  END
>  <Dataset>  (484) 
ChEMBL_Kinases

>  <Ligand_Instance>  (484) 
nan

>  <PDB_ID>  (484) 
nan

>  <Standardized_SMILES>  (484) 
C[C@H]1C[C@@H](c2ccncc2NC(=O)c2ccc(F)c(-c3c(F)cc(OC4CCOCC4)cc3F)n2)C[C@@H](N)[C@H]1n1ccnn1

>  <Name>  (484) 
nan

>  <Pocket>  (484) 
nan

>  <ATP_Site>  (484) 
nan

>  <Peripheral>  (484) 
nan

>  <Num_H_Atoms_ProtBoundConf>  (484) 
nan

>  <Num_Resolved_Atoms>  (484) 
nan

>  <Num_Not_Resolved_Atoms>  (484) 
nan

$$$$
CHEMBL2408045
     RDKit          3D

  0  0  0  0  0  0  0  0  0  0999 V3000
M  V30 BEGIN CTAB
M  V30 COUNTS 58 61 0 0 0
M  V30 BEGIN ATOM
M  V30 1 C 4.642583 0.525039 4.675517 0
M  V30 2 N 4.423136 0.575914 3.244716 0
M  V30 3 C 3.398451 1.328418 2.636390 0
M  V30 4 O 2.635763 1.996936 3.419614 0
M  V30 5 C 2.921685 1.586139 1.276831 0
M  V30 6 N 3.607097 0.924343 0.215606 0
M  V30 7 C 3.199764 1.321938 -1.086094 0
M  V30 8 C 1.828089 0.848369 -1.410024 0
M  V30 9 C 1.725741 -0.669344 -1.328233 0
M  V30 10 O 0.588763 -1.091833 -0.651742 0
M  V30 11 C -0.466183 -1.856239 -1.048050 0
M  V30 12 C -1.338113 -1.950495 0.051056 0
M  V30 13 C -2.536286 -2.675700 -0.018490 0
M  V30 14 C -3.445937 -2.819040 1.006774 0
M  V30 15 N -3.132030 -2.166127 2.237212 0
M  V30 16 C -3.611379 -0.829867 2.351346 0
M  V30 17 C -4.327255 -0.271252 1.295348 0
M  V30 18 C -4.825610 1.037368 1.348651 0
M  V30 19 C -4.618907 1.821465 2.463303 0
M  V30 20 C -3.897955 1.226764 3.498986 0
M  V30 21 Cl -3.662687 2.275362 4.900426 0
M  V30 22 C -3.399234 -0.052477 3.472092 0
M  V30 23 F -2.702745 -0.553390 4.532836 0
M  V30 24 N -4.572527 -3.534439 0.852213 0
M  V30 25 C -4.815345 -4.130891 -0.353260 0
M  V30 26 N -3.963930 -4.025420 -1.389787 0
M  V30 27 C -2.844167 -3.303448 -1.206856 0
M  V30 28 C -2.016011 -3.234429 -2.305839 0
M  V30 29 C -0.847218 -2.511526 -2.196682 0
M  V30 30 O 0.061294 -2.361818 -3.204667 0
M  V30 31 C 0.011978 -2.876566 -4.490862 0
M  V30 32 C 3.021563 -1.240425 -0.789903 0
M  V30 33 C 3.627809 -0.490039 0.334437 0
M  V30 34 H 3.927435 1.171362 5.217529 0
M  V30 35 H 5.665334 0.911883 4.925486 0
M  V30 36 H 4.646233 -0.536157 5.048679 0
M  V30 37 H 4.996497 0.079378 2.548947 0
M  V30 38 H 1.833041 1.279723 1.194084 0
M  V30 39 H 2.870445 2.692878 1.052172 0
M  V30 40 H 3.243277 2.432481 -1.121273 0
M  V30 41 H 3.925198 0.960348 -1.869106 0
M  V30 42 H 1.508107 1.232355 -2.398174 0
M  V30 43 H 1.113257 1.261051 -0.679918 0
M  V30 44 H 1.673241 -1.018890 -2.373420 0
M  V30 45 H -1.243907 -1.515359 1.060310 0
M  V30 46 H -2.603402 -2.544638 3.048476 0
M  V30 47 H -4.542001 -0.813336 0.370256 0
M  V30 48 H -5.376388 1.433497 0.506352 0
M  V30 49 H -5.014913 2.815072 2.466324 0
M  V30 50 H -5.766166 -4.688214 -0.360936 0
M  V30 51 H -2.145971 -3.677802 -3.280092 0
M  V30 52 H 1.034218 -2.769002 -4.948109 0
M  V30 53 H -0.291295 -3.958301 -4.520869 0
M  V30 54 H -0.745027 -2.316215 -5.076289 0
M  V30 55 H 2.752276 -2.258981 -0.383908 0
M  V30 56 H 3.745287 -1.432882 -1.607489 0
M  V30 57 H 3.169838 -0.761424 1.328531 0
M  V30 58 H 4.699797 -0.839968 0.406838 0
M  V30 END ATOM
M  V30 BEGIN BOND
M  V30 1 1 1 2
M  V30 2 1 2 3
M  V30 3 2 3 4
M  V30 4 1 3 5
M  V30 5 1 5 6
M  V30 6 1 6 7
M  V30 7 1 7 8
M  V30 8 1 8 9
M  V30 9 1 9 10
M  V30 10 1 10 11
M  V30 11 2 11 12
M  V30 12 1 12 13
M  V30 13 2 13 14
M  V30 14 1 14 15
M  V30 15 1 15 16
M  V30 16 2 16 17
M  V30 17 1 17 18
M  V30 18 2 18 19
M  V30 19 1 19 20
M  V30 20 1 20 21
M  V30 21 2 20 22
M  V30 22 1 22 23
M  V30 23 1 14 24
M  V30 24 2 24 25
M  V30 25 1 25 26
M  V30 26 2 26 27
M  V30 27 1 27 28
M  V30 28 2 28 29
M  V30 29 1 29 30
M  V30 30 1 30 31
M  V30 31 1 9 32
M  V30 32 1 32 33
M  V30 33 1 33 6
M  V30 34 1 29 11
M  V30 35 1 27 13
M  V30 36 1 22 16
M  V30 37 1 1 34
M  V30 38 1 1 35
M  V30 39 1 1 36
M  V30 40 1 2 37
M  V30 41 1 5 38
M  V30 42 1 5 39
M  V30 43 1 7 40
M  V30 44 1 7 41
M  V30 45 1 8 42
M  V30 46 1 8 43
M  V30 47 1 9 44
M  V30 48 1 12 45
M  V30 49 1 15 46
M  V30 50 1 17 47
M  V30 51 1 18 48
M  V30 52 1 19 49
M  V30 53 1 25 50
M  V30 54 1 28 51
M  V30 55 1 31 52
M  V30 56 1 31 53
M  V30 57 1 31 54
M  V30 58 1 32 55
M  V30 59 1 32 56
M  V30 60 1 33 57
M  V30 61 1 33 58
M  V30 END BOND
M  V30 END CTAB
M  END
>  <Dataset>  (485) 
ChEMBL_Kinases

>  <Ligand_Instance>  (485) 
nan

>  <PDB_ID>  (485) 
nan

>  <Standardized_SMILES>  (485) 
CNC(=O)CN1CCC(Oc2cc3c(Nc4cccc(Cl)c4F)ncnc3cc2OC)CC1

>  <Name>  (485) 
SAPITINIB

>  <Pocket>  (485) 
nan

>  <ATP_Site>  (485) 
nan

>  <Peripheral>  (485) 
nan

>  <Num_H_Atoms_ProtBoundConf>  (485) 
nan

>  <Num_Resolved_Atoms>  (485) 
nan

>  <Num_Not_Resolved_Atoms>  (485) 
nan

$$$$
CHEMBL3691949
     RDKit          3D

  0  0  0  0  0  0  0  0  0  0999 V3000
M  V30 BEGIN CTAB
M  V30 COUNTS 67 70 0 0 0
M  V30 BEGIN ATOM
M  V30 1 C 4.413428 -4.178256 5.213151 0
M  V30 2 O 4.318605 -2.793441 5.462172 0
M  V30 3 C 4.074707 -1.877153 4.464409 0
M  V30 4 C 3.884185 -2.083637 3.113927 0
M  V30 5 C 3.649046 -1.028158 2.258733 0
M  V30 6 F 3.471761 -1.315016 0.943187 0
M  V30 7 C 3.608461 0.243885 2.786117 0
M  V30 8 C 3.350120 1.287139 1.775334 0
M  V30 9 N 2.051957 1.510136 1.635222 0
M  V30 10 C 1.525361 2.417157 0.774775 0
M  V30 11 C 0.097987 2.678710 0.604626 0
M  V30 12 O -0.358690 3.525918 -0.201187 0
M  V30 13 N -0.769137 1.909590 1.414470 0
M  V30 14 C -2.201971 1.988766 1.424159 0
M  V30 15 C -2.817405 2.880883 2.297771 0
M  V30 16 N -4.172230 2.969194 2.320639 0
M  V30 17 C -4.915257 2.197139 1.501917 0
M  V30 18 C -4.337941 1.290324 0.611556 0
M  V30 19 C -2.963743 1.183365 0.570691 0
M  V30 20 C -2.226415 0.266520 -0.321975 0 CFG=1
M  V30 21 C -2.063363 -1.041258 0.417278 0
M  V30 22 C -2.373573 -2.229858 -0.465800 0 CFG=1
M  V30 23 N -3.780172 -2.388037 -0.675522 0
M  V30 24 C -1.582646 -2.009656 -1.743854 0 CFG=1
M  V30 25 O -1.531836 -3.170181 -2.489098 0
M  V30 26 C -0.186856 -3.558394 -2.562747 0
M  V30 27 C -0.099990 -4.836443 -3.379456 0
M  V30 28 C -0.897861 -5.860125 -2.703093 0
M  V30 29 N -1.512321 -6.667418 -2.159282 0
M  V30 30 C -2.257398 -0.928489 -2.521265 0 CFG=1
M  V30 31 C -3.271204 -1.584080 -3.441058 0
M  V30 32 C -2.871491 0.144915 -1.660567 0
M  V30 33 C 2.442474 3.123004 0.024067 0
M  V30 34 C 3.814878 2.914341 0.145530 0
M  V30 35 C 4.285941 1.980343 1.035940 0
M  V30 36 F 5.570043 1.649863 1.282622 0
M  V30 37 C 3.792535 0.506219 4.129740 0
M  V30 38 F 3.734140 1.792376 4.551068 0
M  V30 39 C 4.027871 -0.579486 4.967510 0
M  V30 40 H 3.881254 -4.511904 4.305869 0
M  V30 41 H 5.487516 -4.470624 5.237853 0
M  V30 42 H 3.956716 -4.700919 6.080133 0
M  V30 43 H 3.938058 -3.114230 2.821056 0
M  V30 44 H -0.513837 1.177829 2.118867 0
M  V30 45 H -2.169323 3.477384 2.933967 0
M  V30 46 H -5.994829 2.259800 1.512449 0
M  V30 47 H -4.937171 0.672392 -0.042942 0
M  V30 48 H -1.188747 0.656290 -0.543310 0
M  V30 49 H -2.694680 -1.122013 1.322986 0
M  V30 50 H -1.002758 -1.184526 0.766739 0
M  V30 51 H -1.931208 -3.131654 0.026424 0
M  V30 52 H -4.062898 -3.380108 -0.556367 0
M  V30 53 H -4.283510 -1.740105 -0.026233 0
M  V30 54 H -0.567177 -1.698400 -1.407872 0
M  V30 55 H 0.418600 -2.795358 -3.087282 0
M  V30 56 H 0.219496 -3.789885 -1.575014 0
M  V30 57 H -0.520251 -4.644042 -4.390210 0
M  V30 58 H 0.941860 -5.133256 -3.519410 0
M  V30 59 H -1.480971 -0.500320 -3.217626 0
M  V30 60 H -4.309395 -1.350641 -3.115292 0
M  V30 61 H -3.187154 -1.256729 -4.491680 0
M  V30 62 H -3.136507 -2.694569 -3.476162 0
M  V30 63 H -3.947265 0.002700 -1.683934 0
M  V30 64 H -2.680593 1.119105 -2.186466 0
M  V30 65 H 2.121911 3.869420 -0.690974 0
M  V30 66 H 4.569556 3.442855 -0.420745 0
M  V30 67 H 4.162070 -0.289407 6.008246 0
M  V30 END ATOM
M  V30 BEGIN BOND
M  V30 1 1 1 2
M  V30 2 1 2 3
M  V30 3 2 3 4
M  V30 4 1 4 5
M  V30 5 1 5 6
M  V30 6 2 5 7
M  V30 7 1 7 8
M  V30 8 2 8 9
M  V30 9 1 9 10
M  V30 10 1 10 11
M  V30 11 2 11 12
M  V30 12 1 11 13
M  V30 13 1 13 14
M  V30 14 2 14 15
M  V30 15 1 15 16
M  V30 16 2 16 17
M  V30 17 1 17 18
M  V30 18 2 18 19
M  V30 19 1 19 20
M  V30 20 1 20 21
M  V30 21 1 21 22
M  V30 22 1 22 23
M  V30 23 1 22 24
M  V30 24 1 24 25
M  V30 25 1 25 26
M  V30 26 1 26 27
M  V30 27 1 27 28
M  V30 28 3 28 29
M  V30 29 1 24 30
M  V30 30 1 30 31
M  V30 31 1 30 32
M  V30 32 2 10 33
M  V30 33 1 33 34
M  V30 34 2 34 35
M  V30 35 1 35 36
M  V30 36 1 7 37
M  V30 37 1 37 38
M  V30 38 2 37 39
M  V30 39 1 39 3
M  V30 40 1 35 8
M  V30 41 1 19 14
M  V30 42 1 32 20
M  V30 43 1 1 40
M  V30 44 1 1 41
M  V30 45 1 1 42
M  V30 46 1 4 43
M  V30 47 1 13 44
M  V30 48 1 15 45
M  V30 49 1 17 46
M  V30 50 1 18 47
M  V30 51 1 20 48 CFG=3
M  V30 52 1 21 49
M  V30 53 1 21 50
M  V30 54 1 22 51 CFG=1
M  V30 55 1 23 52
M  V30 56 1 23 53
M  V30 57 1 24 54 CFG=1
M  V30 58 1 26 55
M  V30 59 1 26 56
M  V30 60 1 27 57
M  V30 61 1 27 58
M  V30 62 1 30 59 CFG=3
M  V30 63 1 31 60
M  V30 64 1 31 61
M  V30 65 1 31 62
M  V30 66 1 32 63
M  V30 67 1 32 64
M  V30 68 1 33 65
M  V30 69 1 34 66
M  V30 70 1 39 67
M  V30 END BOND
M  V30 END CTAB
M  END
>  <Dataset>  (486) 
ChEMBL_Kinases

>  <Ligand_Instance>  (486) 
nan

>  <PDB_ID>  (486) 
nan

>  <Standardized_SMILES>  (486) 
COc1cc(F)c(-c2nc(C(=O)Nc3cnccc3[C@H]3C[C@@H](N)[C@@H](OCCC#N)[C@@H](C)C3)ccc2F)c(F)c1

>  <Name>  (486) 
nan

>  <Pocket>  (486) 
nan

>  <ATP_Site>  (486) 
nan

>  <Peripheral>  (486) 
nan

>  <Num_H_Atoms_ProtBoundConf>  (486) 
nan

>  <Num_Resolved_Atoms>  (486) 
nan

>  <Num_Not_Resolved_Atoms>  (486) 
nan

$$$$
CHEMBL4453997
     RDKit          3D

  0  0  0  0  0  0  0  0  0  0999 V3000
M  V30 BEGIN CTAB
M  V30 COUNTS 35 38 0 0 0
M  V30 BEGIN ATOM
M  V30 1 C 2.228553 -5.137319 4.295352 0
M  V30 2 O 2.977534 -4.420266 3.346251 0
M  V30 3 C 2.342693 -3.583459 2.447459 0
M  V30 4 C 3.260765 -2.965977 1.592356 0
M  V30 5 C 2.835338 -2.081872 0.608820 0
M  V30 6 C 1.481588 -1.788869 0.450702 0
M  V30 7 C 1.008784 -0.864181 -0.574075 0
M  V30 8 N 1.417949 -0.839431 -1.874380 0
M  V30 9 N 0.790414 0.121970 -2.529537 0
M  V30 10 C -0.058191 0.781374 -1.716966 0
M  V30 11 C 0.075112 0.163348 -0.480761 0
M  V30 12 C -0.786030 0.762507 0.529346 0
M  V30 13 O -0.927479 0.471565 1.727498 0
M  V30 14 C -1.476609 1.821700 -0.194824 0
M  V30 15 C -2.418957 2.770744 0.132755 0
M  V30 16 C -2.922317 2.827820 1.500271 0
M  V30 17 O -2.724904 2.203829 2.558644 0
M  V30 18 C -2.961676 3.708688 -0.716124 0
M  V30 19 C -2.511214 3.691299 -2.029305 0
M  V30 20 C -1.556598 2.747602 -2.408085 0
M  V30 21 C -1.050487 1.831908 -1.507729 0
M  V30 22 C 0.605182 -2.415747 1.311114 0
M  V30 23 C 0.993522 -3.295214 2.294314 0
M  V30 24 H 2.708680 -6.121271 4.546782 0
M  V30 25 H 1.207486 -5.409614 3.961509 0
M  V30 26 H 2.108667 -4.591557 5.264638 0
M  V30 27 H 4.345598 -3.109651 1.611627 0
M  V30 28 H 3.541988 -1.588477 -0.070716 0
M  V30 29 H 0.911799 0.369194 -3.551235 0
M  V30 30 H -3.644831 3.505384 1.884297 0
M  V30 31 H -3.696858 4.429004 -0.407302 0
M  V30 32 H -2.899452 4.403250 -2.745233 0
M  V30 33 H -1.230026 2.770620 -3.454556 0
M  V30 34 H -0.465634 -2.226123 1.235733 0
M  V30 35 H 0.383774 -3.814231 2.990649 0
M  V30 END ATOM
M  V30 BEGIN BOND
M  V30 1 1 1 2
M  V30 2 1 2 3
M  V30 3 2 3 4
M  V30 4 1 4 5
M  V30 5 2 5 6
M  V30 6 1 6 7
M  V30 7 2 7 8
M  V30 8 1 8 9
M  V30 9 1 9 10
M  V30 10 2 10 11
M  V30 11 1 11 12
M  V30 12 2 12 13
M  V30 13 1 12 14
M  V30 14 2 14 15
M  V30 15 1 15 16
M  V30 16 2 16 17
M  V30 17 1 15 18
M  V30 18 2 18 19
M  V30 19 1 19 20
M  V30 20 2 20 21
M  V30 21 1 6 22
M  V30 22 2 22 23
M  V30 23 1 23 3
M  V30 24 1 11 7
M  V30 25 1 21 14
M  V30 26 1 21 10
M  V30 27 1 1 24
M  V30 28 1 1 25
M  V30 29 1 1 26
M  V30 30 1 4 27
M  V30 31 1 5 28
M  V30 32 1 9 29
M  V30 33 1 16 30
M  V30 34 1 18 31
M  V30 35 1 19 32
M  V30 36 1 20 33
M  V30 37 1 22 34
M  V30 38 1 23 35
M  V30 END BOND
M  V30 END CTAB
M  END
>  <Dataset>  (487) 
ChEMBL_Kinases

>  <Ligand_Instance>  (487) 
nan

>  <PDB_ID>  (487) 
nan

>  <Standardized_SMILES>  (487) 
COc1ccc(-c2n[nH]c3c2C(=O)c2c(C=O)cccc2-3)cc1

>  <Name>  (487) 
nan

>  <Pocket>  (487) 
nan

>  <ATP_Site>  (487) 
nan

>  <Peripheral>  (487) 
nan

>  <Num_H_Atoms_ProtBoundConf>  (487) 
nan

>  <Num_Resolved_Atoms>  (487) 
nan

>  <Num_Not_Resolved_Atoms>  (487) 
nan

$$$$
CHEMBL3691954
     RDKit          3D

  0  0  0  0  0  0  0  0  0  0999 V3000
M  V30 BEGIN CTAB
M  V30 COUNTS 78 82 0 0 0
M  V30 BEGIN ATOM
M  V30 1 C 4.207487 -4.075953 5.506170 0
M  V30 2 O 4.292663 -4.347160 4.101031 0
M  V30 3 C 3.351274 -3.762298 3.235393 0
M  V30 4 O 2.460682 -3.018829 3.710638 0
M  V30 5 N 3.483544 -4.062827 1.871403 0
M  V30 6 C 2.626537 -3.573214 0.791202 0 CFG=2
M  V30 7 C 1.870416 -4.730451 0.239248 0 CFG=2
M  V30 8 N 2.637727 -5.956342 0.508622 0
M  V30 9 C 1.585410 -4.730965 -1.216449 0
M  V30 10 C 1.630671 -3.283666 -1.697067 0 CFG=2
M  V30 11 C 1.022791 -3.125450 -3.024610 0
M  V30 12 C 1.884112 -3.290178 -4.107045 0
M  V30 13 C 1.344071 -3.149371 -5.376887 0
M  V30 14 N 0.027734 -2.861845 -5.581021 0
M  V30 15 C -0.794148 -2.705453 -4.508319 0
M  V30 16 C -0.312317 -2.834049 -3.220308 0
M  V30 17 N -1.142074 -2.675644 -2.077235 0
M  V30 18 C -1.962739 -3.478506 -1.239026 0
M  V30 19 O -2.087741 -4.707716 -1.448407 0
M  V30 20 C -2.605046 -2.732289 -0.164629 0
M  V30 21 C -3.407920 -3.487853 0.663819 0
M  V30 22 C -4.065198 -2.879553 1.715296 0
M  V30 23 C -3.927265 -1.534198 1.942865 0
M  V30 24 F -4.488103 -0.781039 2.911388 0
M  V30 25 C -3.114700 -0.800855 1.094809 0
M  V30 26 C -2.795011 0.630234 1.108174 0
M  V30 27 C -3.653052 1.410821 0.362676 0
M  V30 28 F -4.708229 0.913066 -0.329840 0
M  V30 29 C -3.493472 2.776448 0.269016 0
M  V30 30 C -2.465212 3.408992 0.921362 0
M  V30 31 O -2.060762 4.719518 1.014881 0
M  V30 32 C -2.705012 5.796286 0.378230 0
M  V30 33 C -3.238609 6.778046 1.373030 0
M  V30 34 C -2.426700 7.990932 1.585451 0
M  V30 35 O -1.642547 8.407229 0.538618 0
M  V30 36 C -2.038073 7.915215 -0.696210 0
M  V30 37 C -1.774164 6.405253 -0.635218 0
M  V30 38 C -1.590797 2.619329 1.680137 0
M  V30 39 C -1.751335 1.235684 1.775855 0
M  V30 40 F -0.948117 0.412813 2.487981 0
M  V30 41 N -2.478693 -1.400871 0.073845 0
M  V30 42 C 3.068829 -2.900438 -1.598992 0
M  V30 43 C 3.365150 -2.700513 -0.138663 0 CFG=2
M  V30 44 C 4.855020 -2.902702 0.056415 0
M  V30 45 H 4.215972 -4.999426 6.098011 0
M  V30 46 H 3.243960 -3.544574 5.751500 0
M  V30 47 H 5.000991 -3.364388 5.809184 0
M  V30 48 H 4.249312 -4.693306 1.522716 0
M  V30 49 H 1.867398 -2.918490 1.303861 0
M  V30 50 H 0.914008 -4.889312 0.780403 0
M  V30 51 H 2.757369 -6.553345 -0.314733 0
M  V30 52 H 2.273707 -6.498815 1.301019 0
M  V30 53 H 0.620152 -5.186538 -1.428271 0
M  V30 54 H 2.388364 -5.243741 -1.821019 0
M  V30 55 H 1.072908 -2.674582 -0.928576 0
M  V30 56 H 2.945716 -3.521516 -3.970017 0
M  V30 57 H 2.031365 -3.281228 -6.215565 0
M  V30 58 H -1.848715 -2.474936 -4.679108 0
M  V30 59 H -0.990747 -1.634697 -1.959754 0
M  V30 60 H -3.545962 -4.569571 0.516800 0
M  V30 61 H -4.709565 -3.383933 2.411241 0
M  V30 62 H -4.101627 3.455763 -0.278802 0
M  V30 63 H -3.556549 5.386011 -0.196119 0
M  V30 64 H -4.297649 7.026129 1.153300 0
M  V30 65 H -3.289907 6.247164 2.362126 0
M  V30 66 H -3.094857 8.834532 1.871535 0
M  V30 67 H -1.733914 7.895114 2.472337 0
M  V30 68 H -3.123955 8.073715 -0.841809 0
M  V30 69 H -1.390018 8.317855 -1.473604 0
M  V30 70 H -0.735416 6.305672 -0.255793 0
M  V30 71 H -1.875282 5.980876 -1.650337 0
M  V30 72 H -0.719705 2.934087 2.266611 0
M  V30 73 H 3.662912 -3.761401 -2.009662 0
M  V30 74 H 3.363124 -2.010110 -2.157984 0
M  V30 75 H 3.206867 -1.604609 0.053871 0
M  V30 76 H 5.038941 -2.832781 1.165874 0
M  V30 77 H 5.433002 -2.030617 -0.363614 0
M  V30 78 H 5.225565 -3.865106 -0.331333 0
M  V30 END ATOM
M  V30 BEGIN BOND
M  V30 1 1 1 2
M  V30 2 1 2 3
M  V30 3 2 3 4
M  V30 4 1 3 5
M  V30 5 1 5 6
M  V30 6 1 6 7
M  V30 7 1 7 8
M  V30 8 1 7 9
M  V30 9 1 9 10
M  V30 10 1 10 11
M  V30 11 2 11 12
M  V30 12 1 12 13
M  V30 13 2 13 14
M  V30 14 1 14 15
M  V30 15 2 15 16
M  V30 16 1 16 17
M  V30 17 1 17 18
M  V30 18 2 18 19
M  V30 19 1 18 20
M  V30 20 2 20 21
M  V30 21 1 21 22
M  V30 22 2 22 23
M  V30 23 1 23 24
M  V30 24 1 23 25
M  V30 25 1 25 26
M  V30 26 2 26 27
M  V30 27 1 27 28
M  V30 28 1 27 29
M  V30 29 2 29 30
M  V30 30 1 30 31
M  V30 31 1 31 32
M  V30 32 1 32 33
M  V30 33 1 33 34
M  V30 34 1 34 35
M  V30 35 1 35 36
M  V30 36 1 36 37
M  V30 37 1 30 38
M  V30 38 2 38 39
M  V30 39 1 39 40
M  V30 40 2 25 41
M  V30 41 1 10 42
M  V30 42 1 42 43
M  V30 43 1 43 44
M  V30 44 1 43 6
M  V30 45 1 16 11
M  V30 46 1 41 20
M  V30 47 1 39 26
M  V30 48 1 37 32
M  V30 49 1 1 45
M  V30 50 1 1 46
M  V30 51 1 1 47
M  V30 52 1 5 48
M  V30 53 1 6 49 CFG=1
M  V30 54 1 7 50 CFG=1
M  V30 55 1 8 51
M  V30 56 1 8 52
M  V30 57 1 9 53
M  V30 58 1 9 54
M  V30 59 1 10 55 CFG=1
M  V30 60 1 12 56
M  V30 61 1 13 57
M  V30 62 1 15 58
M  V30 63 1 17 59
M  V30 64 1 21 60
M  V30 65 1 22 61
M  V30 66 1 29 62
M  V30 67 1 32 63
M  V30 68 1 33 64
M  V30 69 1 33 65
M  V30 70 1 34 66
M  V30 71 1 34 67
M  V30 72 1 36 68
M  V30 73 1 36 69
M  V30 74 1 37 70
M  V30 75 1 37 71
M  V30 76 1 38 72
M  V30 77 1 42 73
M  V30 78 1 42 74
M  V30 79 1 43 75 CFG=1
M  V30 80 1 44 76
M  V30 81 1 44 77
M  V30 82 1 44 78
M  V30 END BOND
M  V30 END CTAB
M  END
>  <Dataset>  (488) 
ChEMBL_Kinases

>  <Ligand_Instance>  (488) 
nan

>  <PDB_ID>  (488) 
nan

>  <Standardized_SMILES>  (488) 
COC(=O)N[C@@H]1[C@H](N)C[C@H](c2ccncc2NC(=O)c2ccc(F)c(-c3c(F)cc(OC4CCOCC4)cc3F)n2)C[C@@H]1C

>  <Name>  (488) 
nan

>  <Pocket>  (488) 
nan

>  <ATP_Site>  (488) 
nan

>  <Peripheral>  (488) 
nan

>  <Num_H_Atoms_ProtBoundConf>  (488) 
nan

>  <Num_Resolved_Atoms>  (488) 
nan

>  <Num_Not_Resolved_Atoms>  (488) 
nan

$$$$
CHEMBL4453948
     RDKit          3D

  0  0  0  0  0  0  0  0  0  0999 V3000
M  V30 BEGIN CTAB
M  V30 COUNTS 50 53 0 0 0
M  V30 BEGIN ATOM
M  V30 1 N 7.777026 -5.312715 2.146398 0
M  V30 2 C 7.050708 -4.477028 1.796083 0
M  V30 3 C 6.127119 -3.448009 1.370486 0
M  V30 4 C 5.929083 -2.420465 2.260318 0
M  V30 5 C 5.057528 -1.366794 1.959155 0
M  V30 6 C 4.420984 -1.423060 0.735108 0
M  V30 7 C 3.522313 -0.329308 0.433455 0
M  V30 8 O 3.368198 0.596833 1.279979 0
M  V30 9 N 2.764304 -0.175474 -0.755902 0
M  V30 10 C 1.932002 1.000620 -0.836899 0
M  V30 11 C 2.386090 2.194087 -1.363678 0
M  V30 12 C 1.590594 3.318952 -1.441334 0
M  V30 13 C 0.290961 3.266622 -0.980139 0
M  V30 14 C -0.181394 2.081248 -0.449622 0
M  V30 15 N -1.506671 1.851208 0.075686 0
M  V30 16 C -1.555616 2.145223 1.460123 0
M  V30 17 O -0.467250 2.554872 2.001216 0
M  V30 18 C -2.567191 2.110264 2.509661 0
M  V30 19 O -3.846108 1.676518 2.123130 0
M  V30 20 C -3.996584 0.391198 1.633098 0
M  V30 21 C -5.343331 0.185103 1.307762 0
M  V30 22 C -5.797481 -1.020116 0.791311 0
M  V30 23 C -4.899021 -2.046535 0.591517 0
M  V30 24 C -5.210636 -3.282001 0.090861 0
M  V30 25 O -6.423366 -3.502707 -0.214675 0
M  V30 26 C -4.212953 -4.223012 -0.059810 0
M  V30 27 C -2.893968 -3.960465 0.280556 0
M  V30 28 O -2.641554 -2.763875 0.756233 0
M  V30 29 C -3.572580 -1.852514 0.908736 0
M  V30 30 C -3.116050 -0.663732 1.419742 0
M  V30 31 C 0.614265 0.948034 -0.369425 0
M  V30 32 C 4.612642 -2.450476 -0.166147 0
M  V30 33 C 5.483777 -3.491199 0.149997 0
M  V30 34 H 6.433702 -2.374973 3.231750 0
M  V30 35 H 4.925112 -0.584637 2.669759 0
M  V30 36 H 2.863711 -0.922751 -1.484231 0
M  V30 37 H 3.387505 2.258762 -1.726619 0
M  V30 38 H 1.942099 4.257042 -1.853538 0
M  V30 39 H -0.419627 4.087246 -0.992203 0
M  V30 40 H -2.445876 1.539651 -0.250219 0
M  V30 41 H -2.621317 3.060700 3.104640 0
M  V30 42 H -2.231483 1.358182 3.280912 0
M  V30 43 H -6.177198 0.893014 1.405552 0
M  V30 44 H -6.808690 -1.244571 0.522065 0
M  V30 45 H -4.487229 -5.185563 -0.455754 0
M  V30 46 H -2.135141 -4.714434 0.152259 0
M  V30 47 H -2.120838 -0.357419 1.715319 0
M  V30 48 H 0.301896 -0.001095 0.032817 0
M  V30 49 H 4.114832 -2.492568 -1.121078 0
M  V30 50 H 5.684223 -4.329325 -0.505147 0
M  V30 END ATOM
M  V30 BEGIN BOND
M  V30 1 3 1 2
M  V30 2 1 2 3
M  V30 3 2 3 4
M  V30 4 1 4 5
M  V30 5 2 5 6
M  V30 6 1 6 7
M  V30 7 2 7 8
M  V30 8 1 7 9
M  V30 9 1 9 10
M  V30 10 2 10 11
M  V30 11 1 11 12
M  V30 12 2 12 13
M  V30 13 1 13 14
M  V30 14 1 14 15
M  V30 15 1 15 16
M  V30 16 2 16 17
M  V30 17 1 16 18
M  V30 18 1 18 19
M  V30 19 1 19 20
M  V30 20 2 20 21
M  V30 21 1 21 22
M  V30 22 2 22 23
M  V30 23 1 23 24
M  V30 24 2 24 25
M  V30 25 1 24 26
M  V30 26 2 26 27
M  V30 27 1 27 28
M  V30 28 1 28 29
M  V30 29 2 29 30
M  V30 30 2 14 31
M  V30 31 1 6 32
M  V30 32 2 32 33
M  V30 33 1 33 3
M  V30 34 1 31 10
M  V30 35 1 30 20
M  V30 36 1 29 23
M  V30 37 1 4 34
M  V30 38 1 5 35
M  V30 39 1 9 36
M  V30 40 1 11 37
M  V30 41 1 12 38
M  V30 42 1 13 39
M  V30 43 1 15 40
M  V30 44 1 18 41
M  V30 45 1 18 42
M  V30 46 1 21 43
M  V30 47 1 22 44
M  V30 48 1 26 45
M  V30 49 1 27 46
M  V30 50 1 30 47
M  V30 51 1 31 48
M  V30 52 1 32 49
M  V30 53 1 33 50
M  V30 END BOND
M  V30 END CTAB
M  END
>  <Dataset>  (489) 
ChEMBL_Kinases

>  <Ligand_Instance>  (489) 
nan

>  <PDB_ID>  (489) 
nan

>  <Standardized_SMILES>  (489) 
N#Cc1ccc(C(=O)Nc2cccc(NC(=O)COc3ccc4c(=O)ccoc4c3)c2)cc1

>  <Name>  (489) 
nan

>  <Pocket>  (489) 
nan

>  <ATP_Site>  (489) 
nan

>  <Peripheral>  (489) 
nan

>  <Num_H_Atoms_ProtBoundConf>  (489) 
nan

>  <Num_Resolved_Atoms>  (489) 
nan

>  <Num_Not_Resolved_Atoms>  (489) 
nan

$$$$
CHEMBL3691953
     RDKit          3D

  0  0  0  0  0  0  0  0  0  0999 V3000
M  V30 BEGIN CTAB
M  V30 COUNTS 58 62 0 0 0
M  V30 BEGIN ATOM
M  V30 1 C 1.545713 -4.017007 1.339549 0
M  V30 2 C 0.873791 -2.730523 0.980850 0 CFG=1
M  V30 3 C 1.511151 -1.537781 1.648761 0
M  V30 4 C 2.035542 -0.553688 0.621319 0 CFG=1
M  V30 5 C 2.745512 0.541393 1.304659 0
M  V30 6 C 4.110426 0.370685 1.445105 0
M  V30 7 C 4.942565 1.299914 2.056762 0
M  V30 8 N 4.343180 2.421766 2.527961 0
M  V30 9 C 3.015518 2.566769 2.380748 0
M  V30 10 C 2.150613 1.681197 1.786010 0
M  V30 11 N 0.754722 1.846997 1.641223 0
M  V30 12 C -0.085857 2.912835 2.039227 0
M  V30 13 O 0.433448 3.897553 2.618773 0
M  V30 14 C -1.525858 2.934964 1.815068 0
M  V30 15 C -2.289108 4.058088 2.255049 0
M  V30 16 S -3.972675 3.614999 1.756634 0
M  V30 17 C -3.379442 1.970650 1.026597 0
M  V30 18 C -4.327495 1.015319 0.390623 0
M  V30 19 C -3.815814 -0.154149 -0.114526 0
M  V30 20 F -2.482454 -0.359252 0.000567 0
M  V30 21 C -4.692202 -1.017641 -0.692802 0
M  V30 22 C -6.044880 -0.745658 -0.777225 0
M  V30 23 C -6.555382 0.437373 -0.265023 0
M  V30 24 C -5.669693 1.329496 0.329181 0
M  V30 25 F -6.151668 2.502214 0.841158 0
M  V30 26 N -2.247178 2.002859 1.228165 0
M  V30 27 C 2.934762 -1.360242 -0.296863 0
M  V30 28 C 2.029027 -2.181567 -1.189677 0 CFG=1
M  V30 29 N 2.746815 -3.390597 -1.516158 0
M  V30 30 C 0.729232 -2.486616 -0.490655 0 CFG=1
M  V30 31 N 0.064916 -3.598404 -1.142194 0
M  V30 32 C 0.154695 -4.107355 -2.386077 0
M  V30 33 C -0.690520 -5.187103 -2.539409 0
M  V30 34 N -1.290536 -5.307056 -1.341886 0
M  V30 35 N -0.835089 -4.365896 -0.533208 0
M  V30 36 H 2.638445 -4.033921 1.193106 0
M  V30 37 H 1.089167 -4.838503 0.779217 0
M  V30 38 H 1.344853 -4.211108 2.414291 0
M  V30 39 H -0.178889 -2.812012 1.381788 0
M  V30 40 H 2.404346 -1.887826 2.210955 0
M  V30 41 H 0.835799 -1.059067 2.387109 0
M  V30 42 H 1.263446 -0.118642 -0.023221 0
M  V30 43 H 4.649611 -0.488984 1.096928 0
M  V30 44 H 6.003738 1.176218 2.170587 0
M  V30 45 H 2.649608 3.491609 2.790646 0
M  V30 46 H 0.201390 1.095230 1.175837 0
M  V30 47 H -2.006798 4.990186 2.769997 0
M  V30 48 H -4.275014 -1.937975 -1.088009 0
M  V30 49 H -6.742301 -1.443095 -1.242599 0
M  V30 50 H -7.618407 0.702184 -0.305879 0
M  V30 51 H 3.576189 -2.011700 0.310575 0
M  V30 52 H 3.545583 -0.655985 -0.875365 0
M  V30 53 H 1.811580 -1.619490 -2.101569 0
M  V30 54 H 2.310670 -4.263961 -1.204065 0
M  V30 55 H 3.100757 -3.356695 -2.478086 0
M  V30 56 H 0.020343 -1.625465 -0.599541 0
M  V30 57 H 0.817895 -3.691069 -3.137245 0
M  V30 58 H -0.763181 -5.742320 -3.486479 0
M  V30 END ATOM
M  V30 BEGIN BOND
M  V30 1 1 1 2
M  V30 2 1 2 3
M  V30 3 1 3 4
M  V30 4 1 4 5
M  V30 5 2 5 6
M  V30 6 1 6 7
M  V30 7 2 7 8
M  V30 8 1 8 9
M  V30 9 2 9 10
M  V30 10 1 10 11
M  V30 11 1 11 12
M  V30 12 2 12 13
M  V30 13 1 12 14
M  V30 14 2 14 15
M  V30 15 1 15 16
M  V30 16 1 16 17
M  V30 17 1 17 18
M  V30 18 2 18 19
M  V30 19 1 19 20
M  V30 20 1 19 21
M  V30 21 2 21 22
M  V30 22 1 22 23
M  V30 23 2 23 24
M  V30 24 1 24 25
M  V30 25 2 17 26
M  V30 26 1 4 27
M  V30 27 1 27 28
M  V30 28 1 28 29
M  V30 29 1 28 30
M  V30 30 1 30 31
M  V30 31 1 31 32
M  V30 32 2 32 33
M  V30 33 1 33 34
M  V30 34 2 34 35
M  V30 35 1 30 2
M  V30 36 1 35 31
M  V30 37 1 10 5
M  V30 38 1 26 14
M  V30 39 1 24 18
M  V30 40 1 1 36
M  V30 41 1 1 37
M  V30 42 1 1 38
M  V30 43 1 2 39 CFG=1
M  V30 44 1 3 40
M  V30 45 1 3 41
M  V30 46 1 4 42 CFG=3
M  V30 47 1 6 43
M  V30 48 1 7 44
M  V30 49 1 9 45
M  V30 50 1 11 46
M  V30 51 1 15 47
M  V30 52 1 21 48
M  V30 53 1 22 49
M  V30 54 1 23 50
M  V30 55 1 27 51
M  V30 56 1 27 52
M  V30 57 1 28 53 CFG=3
M  V30 58 1 29 54
M  V30 59 1 29 55
M  V30 60 1 30 56 CFG=1
M  V30 61 1 32 57
M  V30 62 1 33 58
M  V30 END BOND
M  V30 END CTAB
M  END
>  <Dataset>  (490) 
ChEMBL_Kinases

>  <Ligand_Instance>  (490) 
nan

>  <PDB_ID>  (490) 
nan

>  <Standardized_SMILES>  (490) 
C[C@H]1C[C@@H](c2ccncc2NC(=O)c2csc(-c3c(F)cccc3F)n2)C[C@@H](N)[C@H]1n1ccnn1

>  <Name>  (490) 
nan

>  <Pocket>  (490) 
nan

>  <ATP_Site>  (490) 
nan

>  <Peripheral>  (490) 
nan

>  <Num_H_Atoms_ProtBoundConf>  (490) 
nan

>  <Num_Resolved_Atoms>  (490) 
nan

>  <Num_Not_Resolved_Atoms>  (490) 
nan

$$$$
CHEMBL3691952
     RDKit          3D

  0  0  0  0  0  0  0  0  0  0999 V3000
M  V30 BEGIN CTAB
M  V30 COUNTS 72 76 0 0 0
M  V30 BEGIN ATOM
M  V30 1 C 0.678050 -5.915158 3.261225 0
M  V30 2 O 1.917972 -5.254416 3.282753 0
M  V30 3 C 2.953547 -6.092515 2.974683 0
M  V30 4 C 4.276577 -5.409373 2.993394 0
M  V30 5 O 4.498727 -4.367133 2.156629 0
M  V30 6 C 4.041883 -3.142877 1.915242 0
M  V30 7 C 4.780093 -2.636683 0.829424 0
M  V30 8 C 4.560772 -1.354498 0.302054 0
M  V30 9 F 5.206786 -0.775794 -0.728008 0
M  V30 10 C 3.565805 -0.577733 0.899896 0
M  V30 11 C 3.276484 0.773217 0.401076 0
M  V30 12 N 2.318090 0.683828 -0.552709 0
M  V30 13 C 1.865741 1.808077 -1.183917 0
M  V30 14 C 0.838824 1.823859 -2.220946 0
M  V30 15 O 0.422572 2.856994 -2.806196 0
M  V30 16 N 0.310378 0.516371 -2.542947 0
M  V30 17 C -0.643264 -0.070907 -3.406801 0
M  V30 18 C -0.073618 -0.336349 -4.653631 0
M  V30 19 N -0.800958 -0.912338 -5.650078 0
M  V30 20 C -2.084894 -1.212947 -5.383284 0
M  V30 21 C -2.615152 -0.936951 -4.140163 0
M  V30 22 C -1.916628 -0.345072 -3.072817 0
M  V30 23 C -2.555554 -0.109829 -1.810652 0 CFG=1
M  V30 24 C -2.480304 -1.156954 -0.747648 0
M  V30 25 C -3.274048 -0.677743 0.449211 0 CFG=1
M  V30 26 N -2.416801 -0.360842 1.572264 0
M  V30 27 C -4.167402 0.490054 0.176760 0 CFG=1
M  V30 28 N -4.714554 0.947991 1.453727 0
M  V30 29 C -5.943012 1.323163 1.890541 0
M  V30 30 C -5.831143 1.663579 3.240566 0
M  V30 31 N -4.538930 1.480812 3.567805 0
M  V30 32 N -3.882528 1.056136 2.501983 0
M  V30 33 C -3.453378 1.692004 -0.406261 0 CFG=1
M  V30 34 C -3.027226 2.661408 0.670211 0
M  V30 35 C -2.232400 1.238505 -1.213786 0
M  V30 36 C 2.375165 3.048382 -0.862220 0
M  V30 37 C 3.354634 3.117672 0.115915 0
M  V30 38 C 3.815127 1.989049 0.756221 0
M  V30 39 F 4.744522 1.887445 1.710565 0
M  V30 40 C 2.822496 -1.023446 1.955960 0
M  V30 41 F 1.848422 -0.331249 2.582664 0
M  V30 42 C 3.098882 -2.275325 2.404926 0
M  V30 43 H -0.129321 -5.213341 3.512158 0
M  V30 44 H 0.515722 -6.295078 2.225688 0
M  V30 45 H 0.757294 -6.772000 3.957098 0
M  V30 46 H 2.949137 -6.941635 3.721852 0
M  V30 47 H 2.727516 -6.580954 2.001970 0
M  V30 48 H 5.063657 -6.211855 2.818237 0
M  V30 49 H 4.474602 -5.056551 4.050821 0
M  V30 50 H 5.588727 -3.093343 0.239778 0
M  V30 51 H 0.664574 -0.360207 -2.048277 0
M  V30 52 H 0.944288 -0.129971 -4.956216 0
M  V30 53 H -2.682681 -1.670760 -6.158214 0
M  V30 54 H -3.659967 -1.216916 -4.022657 0
M  V30 55 H -3.669734 -0.039305 -2.043730 0
M  V30 56 H -2.938274 -2.080103 -1.102427 0
M  V30 57 H -1.428221 -1.256714 -0.413254 0
M  V30 58 H -3.961114 -1.493242 0.824270 0
M  V30 59 H -1.406806 -0.340523 1.299398 0
M  V30 60 H -2.484383 -1.055630 2.347317 0
M  V30 61 H -5.059632 0.236072 -0.438098 0
M  V30 62 H -6.767529 1.306543 1.189452 0
M  V30 63 H -6.687824 1.996878 3.810985 0
M  V30 64 H -4.182152 2.218356 -1.055029 0
M  V30 65 H -2.579768 3.535182 0.128728 0
M  V30 66 H -2.214958 2.278912 1.310129 0
M  V30 67 H -3.891364 3.056319 1.204758 0
M  V30 68 H -2.037802 1.977307 -1.998532 0
M  V30 69 H -1.351306 1.199030 -0.541272 0
M  V30 70 H 2.032171 3.951825 -1.348823 0
M  V30 71 H 3.811921 4.038609 0.434431 0
M  V30 72 H 2.565741 -2.687450 3.236459 0
M  V30 END ATOM
M  V30 BEGIN BOND
M  V30 1 1 1 2
M  V30 2 1 2 3
M  V30 3 1 3 4
M  V30 4 1 4 5
M  V30 5 1 5 6
M  V30 6 2 6 7
M  V30 7 1 7 8
M  V30 8 1 8 9
M  V30 9 2 8 10
M  V30 10 1 10 11
M  V30 11 2 11 12
M  V30 12 1 12 13
M  V30 13 1 13 14
M  V30 14 2 14 15
M  V30 15 1 14 16
M  V30 16 1 16 17
M  V30 17 2 17 18
M  V30 18 1 18 19
M  V30 19 2 19 20
M  V30 20 1 20 21
M  V30 21 2 21 22
M  V30 22 1 22 23
M  V30 23 1 23 24
M  V30 24 1 24 25
M  V30 25 1 25 26
M  V30 26 1 25 27
M  V30 27 1 27 28
M  V30 28 1 28 29
M  V30 29 2 29 30
M  V30 30 1 30 31
M  V30 31 2 31 32
M  V30 32 1 27 33
M  V30 33 1 33 34
M  V30 34 1 33 35
M  V30 35 2 13 36
M  V30 36 1 36 37
M  V30 37 2 37 38
M  V30 38 1 38 39
M  V30 39 1 10 40
M  V30 40 1 40 41
M  V30 41 2 40 42
M  V30 42 1 42 6
M  V30 43 1 38 11
M  V30 44 1 22 17
M  V30 45 1 35 23
M  V30 46 1 32 28
M  V30 47 1 1 43
M  V30 48 1 1 44
M  V30 49 1 1 45
M  V30 50 1 3 46
M  V30 51 1 3 47
M  V30 52 1 4 48
M  V30 53 1 4 49
M  V30 54 1 7 50
M  V30 55 1 16 51
M  V30 56 1 18 52
M  V30 57 1 20 53
M  V30 58 1 21 54
M  V30 59 1 23 55 CFG=3
M  V30 60 1 24 56
M  V30 61 1 24 57
M  V30 62 1 25 58 CFG=1
M  V30 63 1 26 59
M  V30 64 1 26 60
M  V30 65 1 27 61 CFG=3
M  V30 66 1 29 62
M  V30 67 1 30 63
M  V30 68 1 33 64 CFG=3
M  V30 69 1 34 65
M  V30 70 1 34 66
M  V30 71 1 34 67
M  V30 72 1 35 68
M  V30 73 1 35 69
M  V30 74 1 36 70
M  V30 75 1 37 71
M  V30 76 1 42 72
M  V30 END BOND
M  V30 END CTAB
M  END
>  <Dataset>  (491) 
ChEMBL_Kinases

>  <Ligand_Instance>  (491) 
nan

>  <PDB_ID>  (491) 
nan

>  <Standardized_SMILES>  (491) 
COCCOc1cc(F)c(-c2nc(C(=O)Nc3cnccc3[C@H]3C[C@@H](N)[C@@H](n4ccnn4)[C@@H](C)C3)ccc2F)c(F)c1

>  <Name>  (491) 
nan

>  <Pocket>  (491) 
nan

>  <ATP_Site>  (491) 
nan

>  <Peripheral>  (491) 
nan

>  <Num_H_Atoms_ProtBoundConf>  (491) 
nan

>  <Num_Resolved_Atoms>  (491) 
nan

>  <Num_Not_Resolved_Atoms>  (491) 
nan

$$$$
CHEMBL3691951
     RDKit          3D

  0  0  0  0  0  0  0  0  0  0999 V3000
M  V30 BEGIN CTAB
M  V30 COUNTS 74 78 0 0 0
M  V30 BEGIN ATOM
M  V30 1 C 2.462121 -3.256181 4.301893 0
M  V30 2 O 1.949958 -4.301709 3.492375 0
M  V30 3 C 1.346161 -3.995770 2.297352 0
M  V30 4 O 1.429767 -2.722450 2.257106 0
M  V30 5 N 0.791083 -4.951318 1.392275 0
M  V30 6 C 0.172119 -4.551934 0.154078 0 CFG=2
M  V30 7 C -1.319940 -4.747165 0.134377 0 CFG=2
M  V30 8 N -1.772528 -6.037423 -0.245689 0
M  V30 9 C -1.919294 -3.756442 -0.838110 0
M  V30 10 C -0.986298 -3.536711 -1.979653 0 CFG=2
M  V30 11 C -1.722633 -3.195245 -3.223772 0
M  V30 12 C -2.190217 -4.104018 -4.148405 0
M  V30 13 C -2.868124 -3.751348 -5.287132 0
M  V30 14 N -3.103653 -2.454751 -5.540856 0
M  V30 15 C -2.678062 -1.499515 -4.683835 0
M  V30 16 C -1.992166 -1.856693 -3.531786 0
M  V30 17 N -1.548717 -0.819051 -2.635286 0
M  V30 18 C -0.242475 -0.409475 -3.019634 0
M  V30 19 O 0.188322 -1.038619 -4.019578 0
M  V30 20 C 0.531932 0.623569 -2.344591 0
M  V30 21 C 1.785858 0.902860 -2.845027 0
M  V30 22 C 2.613536 1.858169 -2.294199 0
M  V30 23 C 2.207018 2.588438 -1.193782 0
M  V30 24 F 2.940855 3.547651 -0.577062 0
M  V30 25 C 0.947960 2.282859 -0.720038 0
M  V30 26 C 0.462468 3.019927 0.439991 0
M  V30 27 C 0.700896 2.553412 1.714027 0
M  V30 28 F 1.394156 1.396552 1.885969 0
M  V30 29 C 0.274052 3.195812 2.846618 0
M  V30 30 C -0.434297 4.372563 2.760434 0
M  V30 31 C -1.000786 5.247997 3.810196 0
M  V30 32 O -2.243453 5.817547 3.450914 0
M  V30 33 C -0.042033 6.326940 4.296447 0
M  V30 34 C 0.250577 5.469623 5.534735 0
M  V30 35 C -1.016654 4.697368 5.207493 0
M  V30 36 C -0.685285 4.860599 1.472364 0
M  V30 37 C -0.246040 4.197832 0.340311 0
M  V30 38 F -0.479108 4.654251 -0.913522 0
M  V30 39 N 0.137308 1.335810 -1.272578 0
M  V30 40 C -0.128891 -4.750653 -2.237425 0
M  V30 41 C 0.853840 -4.988199 -1.090666 0 CFG=2
M  V30 42 C 1.285342 -6.421867 -1.120018 0
M  V30 43 H 3.083897 -2.585292 3.700391 0
M  V30 44 H 1.556066 -2.647137 4.591405 0
M  V30 45 H 2.925182 -3.632609 5.226999 0
M  V30 46 H 0.903479 -5.925675 1.758387 0
M  V30 47 H 0.264452 -3.438639 0.147463 0
M  V30 48 H -1.716648 -4.514512 1.144431 0
M  V30 49 H -1.871337 -6.716364 0.541621 0
M  V30 50 H -2.619859 -6.074676 -0.843060 0
M  V30 51 H -2.918585 -4.071679 -1.218581 0
M  V30 52 H -2.101316 -2.799266 -0.284811 0
M  V30 53 H -0.374101 -2.639221 -1.723623 0
M  V30 54 H -2.010067 -5.140977 -3.959805 0
M  V30 55 H -3.215141 -4.516446 -5.984261 0
M  V30 56 H -2.854819 -0.439463 -4.863939 0
M  V30 57 H -1.993608 -0.339767 -1.796952 0
M  V30 58 H 2.169915 0.371994 -3.702713 0
M  V30 59 H 3.609881 2.094931 -2.675125 0
M  V30 60 H 0.431969 2.879891 3.861707 0
M  V30 61 H -2.501931 6.409118 4.212044 0
M  V30 62 H -0.523985 7.281455 4.590653 0
M  V30 63 H 0.839820 6.394654 3.630809 0
M  V30 64 H 1.189444 4.896688 5.437346 0
M  V30 65 H 0.150330 6.028245 6.483502 0
M  V30 66 H -1.903363 5.029979 5.799913 0
M  V30 67 H -0.850230 3.613580 5.240593 0
M  V30 68 H -1.227899 5.771279 1.250213 0
M  V30 69 H 0.407085 -4.578925 -3.203735 0
M  V30 70 H -0.806489 -5.614722 -2.382476 0
M  V30 71 H 1.728808 -4.367551 -1.283385 0
M  V30 72 H 2.025567 -6.623376 -0.317784 0
M  V30 73 H 0.467084 -7.160500 -1.151570 0
M  V30 74 H 1.867936 -6.563462 -2.060504 0
M  V30 END ATOM
M  V30 BEGIN BOND
M  V30 1 1 1 2
M  V30 2 1 2 3
M  V30 3 2 3 4
M  V30 4 1 3 5
M  V30 5 1 5 6
M  V30 6 1 6 7
M  V30 7 1 7 8
M  V30 8 1 7 9
M  V30 9 1 9 10
M  V30 10 1 10 11
M  V30 11 2 11 12
M  V30 12 1 12 13
M  V30 13 2 13 14
M  V30 14 1 14 15
M  V30 15 2 15 16
M  V30 16 1 16 17
M  V30 17 1 17 18
M  V30 18 2 18 19
M  V30 19 1 18 20
M  V30 20 2 20 21
M  V30 21 1 21 22
M  V30 22 2 22 23
M  V30 23 1 23 24
M  V30 24 1 23 25
M  V30 25 1 25 26
M  V30 26 2 26 27
M  V30 27 1 27 28
M  V30 28 1 27 29
M  V30 29 2 29 30
M  V30 30 1 30 31
M  V30 31 1 31 32
M  V30 32 1 31 33
M  V30 33 1 33 34
M  V30 34 1 34 35
M  V30 35 1 30 36
M  V30 36 2 36 37
M  V30 37 1 37 38
M  V30 38 2 25 39
M  V30 39 1 10 40
M  V30 40 1 40 41
M  V30 41 1 41 42
M  V30 42 1 41 6
M  V30 43 1 16 11
M  V30 44 1 39 20
M  V30 45 1 37 26
M  V30 46 1 35 31
M  V30 47 1 1 43
M  V30 48 1 1 44
M  V30 49 1 1 45
M  V30 50 1 5 46
M  V30 51 1 6 47 CFG=1
M  V30 52 1 7 48 CFG=1
M  V30 53 1 8 49
M  V30 54 1 8 50
M  V30 55 1 9 51
M  V30 56 1 9 52
M  V30 57 1 10 53 CFG=1
M  V30 58 1 12 54
M  V30 59 1 13 55
M  V30 60 1 15 56
M  V30 61 1 17 57
M  V30 62 1 21 58
M  V30 63 1 22 59
M  V30 64 1 29 60
M  V30 65 1 32 61
M  V30 66 1 33 62
M  V30 67 1 33 63
M  V30 68 1 34 64
M  V30 69 1 34 65
M  V30 70 1 35 66
M  V30 71 1 35 67
M  V30 72 1 36 68
M  V30 73 1 40 69
M  V30 74 1 40 70
M  V30 75 1 41 71 CFG=3
M  V30 76 1 42 72
M  V30 77 1 42 73
M  V30 78 1 42 74
M  V30 END BOND
M  V30 END CTAB
M  END
>  <Dataset>  (492) 
ChEMBL_Kinases

>  <Ligand_Instance>  (492) 
nan

>  <PDB_ID>  (492) 
nan

>  <Standardized_SMILES>  (492) 
COC(=O)N[C@@H]1[C@H](N)C[C@H](c2ccncc2NC(=O)c2ccc(F)c(-c3c(F)cc(C4(O)CCC4)cc3F)n2)C[C@@H]1C

>  <Name>  (492) 
nan

>  <Pocket>  (492) 
nan

>  <ATP_Site>  (492) 
nan

>  <Peripheral>  (492) 
nan

>  <Num_H_Atoms_ProtBoundConf>  (492) 
nan

>  <Num_Resolved_Atoms>  (492) 
nan

>  <Num_Not_Resolved_Atoms>  (492) 
nan

$$$$
CHEMBL3691950
     RDKit          3D

  0  0  0  0  0  0  0  0  0  0999 V3000
M  V30 BEGIN CTAB
M  V30 COUNTS 65 68 0 0 0
M  V30 BEGIN ATOM
M  V30 1 C 3.227665 -1.344703 3.501222 0
M  V30 2 C 2.116136 -0.770899 2.669023 0 CFG=1
M  V30 3 C 2.490727 -0.688794 1.211584 0
M  V30 4 C 1.819340 -1.741298 0.394778 0 CFG=1
M  V30 5 C 2.336728 -1.815183 -0.970753 0
M  V30 6 C 3.428511 -2.670426 -1.125361 0
M  V30 7 C 4.005171 -2.818666 -2.387648 0
M  V30 8 N 3.508384 -2.137624 -3.452899 0
M  V30 9 C 2.453314 -1.322424 -3.259604 0
M  V30 10 C 1.840556 -1.128402 -2.060335 0
M  V30 11 N 0.726014 -0.270834 -1.856188 0
M  V30 12 C 0.572525 1.102803 -1.523516 0
M  V30 13 O 1.524995 1.899888 -1.327278 0
M  V30 14 C -0.793967 1.596058 -1.408083 0
M  V30 15 N -1.875455 0.830054 -1.598886 0
M  V30 16 C -3.129464 1.298682 -1.489223 0
M  V30 17 C -4.159862 0.276811 -1.742498 0
M  V30 18 C -4.635132 0.092951 -3.040927 0
M  V30 19 F -4.117012 0.872067 -4.003067 0
M  V30 20 C -5.601757 -0.863161 -3.289739 0
M  V30 21 C -6.116169 -1.644988 -2.300252 0
M  V30 22 C -5.647451 -1.466598 -1.007632 0
M  V30 23 C -4.671364 -0.506868 -0.732886 0
M  V30 24 F -4.222945 -0.345016 0.539848 0
M  V30 25 C -3.334658 2.622314 -1.167167 0
M  V30 26 F -4.631875 2.991484 -1.081959 0
M  V30 27 C -2.232495 3.418067 -0.969025 0
M  V30 28 C -0.948404 2.923583 -1.084866 0
M  V30 29 N 0.135907 3.818954 -0.862391 0
M  V30 30 C 1.899825 -3.035064 1.164058 0
M  V30 31 C 0.871747 -2.907426 2.287067 0 CFG=1
M  V30 32 N 1.198976 -3.834228 3.338065 0
M  V30 33 C 0.818094 -1.488007 2.829298 0 CFG=1
M  V30 34 O 0.414716 -1.593127 4.152544 0
M  V30 35 C -0.795188 -0.961372 4.364704 0
M  V30 36 C -0.819655 0.505570 4.105603 0
M  V30 37 C 0.112450 1.254862 4.950808 0
M  V30 38 N 0.843831 1.855608 5.624344 0
M  V30 39 H 2.985681 -2.343424 3.914422 0
M  V30 40 H 4.177045 -1.479985 2.914922 0
M  V30 41 H 3.516519 -0.702405 4.358507 0
M  V30 42 H 1.985117 0.274668 3.009894 0
M  V30 43 H 2.280906 0.307016 0.775800 0
M  V30 44 H 3.592834 -0.825345 1.165934 0
M  V30 45 H 0.726115 -1.507041 0.308905 0
M  V30 46 H 3.881144 -3.249888 -0.314653 0
M  V30 47 H 4.863715 -3.493584 -2.499577 0
M  V30 48 H 2.098261 -0.808815 -4.125734 0
M  V30 49 H -0.105804 -0.893273 -2.010046 0
M  V30 50 H -5.937092 -0.971009 -4.295799 0
M  V30 51 H -6.875200 -2.391782 -2.511852 0
M  V30 52 H -6.069457 -2.102869 -0.217404 0
M  V30 53 H -2.445924 4.459022 -0.715935 0
M  V30 54 H 0.055974 4.617705 -1.558021 0
M  V30 55 H 0.953363 3.886716 -0.217700 0
M  V30 56 H 1.705848 -3.917573 0.539453 0
M  V30 57 H 2.902205 -3.161936 1.622528 0
M  V30 58 H -0.157718 -3.150922 1.937254 0
M  V30 59 H 0.934253 -4.802683 3.119486 0
M  V30 60 H 0.912642 -3.511280 4.287152 0
M  V30 61 H 0.029951 -0.894598 2.300566 0
M  V30 62 H -1.245423 -1.206053 5.345318 0
M  V30 63 H -1.503000 -1.419934 3.610857 0
M  V30 64 H -0.699387 0.824578 3.071393 0
M  V30 65 H -1.856387 0.852239 4.398357 0
M  V30 END ATOM
M  V30 BEGIN BOND
M  V30 1 1 1 2
M  V30 2 1 2 3
M  V30 3 1 3 4
M  V30 4 1 4 5
M  V30 5 2 5 6
M  V30 6 1 6 7
M  V30 7 2 7 8
M  V30 8 1 8 9
M  V30 9 2 9 10
M  V30 10 1 10 11
M  V30 11 1 11 12
M  V30 12 2 12 13
M  V30 13 1 12 14
M  V30 14 2 14 15
M  V30 15 1 15 16
M  V30 16 1 16 17
M  V30 17 2 17 18
M  V30 18 1 18 19
M  V30 19 1 18 20
M  V30 20 2 20 21
M  V30 21 1 21 22
M  V30 22 2 22 23
M  V30 23 1 23 24
M  V30 24 2 16 25
M  V30 25 1 25 26
M  V30 26 1 25 27
M  V30 27 2 27 28
M  V30 28 1 28 29
M  V30 29 1 4 30
M  V30 30 1 30 31
M  V30 31 1 31 32
M  V30 32 1 31 33
M  V30 33 1 33 34
M  V30 34 1 34 35
M  V30 35 1 35 36
M  V30 36 1 36 37
M  V30 37 3 37 38
M  V30 38 1 33 2
M  V30 39 1 10 5
M  V30 40 1 28 14
M  V30 41 1 23 17
M  V30 42 1 1 39
M  V30 43 1 1 40
M  V30 44 1 1 41
M  V30 45 1 2 42 CFG=1
M  V30 46 1 3 43
M  V30 47 1 3 44
M  V30 48 1 4 45 CFG=3
M  V30 49 1 6 46
M  V30 50 1 7 47
M  V30 51 1 9 48
M  V30 52 1 11 49
M  V30 53 1 20 50
M  V30 54 1 21 51
M  V30 55 1 22 52
M  V30 56 1 27 53
M  V30 57 1 29 54
M  V30 58 1 29 55
M  V30 59 1 30 56
M  V30 60 1 30 57
M  V30 61 1 31 58 CFG=3
M  V30 62 1 32 59
M  V30 63 1 32 60
M  V30 64 1 33 61 CFG=3
M  V30 65 1 35 62
M  V30 66 1 35 63
M  V30 67 1 36 64
M  V30 68 1 36 65
M  V30 END BOND
M  V30 END CTAB
M  END
>  <Dataset>  (493) 
ChEMBL_Kinases

>  <Ligand_Instance>  (493) 
nan

>  <PDB_ID>  (493) 
nan

>  <Standardized_SMILES>  (493) 
C[C@H]1C[C@@H](c2ccncc2NC(=O)c2nc(-c3c(F)cccc3F)c(F)cc2N)C[C@@H](N)[C@H]1OCCC#N

>  <Name>  (493) 
nan

>  <Pocket>  (493) 
nan

>  <ATP_Site>  (493) 
nan

>  <Peripheral>  (493) 
nan

>  <Num_H_Atoms_ProtBoundConf>  (493) 
nan

>  <Num_Resolved_Atoms>  (493) 
nan

>  <Num_Not_Resolved_Atoms>  (493) 
nan

$$$$
CHEMBL2408788
     RDKit          3D

  0  0  0  0  0  0  0  0  0  0999 V3000
M  V30 BEGIN CTAB
M  V30 COUNTS 45 48 0 0 0
M  V30 BEGIN ATOM
M  V30 1 C -3.033946 -6.855073 0.961545 0
M  V30 2 C -3.274822 -5.512259 0.397359 0
M  V30 3 C -2.221128 -4.764593 -0.116050 0
M  V30 4 C -2.338598 -3.485933 -0.672054 0
M  V30 5 C -1.149142 -2.809562 -1.176139 0
M  V30 6 N -0.152215 -3.284790 -1.940849 0
M  V30 7 N 0.736838 -2.330766 -2.170367 0
M  V30 8 C 0.330718 -1.206198 -1.553135 0
M  V30 9 C 0.954410 0.017379 -1.532131 0
M  V30 10 C 0.328189 1.016362 -0.821764 0
M  V30 11 N 0.752816 2.376942 -0.634247 0
M  V30 12 C 1.579463 2.737293 0.462348 0
M  V30 13 O 1.902139 1.800998 1.234686 0
M  V30 14 N 2.030713 4.049150 0.704452 0
M  V30 15 C 2.876161 4.453110 1.814616 0
M  V30 16 C 3.195808 3.263185 2.662352 0
M  V30 17 C 2.312951 3.000477 3.697348 0
M  V30 18 C 2.451366 1.941212 4.581963 0
M  V30 19 C 3.552518 1.096936 4.405946 0
M  V30 20 C 4.434022 1.356104 3.375522 0
M  V30 21 C 4.275582 2.417631 2.506561 0
M  V30 22 N -0.832169 0.790744 -0.187413 0
M  V30 23 C -1.420301 -0.428619 -0.228744 0
M  V30 24 C -0.853120 -1.484982 -0.921908 0
M  V30 25 C -3.619896 -2.980721 -0.684564 0
M  V30 26 C -4.648179 -3.736451 -0.171786 0
M  V30 27 N -4.511478 -4.948556 0.351026 0
M  V30 28 H -3.005549 -7.557718 0.118489 0
M  V30 29 H -3.794583 -7.079805 1.729880 0
M  V30 30 H -2.041533 -6.927381 1.468302 0
M  V30 31 H -1.226318 -5.210894 -0.082007 0
M  V30 32 H 1.588702 -2.467537 -2.735370 0
M  V30 33 H 1.863938 0.313735 -1.990114 0
M  V30 34 H 0.447004 3.101567 -1.314200 0
M  V30 35 H 1.736125 4.786835 0.036816 0
M  V30 36 H 3.867642 4.827563 1.458062 0
M  V30 37 H 2.408671 5.229761 2.452412 0
M  V30 38 H 1.451954 3.630551 3.863585 0
M  V30 39 H 1.724564 1.780594 5.381070 0
M  V30 40 H 3.688109 0.259132 5.082396 0
M  V30 41 H 5.282098 0.705377 3.240424 0
M  V30 42 H 4.943313 2.653813 1.688100 0
M  V30 43 H -2.367782 -0.617980 0.287548 0
M  V30 44 H -3.754393 -2.002198 -1.102575 0
M  V30 45 H -5.641829 -3.287440 -0.207247 0
M  V30 END ATOM
M  V30 BEGIN BOND
M  V30 1 1 1 2
M  V30 2 2 2 3
M  V30 3 1 3 4
M  V30 4 1 4 5
M  V30 5 2 5 6
M  V30 6 1 6 7
M  V30 7 1 7 8
M  V30 8 2 8 9
M  V30 9 1 9 10
M  V30 10 1 10 11
M  V30 11 1 11 12
M  V30 12 2 12 13
M  V30 13 1 12 14
M  V30 14 1 14 15
M  V30 15 1 15 16
M  V30 16 2 16 17
M  V30 17 1 17 18
M  V30 18 2 18 19
M  V30 19 1 19 20
M  V30 20 2 20 21
M  V30 21 2 10 22
M  V30 22 1 22 23
M  V30 23 2 23 24
M  V30 24 2 4 25
M  V30 25 1 25 26
M  V30 26 2 26 27
M  V30 27 1 27 2
M  V30 28 1 24 5
M  V30 29 1 24 8
M  V30 30 1 21 16
M  V30 31 1 1 28
M  V30 32 1 1 29
M  V30 33 1 1 30
M  V30 34 1 3 31
M  V30 35 1 7 32
M  V30 36 1 9 33
M  V30 37 1 11 34
M  V30 38 1 14 35
M  V30 39 1 15 36
M  V30 40 1 15 37
M  V30 41 1 17 38
M  V30 42 1 18 39
M  V30 43 1 19 40
M  V30 44 1 20 41
M  V30 45 1 21 42
M  V30 46 1 23 43
M  V30 47 1 25 44
M  V30 48 1 26 45
M  V30 END BOND
M  V30 END CTAB
M  END
>  <Dataset>  (494) 
ChEMBL_Kinases

>  <Ligand_Instance>  (494) 
nan

>  <PDB_ID>  (494) 
nan

>  <Standardized_SMILES>  (494) 
Cc1cc(-c2n[nH]c3cc(NC(=O)NCc4ccccc4)ncc23)ccn1

>  <Name>  (494) 
nan

>  <Pocket>  (494) 
nan

>  <ATP_Site>  (494) 
nan

>  <Peripheral>  (494) 
nan

>  <Num_H_Atoms_ProtBoundConf>  (494) 
nan

>  <Num_Resolved_Atoms>  (494) 
nan

>  <Num_Not_Resolved_Atoms>  (494) 
nan

$$$$
CHEMBL3702116
     RDKit          3D

  0  0  0  0  0  0  0  0  0  0999 V3000
M  V30 BEGIN CTAB
M  V30 COUNTS 61 66 0 0 0
M  V30 BEGIN ATOM
M  V30 1 O 2.471071 -6.458653 -0.623720 0
M  V30 2 C 3.472988 -5.558934 -0.295044 0
M  V30 3 N 4.654987 -6.009139 0.155717 0
M  V30 4 C 5.669586 -5.178560 0.492102 0
M  V30 5 C 5.498585 -3.816000 0.373003 0
M  V30 6 C 4.275283 -3.339558 -0.093961 0
M  V30 7 C 3.822326 -2.048320 -0.313548 0
M  V30 8 C 4.483051 -0.852174 -0.119449 0
M  V30 9 N 3.808664 0.294819 -0.412121 0
M  V30 10 C 2.527887 0.199701 -0.877500 0
M  V30 11 N 1.721112 1.342566 -1.208514 0
M  V30 12 C 0.754115 1.939378 -0.318135 0
M  V30 13 C -0.016889 3.041897 -0.602663 0
M  V30 14 C -0.893659 3.447660 0.381366 0
M  V30 15 C -1.001128 2.791231 1.590597 0
M  V30 16 C -1.931283 3.214998 2.644048 0
M  V30 17 N -3.234809 2.602702 2.528364 0
M  V30 18 C -3.201906 1.155600 2.579795 0
M  V30 19 C -4.579356 0.635052 2.856227 0
M  V30 20 N -5.620583 1.553445 2.436674 0
M  V30 21 C -5.587353 2.818176 3.101280 0
M  V30 22 C -4.181240 3.153640 3.475679 0
M  V30 23 C -0.200449 1.670072 1.850303 0
M  V30 24 N 0.636820 1.314276 0.861722 0
M  V30 25 N 1.933305 -0.999199 -1.047231 0
M  V30 26 C 2.530574 -2.177894 -0.781166 0
M  V30 27 N 2.172447 -3.476786 -0.857786 0
M  V30 28 C 0.898663 -3.957665 -1.299036 0
M  V30 29 C 0.703107 -3.832841 -2.787237 0
M  V30 30 C -0.793765 -4.085808 -2.938174 0
M  V30 31 C -1.404474 -3.702336 -1.603058 0
M  V30 32 C -0.256420 -3.140520 -0.764436 0
M  V30 33 C 3.227091 -4.198572 -0.441566 0
M  V30 34 H 1.881594 -6.913625 0.073671 0
M  V30 35 H 6.566972 -5.671599 0.840969 0
M  V30 36 H 6.316668 -3.171905 0.644969 0
M  V30 37 H 5.496660 -0.799294 0.249253 0
M  V30 38 H 1.865821 1.748983 -2.164095 0
M  V30 39 H 0.125180 3.500105 -1.570963 0
M  V30 40 H -1.509964 4.322036 0.164496 0
M  V30 41 H -2.095397 4.313998 2.620945 0
M  V30 42 H -1.488792 2.964350 3.631980 0
M  V30 43 H -2.752268 0.721029 1.669395 0
M  V30 44 H -2.555300 0.870836 3.433229 0
M  V30 45 H -4.682605 0.356953 3.923052 0
M  V30 46 H -4.689392 -0.308197 2.284878 0
M  V30 47 H -5.592539 1.633116 1.395598 0
M  V30 48 H -5.984880 3.608601 2.439472 0
M  V30 49 H -6.186787 2.703070 4.037707 0
M  V30 50 H -3.926201 2.783669 4.501214 0
M  V30 51 H -4.025112 4.245980 3.503372 0
M  V30 52 H -0.238163 1.111657 2.778264 0
M  V30 53 H 0.715146 -4.991233 -1.008613 0
M  V30 54 H 1.306391 -4.607099 -3.341044 0
M  V30 55 H 0.881039 -2.814729 -3.170909 0
M  V30 56 H -1.225862 -3.443637 -3.732005 0
M  V30 57 H -0.963682 -5.137108 -3.190179 0
M  V30 58 H -1.754348 -4.639264 -1.132144 0
M  V30 59 H -2.206260 -2.954892 -1.728109 0
M  V30 60 H -0.186627 -2.066571 -0.962220 0
M  V30 61 H -0.477458 -3.368101 0.300715 0
M  V30 END ATOM
M  V30 BEGIN BOND
M  V30 1 1 1 2
M  V30 2 2 2 3
M  V30 3 1 3 4
M  V30 4 2 4 5
M  V30 5 1 5 6
M  V30 6 1 6 7
M  V30 7 2 7 8
M  V30 8 1 8 9
M  V30 9 2 9 10
M  V30 10 1 10 11
M  V30 11 1 11 12
M  V30 12 2 12 13
M  V30 13 1 13 14
M  V30 14 2 14 15
M  V30 15 1 15 16
M  V30 16 1 16 17
M  V30 17 1 17 18
M  V30 18 1 18 19
M  V30 19 1 19 20
M  V30 20 1 20 21
M  V30 21 1 21 22
M  V30 22 1 15 23
M  V30 23 2 23 24
M  V30 24 1 10 25
M  V30 25 2 25 26
M  V30 26 1 26 27
M  V30 27 1 27 28
M  V30 28 1 28 29
M  V30 29 1 29 30
M  V30 30 1 30 31
M  V30 31 1 31 32
M  V30 32 1 27 33
M  V30 33 1 33 2
M  V30 34 2 33 6
M  V30 35 1 26 7
M  V30 36 1 32 28
M  V30 37 1 24 12
M  V30 38 1 22 17
M  V30 39 1 1 34
M  V30 40 1 4 35
M  V30 41 1 5 36
M  V30 42 1 8 37
M  V30 43 1 11 38
M  V30 44 1 13 39
M  V30 45 1 14 40
M  V30 46 1 16 41
M  V30 47 1 16 42
M  V30 48 1 18 43
M  V30 49 1 18 44
M  V30 50 1 19 45
M  V30 51 1 19 46
M  V30 52 1 20 47
M  V30 53 1 21 48
M  V30 54 1 21 49
M  V30 55 1 22 50
M  V30 56 1 22 51
M  V30 57 1 23 52
M  V30 58 1 28 53
M  V30 59 1 29 54
M  V30 60 1 29 55
M  V30 61 1 30 56
M  V30 62 1 30 57
M  V30 63 1 31 58
M  V30 64 1 31 59
M  V30 65 1 32 60
M  V30 66 1 32 61
M  V30 END BOND
M  V30 END CTAB
M  END
>  <Dataset>  (495) 
ChEMBL_Kinases

>  <Ligand_Instance>  (495) 
nan

>  <PDB_ID>  (495) 
nan

>  <Standardized_SMILES>  (495) 
Oc1nccc2c3cnc(Nc4ccc(CN5CCNCC5)cn4)nc3n(C3CCCC3)c12

>  <Name>  (495) 
nan

>  <Pocket>  (495) 
nan

>  <ATP_Site>  (495) 
nan

>  <Peripheral>  (495) 
nan

>  <Num_H_Atoms_ProtBoundConf>  (495) 
nan

>  <Num_Resolved_Atoms>  (495) 
nan

>  <Num_Not_Resolved_Atoms>  (495) 
nan

$$$$
CHEMBL4454044
     RDKit          3D

  0  0  0  0  0  0  0  0  0  0999 V3000
M  V30 BEGIN CTAB
M  V30 COUNTS 64 67 0 0 0
M  V30 BEGIN ATOM
M  V30 1 C -1.840777 -0.254291 5.314687 0
M  V30 2 C -0.344190 -0.270458 5.204411 0
M  V30 3 C 0.322627 0.048236 6.526201 0
M  V30 4 C 0.115442 0.661853 4.134266 0
M  V30 5 C 0.474104 1.968550 4.360171 0
M  V30 6 N 0.813165 2.408856 3.136414 0
M  V30 7 N 0.668114 1.439884 2.248348 0
M  V30 8 C 0.893418 1.457092 0.924112 0
M  V30 9 N 1.353270 2.548893 0.162576 0
M  V30 10 C 1.716633 3.068659 -1.131317 0
M  V30 11 C 0.561792 2.990962 -2.033494 0
M  V30 12 C -0.224955 4.132517 -2.110457 0
M  V30 13 C -1.383660 4.249050 -2.847472 0
M  V30 14 C -1.790717 3.159478 -3.556930 0
M  V30 15 C -1.023239 2.024764 -3.491737 0
M  V30 16 C 0.157483 1.906455 -2.742054 0
M  V30 17 N 0.873788 0.688726 -2.846347 0
M  V30 18 C 0.037604 -0.480762 -3.179574 0
M  V30 19 C 2.268481 0.328271 -2.735706 0
M  V30 20 N 0.666869 0.335598 0.234501 0
M  V30 21 C 0.232016 -0.825747 0.724748 0
M  V30 22 O 0.025745 -1.928380 -0.053972 0
M  V30 23 C -0.435469 -3.176026 0.419568 0
M  V30 24 C -1.750102 -3.522564 -0.244877 0
M  V30 25 C -2.193458 -4.861340 0.246908 0
M  V30 26 N -1.221879 -5.908664 0.083432 0
M  V30 27 C -0.999601 -6.265478 -1.292982 0
M  V30 28 C -0.015082 -5.548149 0.778215 0
M  V30 29 C 0.559665 -4.288209 0.164289 0
M  V30 30 N 0.022555 -0.790770 2.048891 0
M  V30 31 C 0.231582 0.302162 2.792010 0
M  V30 32 H -2.224758 -0.431429 4.273293 0
M  V30 33 H -2.132605 -1.169356 5.895240 0
M  V30 34 H -2.220177 0.671553 5.748121 0
M  V30 35 H -0.019736 -1.288821 4.913087 0
M  V30 36 H 1.412542 -0.102569 6.392930 0
M  V30 37 H 0.116644 1.094105 6.809451 0
M  V30 38 H -0.041494 -0.656991 7.274389 0
M  V30 39 H 0.480668 2.503943 5.289586 0
M  V30 40 H 1.501699 3.358420 0.842358 0
M  V30 41 H 2.595556 2.444850 -1.452342 0
M  V30 42 H 2.031251 4.144919 -1.105768 0
M  V30 43 H 0.046955 5.034375 -1.567260 0
M  V30 44 H -1.960892 5.154956 -2.876926 0
M  V30 45 H -2.693456 3.210804 -4.145165 0
M  V30 46 H -1.404935 1.178679 -4.086679 0
M  V30 47 H -0.088056 -0.425348 -4.280013 0
M  V30 48 H 0.484135 -1.430727 -2.902467 0
M  V30 49 H -0.997815 -0.345787 -2.772905 0
M  V30 50 H 2.624330 0.117453 -1.723882 0
M  V30 51 H 2.936161 1.068797 -3.273909 0
M  V30 52 H 2.485782 -0.621227 -3.309814 0
M  V30 53 H -0.602703 -3.125491 1.498632 0
M  V30 54 H -2.501478 -2.776609 0.131159 0
M  V30 55 H -1.719668 -3.441250 -1.344699 0
M  V30 56 H -2.389423 -4.771837 1.333728 0
M  V30 57 H -3.176339 -5.158075 -0.211565 0
M  V30 58 H -0.073997 -6.898098 -1.297273 0
M  V30 59 H -0.837219 -5.402269 -1.950482 0
M  V30 60 H -1.858950 -6.876326 -1.645118 0
M  V30 61 H -0.284118 -5.324983 1.826298 0
M  V30 62 H 0.721286 -6.374030 0.815004 0
M  V30 63 H 0.722545 -4.475496 -0.900757 0
M  V30 64 H 1.507505 -4.070686 0.700635 0
M  V30 END ATOM
M  V30 BEGIN BOND
M  V30 1 1 1 2
M  V30 2 1 2 3
M  V30 3 1 2 4
M  V30 4 1 4 5
M  V30 5 2 5 6
M  V30 6 1 6 7
M  V30 7 1 7 8
M  V30 8 1 8 9
M  V30 9 1 9 10
M  V30 10 1 10 11
M  V30 11 2 11 12
M  V30 12 1 12 13
M  V30 13 2 13 14
M  V30 14 1 14 15
M  V30 15 2 15 16
M  V30 16 1 16 17
M  V30 17 1 17 18
M  V30 18 1 17 19
M  V30 19 2 8 20
M  V30 20 1 20 21
M  V30 21 1 21 22
M  V30 22 1 22 23
M  V30 23 1 23 24
M  V30 24 1 24 25
M  V30 25 1 25 26
M  V30 26 1 26 27
M  V30 27 1 26 28
M  V30 28 1 28 29
M  V30 29 2 21 30
M  V30 30 1 30 31
M  V30 31 2 31 4
M  V30 32 1 31 7
M  V30 33 1 16 11
M  V30 34 1 29 23
M  V30 35 1 1 32
M  V30 36 1 1 33
M  V30 37 1 1 34
M  V30 38 1 2 35
M  V30 39 1 3 36
M  V30 40 1 3 37
M  V30 41 1 3 38
M  V30 42 1 5 39
M  V30 43 1 9 40
M  V30 44 1 10 41
M  V30 45 1 10 42
M  V30 46 1 12 43
M  V30 47 1 13 44
M  V30 48 1 14 45
M  V30 49 1 15 46
M  V30 50 1 18 47
M  V30 51 1 18 48
M  V30 52 1 18 49
M  V30 53 1 19 50
M  V30 54 1 19 51
M  V30 55 1 19 52
M  V30 56 1 23 53
M  V30 57 1 24 54
M  V30 58 1 24 55
M  V30 59 1 25 56
M  V30 60 1 25 57
M  V30 61 1 27 58
M  V30 62 1 27 59
M  V30 63 1 27 60
M  V30 64 1 28 61
M  V30 65 1 28 62
M  V30 66 1 29 63
M  V30 67 1 29 64
M  V30 END BOND
M  V30 END CTAB
M  END
>  <Dataset>  (496) 
ChEMBL_Kinases

>  <Ligand_Instance>  (496) 
nan

>  <PDB_ID>  (496) 
nan

>  <Standardized_SMILES>  (496) 
CC(C)c1cnn2c(NCc3ccccc3N(C)C)nc(OC3CCN(C)CC3)nc12

>  <Name>  (496) 
nan

>  <Pocket>  (496) 
nan

>  <ATP_Site>  (496) 
nan

>  <Peripheral>  (496) 
nan

>  <Num_H_Atoms_ProtBoundConf>  (496) 
nan

>  <Num_Resolved_Atoms>  (496) 
nan

>  <Num_Not_Resolved_Atoms>  (496) 
nan

$$$$
CHEMBL3717935
     RDKit          3D

  0  0  0  0  0  0  0  0  0  0999 V3000
M  V30 BEGIN CTAB
M  V30 COUNTS 55 58 0 0 0
M  V30 BEGIN ATOM
M  V30 1 C -0.091199 -1.536887 3.117923 0
M  V30 2 C 0.752857 -1.256132 1.897421 0
M  V30 3 C 2.195135 -1.582792 2.200585 0
M  V30 4 N 0.683453 0.146066 1.548864 0
M  V30 5 C 1.074789 1.199564 2.409496 0
M  V30 6 C 1.570620 1.027985 3.684961 0
M  V30 7 C 1.956444 2.032700 4.544224 0
M  V30 8 C 1.846666 3.339649 4.113546 0
M  V30 9 Cl 2.293003 4.714593 5.083046 0
M  V30 10 C 1.362198 3.587365 2.857568 0
M  V30 11 C 1.214491 4.953649 2.329542 0
M  V30 12 O 2.209929 5.696627 2.190813 0
M  V30 13 N -0.118874 5.377755 1.987565 0
M  V30 14 C -0.343520 6.704960 1.462948 0
M  V30 15 C 0.083921 7.753969 2.404611 0
M  V30 16 O -0.123511 8.900741 1.916615 0
M  V30 17 O 0.653068 7.669217 3.686201 0
M  V30 18 C 0.997397 2.530982 2.057364 0
M  V30 19 C 0.292001 -2.036621 0.719295 0
M  V30 20 O 0.413700 -3.229535 1.171586 0
M  V30 21 N -0.176884 -1.838343 -0.579756 0
M  V30 22 C -0.510054 -2.993821 -1.374219 0
M  V30 23 N -1.472549 -3.634394 -1.551188 0
M  V30 24 C -1.629812 -4.684542 -2.326222 0
M  V30 25 C -2.778436 -5.449088 -2.538167 0
M  V30 26 C -4.100360 -5.186177 -1.879998 0
M  V30 27 F -5.068590 -6.092324 -2.264395 0
M  V30 28 F -3.994865 -5.252563 -0.505339 0
M  V30 29 F -4.568119 -3.927170 -2.236317 0
M  V30 30 C -2.734402 -6.517946 -3.397370 0
M  V30 31 C -1.614912 -6.934719 -4.108409 0
M  V30 32 N -1.239559 -7.880423 -4.983825 0
M  V30 33 N 0.038541 -7.732748 -5.303501 0
M  V30 34 C 0.572283 -6.682576 -4.655863 0
M  V30 35 C -0.477881 -6.192323 -3.909914 0
M  V30 36 C -0.515983 -5.101626 -3.035509 0
M  V30 37 S 0.730271 -3.912251 -2.522203 0
M  V30 38 H -0.537210 -0.659434 3.585233 0
M  V30 39 H 0.546991 -2.042769 3.866619 0
M  V30 40 H -0.869506 -2.305936 2.854956 0
M  V30 41 H 2.241791 -2.083056 3.176672 0
M  V30 42 H 2.590753 -2.259301 1.379942 0
M  V30 43 H 2.833419 -0.680423 2.126560 0
M  V30 44 H 0.333747 0.475785 0.624134 0
M  V30 45 H 1.687894 0.042382 4.097423 0
M  V30 46 H 2.338536 1.853151 5.532828 0
M  V30 47 H -0.913214 4.698578 2.130278 0
M  V30 48 H 0.163791 6.845468 0.484104 0
M  V30 49 H -1.437736 6.806112 1.247807 0
M  V30 50 H 1.176031 8.447053 4.056882 0
M  V30 51 H 0.611073 2.765426 1.051869 0
M  V30 52 H -0.207125 -0.829176 -0.762605 0
M  V30 53 H -3.621989 -7.128275 -3.576619 0
M  V30 54 H -1.934843 -8.604663 -5.318964 0
M  V30 55 H 1.561426 -6.262677 -4.661848 0
M  V30 END ATOM
M  V30 BEGIN BOND
M  V30 1 1 1 2
M  V30 2 1 2 3
M  V30 3 1 2 4
M  V30 4 1 4 5
M  V30 5 2 5 6
M  V30 6 1 6 7
M  V30 7 2 7 8
M  V30 8 1 8 9
M  V30 9 1 8 10
M  V30 10 1 10 11
M  V30 11 2 11 12
M  V30 12 1 11 13
M  V30 13 1 13 14
M  V30 14 1 14 15
M  V30 15 2 15 16
M  V30 16 1 15 17
M  V30 17 2 10 18
M  V30 18 1 2 19
M  V30 19 2 19 20
M  V30 20 1 19 21
M  V30 21 1 21 22
M  V30 22 2 22 23
M  V30 23 1 23 24
M  V30 24 2 24 25
M  V30 25 1 25 26
M  V30 26 1 26 27
M  V30 27 1 26 28
M  V30 28 1 26 29
M  V30 29 1 25 30
M  V30 30 2 30 31
M  V30 31 1 31 32
M  V30 32 1 32 33
M  V30 33 2 33 34
M  V30 34 1 34 35
M  V30 35 2 35 36
M  V30 36 1 36 37
M  V30 37 1 18 5
M  V30 38 1 37 22
M  V30 39 1 36 24
M  V30 40 1 35 31
M  V30 41 1 1 38
M  V30 42 1 1 39
M  V30 43 1 1 40
M  V30 44 1 3 41
M  V30 45 1 3 42
M  V30 46 1 3 43
M  V30 47 1 4 44
M  V30 48 1 6 45
M  V30 49 1 7 46
M  V30 50 1 13 47
M  V30 51 1 14 48
M  V30 52 1 14 49
M  V30 53 1 17 50
M  V30 54 1 18 51
M  V30 55 1 21 52
M  V30 56 1 30 53
M  V30 57 1 32 54
M  V30 58 1 34 55
M  V30 END BOND
M  V30 END CTAB
M  END
>  <Dataset>  (497) 
ChEMBL_Kinases

>  <Ligand_Instance>  (497) 
nan

>  <PDB_ID>  (497) 
nan

>  <Standardized_SMILES>  (497) 
CC(C)(Nc1ccc(Cl)c(C(=O)NCC(=O)O)c1)C(=O)Nc1nc2c(C(F)(F)F)cc3[nH]ncc3c2s1

>  <Name>  (497) 
nan

>  <Pocket>  (497) 
nan

>  <ATP_Site>  (497) 
nan

>  <Peripheral>  (497) 
nan

>  <Num_H_Atoms_ProtBoundConf>  (497) 
nan

>  <Num_Resolved_Atoms>  (497) 
nan

>  <Num_Not_Resolved_Atoms>  (497) 
nan

$$$$
CHEMBL3717989
     RDKit          3D

  0  0  0  0  0  0  0  0  0  0999 V3000
M  V30 BEGIN CTAB
M  V30 COUNTS 47 51 0 0 0
M  V30 BEGIN ATOM
M  V30 1 C -2.529394 -5.720106 5.339277 0
M  V30 2 N -2.026505 -5.423245 4.011199 0
M  V30 3 C -0.786340 -5.832083 3.452387 0
M  V30 4 O -0.058630 -6.534938 4.226303 0
M  V30 5 C -0.366912 -5.490134 2.121201 0
M  V30 6 C -0.199133 -4.154919 1.875440 0
M  V30 7 C 0.207297 -3.697651 0.614210 0
M  V30 8 N 0.392443 -2.334249 0.290474 0
M  V30 9 C 0.778945 -1.456862 -0.774114 0
M  V30 10 C 0.694213 0.018803 -0.418420 0
M  V30 11 O -0.016284 0.185375 0.627449 0
M  V30 12 N 1.327060 1.015742 -1.168234 0
M  V30 13 C 1.122940 2.360699 -0.659296 0
M  V30 14 N 0.254625 3.138712 -0.923976 0
M  V30 15 C 0.113160 4.351548 -0.434167 0
M  V30 16 C -0.864512 5.287000 -0.703159 0
M  V30 17 C -0.840361 6.516017 -0.082199 0
M  V30 18 C 0.107275 6.933774 0.828297 0
M  V30 19 N 0.438808 7.986342 1.591448 0
M  V30 20 N 1.535517 7.751253 2.292768 0
M  V30 21 C 1.993822 6.504907 2.022627 0
M  V30 22 C 1.090673 6.008829 1.106662 0
M  V30 23 C 1.062189 4.762582 0.473940 0
M  V30 24 S 2.139790 3.320452 0.568549 0
M  V30 25 C 1.852390 -1.879689 -1.706933 0
M  V30 26 C 0.458435 -1.795639 -2.196841 0
M  V30 27 C 0.418706 -4.675423 -0.333115 0
M  V30 28 C 0.258160 -6.018674 -0.113631 0
M  V30 29 C -0.139251 -6.415205 1.132111 0
M  V30 30 Cl -0.399171 -8.073563 1.613725 0
M  V30 31 H -3.171872 -6.618072 5.304398 0
M  V30 32 H -3.112933 -4.853097 5.711801 0
M  V30 33 H -1.675769 -5.901029 6.040469 0
M  V30 34 H -2.638965 -4.846368 3.393772 0
M  V30 35 H -0.381170 -3.412869 2.668351 0
M  V30 36 H 0.157011 -1.760790 1.161425 0
M  V30 37 H 1.847464 0.674949 -1.974266 0
M  V30 38 H -1.685172 5.113184 -1.399089 0
M  V30 39 H -1.622140 7.264365 -0.296190 0
M  V30 40 H -0.162277 8.859975 1.573714 0
M  V30 41 H 2.848691 5.952506 2.388222 0
M  V30 42 H 2.293482 -2.882211 -1.581517 0
M  V30 43 H 2.626195 -1.157047 -2.086651 0
M  V30 44 H -0.154671 -2.685542 -2.400486 0
M  V30 45 H 0.275685 -0.946756 -2.918568 0
M  V30 46 H 0.725432 -4.541194 -1.343412 0
M  V30 47 H 0.401138 -6.843933 -0.794356 0
M  V30 END ATOM
M  V30 BEGIN BOND
M  V30 1 1 1 2
M  V30 2 1 2 3
M  V30 3 2 3 4
M  V30 4 1 3 5
M  V30 5 2 5 6
M  V30 6 1 6 7
M  V30 7 1 7 8
M  V30 8 1 8 9
M  V30 9 1 9 10
M  V30 10 2 10 11
M  V30 11 1 10 12
M  V30 12 1 12 13
M  V30 13 2 13 14
M  V30 14 1 14 15
M  V30 15 2 15 16
M  V30 16 1 16 17
M  V30 17 2 17 18
M  V30 18 1 18 19
M  V30 19 1 19 20
M  V30 20 2 20 21
M  V30 21 1 21 22
M  V30 22 2 22 23
M  V30 23 1 23 24
M  V30 24 1 9 25
M  V30 25 1 25 26
M  V30 26 2 7 27
M  V30 27 1 27 28
M  V30 28 2 28 29
M  V30 29 1 29 30
M  V30 30 1 29 5
M  V30 31 1 26 9
M  V30 32 1 24 13
M  V30 33 1 23 15
M  V30 34 1 22 18
M  V30 35 1 1 31
M  V30 36 1 1 32
M  V30 37 1 1 33
M  V30 38 1 2 34
M  V30 39 1 6 35
M  V30 40 1 8 36
M  V30 41 1 12 37
M  V30 42 1 16 38
M  V30 43 1 17 39
M  V30 44 1 19 40
M  V30 45 1 21 41
M  V30 46 1 25 42
M  V30 47 1 25 43
M  V30 48 1 26 44
M  V30 49 1 26 45
M  V30 50 1 27 46
M  V30 51 1 28 47
M  V30 END BOND
M  V30 END CTAB
M  END
>  <Dataset>  (498) 
ChEMBL_Kinases

>  <Ligand_Instance>  (498) 
nan

>  <PDB_ID>  (498) 
nan

>  <Standardized_SMILES>  (498) 
CNC(=O)c1cc(NC2(C(=O)Nc3nc4ccc5[nH]ncc5c4s3)CC2)ccc1Cl

>  <Name>  (498) 
nan

>  <Pocket>  (498) 
nan

>  <ATP_Site>  (498) 
nan

>  <Peripheral>  (498) 
nan

>  <Num_H_Atoms_ProtBoundConf>  (498) 
nan

>  <Num_Resolved_Atoms>  (498) 
nan

>  <Num_Not_Resolved_Atoms>  (498) 
nan

$$$$
CHEMBL3718066
     RDKit          3D

  0  0  0  0  0  0  0  0  0  0999 V3000
M  V30 BEGIN CTAB
M  V30 COUNTS 63 66 0 0 0
M  V30 BEGIN ATOM
M  V30 1 C 3.060048 -5.480578 1.453208 0
M  V30 2 C 2.199469 -4.276440 1.394716 0
M  V30 3 C 2.763174 -3.001086 1.533536 0
M  V30 4 C 1.940325 -1.895434 1.475608 0
M  V30 5 C 2.553428 -0.583973 1.623517 0
M  V30 6 O 3.802729 -0.555150 1.796778 0
M  V30 7 N 1.847594 0.647544 1.586194 0
M  V30 8 C 2.669065 1.803298 1.756050 0
M  V30 9 C 1.957068 3.079882 1.720739 0
M  V30 10 O 2.691683 4.117871 1.872504 0
M  V30 11 N 0.566067 3.215008 1.536345 0
M  V30 12 C -0.284707 4.363694 1.475623 0
M  V30 13 C -1.388985 4.320685 2.528387 0
M  V30 14 C -2.029051 2.948581 2.580830 0
M  V30 15 C -2.511123 2.526949 1.226236 0
M  V30 16 C -2.073141 3.421795 0.127644 0
M  V30 17 C -2.803684 3.329925 -1.051955 0
M  V30 18 C -2.481246 4.115390 -2.131181 0
M  V30 19 C -1.433620 5.019131 -2.097691 0
M  V30 20 C -0.710847 5.108410 -0.927076 0
M  V30 21 C -1.025418 4.324192 0.164246 0
M  V30 22 C 0.593244 -2.114471 1.281865 0
M  V30 23 C 0.026905 -3.363984 1.143955 0
M  V30 24 C -1.426142 -3.507684 0.940794 0
M  V30 25 C 0.832447 -4.488392 1.198531 0
M  V30 26 O 0.343766 -5.779669 1.068952 0
M  V30 27 C 0.245980 -6.414233 -0.179727 0
M  V30 28 C -0.619219 -5.737960 -1.165036 0
M  V30 29 C -1.980992 -5.997195 -1.298669 0
M  V30 30 C -2.835582 -5.406865 -2.189166 0
M  V30 31 C -2.274773 -4.454359 -3.040138 0
M  V30 32 C -0.945400 -4.128044 -2.988360 0
M  V30 33 C -0.162611 -4.774103 -2.059841 0
M  V30 34 H 3.954421 -5.206691 2.062349 0
M  V30 35 H 2.567587 -6.300555 2.052184 0
M  V30 36 H 3.427923 -5.824352 0.484743 0
M  V30 37 H 3.820727 -2.964250 1.679105 0
M  V30 38 H 0.821619 0.531755 1.439042 0
M  V30 39 H 3.469886 1.835492 0.960195 0
M  V30 40 H 3.233051 1.735122 2.706494 0
M  V30 41 H -0.034219 2.372805 1.412417 0
M  V30 42 H 0.225299 5.335222 1.590962 0
M  V30 43 H -1.062898 4.667874 3.506492 0
M  V30 44 H -2.191957 5.012210 2.162488 0
M  V30 45 H -2.881862 3.037384 3.306120 0
M  V30 46 H -1.356109 2.177931 2.983788 0
M  V30 47 H -2.218354 1.488348 0.961829 0
M  V30 48 H -3.639420 2.556022 1.236911 0
M  V30 49 H -3.656029 2.664688 -1.229206 0
M  V30 50 H -3.027798 4.074881 -3.073568 0
M  V30 51 H -1.146498 5.648785 -2.909823 0
M  V30 52 H 0.140657 5.773760 -0.750806 0
M  V30 53 H -0.063670 -1.283706 1.232874 0
M  V30 54 H -1.775001 -4.534104 1.206303 0
M  V30 55 H -1.782028 -3.163307 -0.045008 0
M  V30 56 H -1.949036 -2.847252 1.693216 0
M  V30 57 H -0.135278 -7.452156 -0.102162 0
M  V30 58 H 1.278367 -6.378444 -0.628227 0
M  V30 59 H -2.411982 -6.743907 -0.628816 0
M  V30 60 H -3.872228 -5.651872 -2.240471 0
M  V30 61 H -2.892565 -3.960673 -3.755232 0
M  V30 62 H -0.513038 -3.394714 -3.643986 0
M  V30 63 H 0.908524 -4.521597 -2.007329 0
M  V30 END ATOM
M  V30 BEGIN BOND
M  V30 1 1 1 2
M  V30 2 2 2 3
M  V30 3 1 3 4
M  V30 4 1 4 5
M  V30 5 2 5 6
M  V30 6 1 5 7
M  V30 7 1 7 8
M  V30 8 1 8 9
M  V30 9 2 9 10
M  V30 10 1 9 11
M  V30 11 1 11 12
M  V30 12 1 12 13
M  V30 13 1 13 14
M  V30 14 1 14 15
M  V30 15 1 15 16
M  V30 16 2 16 17
M  V30 17 1 17 18
M  V30 18 2 18 19
M  V30 19 1 19 20
M  V30 20 2 20 21
M  V30 21 2 4 22
M  V30 22 1 22 23
M  V30 23 1 23 24
M  V30 24 2 23 25
M  V30 25 1 25 26
M  V30 26 1 26 27
M  V30 27 1 27 28
M  V30 28 2 28 29
M  V30 29 1 29 30
M  V30 30 2 30 31
M  V30 31 1 31 32
M  V30 32 2 32 33
M  V30 33 1 25 2
M  V30 34 1 33 28
M  V30 35 1 21 12
M  V30 36 1 21 16
M  V30 37 1 1 34
M  V30 38 1 1 35
M  V30 39 1 1 36
M  V30 40 1 3 37
M  V30 41 1 7 38
M  V30 42 1 8 39
M  V30 43 1 8 40
M  V30 44 1 11 41
M  V30 45 1 12 42
M  V30 46 1 13 43
M  V30 47 1 13 44
M  V30 48 1 14 45
M  V30 49 1 14 46
M  V30 50 1 15 47
M  V30 51 1 15 48
M  V30 52 1 17 49
M  V30 53 1 18 50
M  V30 54 1 19 51
M  V30 55 1 20 52
M  V30 56 1 22 53
M  V30 57 1 24 54
M  V30 58 1 24 55
M  V30 59 1 24 56
M  V30 60 1 27 57
M  V30 61 1 27 58
M  V30 62 1 29 59
M  V30 63 1 30 60
M  V30 64 1 31 61
M  V30 65 1 32 62
M  V30 66 1 33 63
M  V30 END BOND
M  V30 END CTAB
M  END
>  <Dataset>  (499) 
ChEMBL_Kinases

>  <Ligand_Instance>  (499) 
nan

>  <PDB_ID>  (499) 
nan

>  <Standardized_SMILES>  (499) 
Cc1cc(C(=O)NCC(=O)NC2CCCc3ccccc32)cc(C)c1OCc1ccccc1

>  <Name>  (499) 
nan

>  <Pocket>  (499) 
nan

>  <ATP_Site>  (499) 
nan

>  <Peripheral>  (499) 
nan

>  <Num_H_Atoms_ProtBoundConf>  (499) 
nan

>  <Num_Resolved_Atoms>  (499) 
nan

>  <Num_Not_Resolved_Atoms>  (499) 
nan

$$$$
CHEMBL3718067
     RDKit          3D

  0  0  0  0  0  0  0  0  0  0999 V3000
M  V30 BEGIN CTAB
M  V30 COUNTS 47 51 0 0 0
M  V30 BEGIN ATOM
M  V30 1 C -2.530544 -2.815798 4.104261 0
M  V30 2 C -1.988896 -3.563646 2.946451 0
M  V30 3 O -2.577124 -4.377177 2.122509 0
M  V30 4 N -0.632672 -3.383459 2.675658 0
M  V30 5 C 0.452670 -3.725204 1.845277 0
M  V30 6 C 0.750140 -3.056953 0.673911 0
M  V30 7 C 1.781326 -3.274319 -0.190896 0
M  V30 8 N 2.005416 -2.607389 -1.419595 0
M  V30 9 C 1.074665 -1.647137 -1.971415 0
M  V30 10 C 0.911671 -0.338850 -1.291607 0
M  V30 11 O -0.149969 0.112229 -0.745346 0
M  V30 12 N 1.938670 0.701162 -1.131292 0
M  V30 13 C 1.121156 1.659868 -0.391987 0
M  V30 14 N 0.148686 2.402794 -0.641226 0
M  V30 15 C -0.325227 3.162600 0.326833 0
M  V30 16 C -1.449526 3.969795 0.113936 0
M  V30 17 C -1.965515 4.704734 1.111166 0
M  V30 18 C -1.448658 4.745200 2.410866 0
M  V30 19 N -1.623150 5.313108 3.643081 0
M  V30 20 N -0.723403 4.911338 4.502267 0
M  V30 21 C 0.134897 4.039502 3.914295 0
M  V30 22 C -0.327295 3.951048 2.647270 0
M  V30 23 C 0.202567 3.179198 1.604576 0
M  V30 24 S 1.522791 1.948868 1.370067 0
M  V30 25 C 1.189912 -1.598616 -3.475422 0
M  V30 26 C -0.035936 -2.174330 -2.825548 0
M  V30 27 C 2.612251 -4.331253 0.223120 0
M  V30 28 C 2.382504 -5.062758 1.390784 0
M  V30 29 C 1.321861 -4.768325 2.202691 0
M  V30 30 F 1.116145 -5.502586 3.316110 0
M  V30 31 H -3.618424 -3.137289 4.160910 0
M  V30 32 H -2.516626 -1.737857 3.925910 0
M  V30 33 H -2.025203 -3.076846 5.069738 0
M  V30 34 H -0.048680 -2.759673 3.281071 0
M  V30 35 H 0.042156 -2.288464 0.459194 0
M  V30 36 H 2.933862 -2.871757 -1.904184 0
M  V30 37 H 2.862437 0.570318 -1.538095 0
M  V30 38 H -1.997090 4.071505 -0.840074 0
M  V30 39 H -2.862539 5.359738 1.027295 0
M  V30 40 H -2.428852 5.987156 3.737611 0
M  V30 41 H 1.025033 3.475248 4.280608 0
M  V30 42 H 1.861467 -2.308467 -3.967325 0
M  V30 43 H 1.144439 -0.613261 -4.008554 0
M  V30 44 H -0.261389 -3.243847 -2.863082 0
M  V30 45 H -0.968118 -1.499222 -2.972317 0
M  V30 46 H 3.482447 -4.588498 -0.393519 0
M  V30 47 H 3.075757 -5.856696 1.605617 0
M  V30 END ATOM
M  V30 BEGIN BOND
M  V30 1 1 1 2
M  V30 2 2 2 3
M  V30 3 1 2 4
M  V30 4 1 4 5
M  V30 5 2 5 6
M  V30 6 1 6 7
M  V30 7 1 7 8
M  V30 8 1 8 9
M  V30 9 1 9 10
M  V30 10 2 10 11
M  V30 11 1 10 12
M  V30 12 1 12 13
M  V30 13 2 13 14
M  V30 14 1 14 15
M  V30 15 2 15 16
M  V30 16 1 16 17
M  V30 17 2 17 18
M  V30 18 1 18 19
M  V30 19 1 19 20
M  V30 20 2 20 21
M  V30 21 1 21 22
M  V30 22 2 22 23
M  V30 23 1 23 24
M  V30 24 1 9 25
M  V30 25 1 25 26
M  V30 26 2 7 27
M  V30 27 1 27 28
M  V30 28 2 28 29
M  V30 29 1 29 30
M  V30 30 1 29 5
M  V30 31 1 26 9
M  V30 32 1 24 13
M  V30 33 1 23 15
M  V30 34 1 22 18
M  V30 35 1 1 31
M  V30 36 1 1 32
M  V30 37 1 1 33
M  V30 38 1 4 34
M  V30 39 1 6 35
M  V30 40 1 8 36
M  V30 41 1 12 37
M  V30 42 1 16 38
M  V30 43 1 17 39
M  V30 44 1 19 40
M  V30 45 1 21 41
M  V30 46 1 25 42
M  V30 47 1 25 43
M  V30 48 1 26 44
M  V30 49 1 26 45
M  V30 50 1 27 46
M  V30 51 1 28 47
M  V30 END BOND
M  V30 END CTAB
M  END
>  <Dataset>  (500) 
ChEMBL_Kinases

>  <Ligand_Instance>  (500) 
nan

>  <PDB_ID>  (500) 
nan

>  <Standardized_SMILES>  (500) 
CC(=O)Nc1cc(NC2(C(=O)Nc3nc4ccc5[nH]ncc5c4s3)CC2)ccc1F

>  <Name>  (500) 
nan

>  <Pocket>  (500) 
nan

>  <ATP_Site>  (500) 
nan

>  <Peripheral>  (500) 
nan

>  <Num_H_Atoms_ProtBoundConf>  (500) 
nan

>  <Num_Resolved_Atoms>  (500) 
nan

>  <Num_Not_Resolved_Atoms>  (500) 
nan

$$$$
CHEMBL3718164
     RDKit          3D

  0  0  0  0  0  0  0  0  0  0999 V3000
M  V30 BEGIN CTAB
M  V30 COUNTS 50 53 0 0 0
M  V30 BEGIN ATOM
M  V30 1 O 2.177289 -4.640989 1.616711 0
M  V30 2 C 1.702808 -3.460237 1.528349 0
M  V30 3 C 2.346582 -2.630877 2.566621 0
M  V30 4 N 1.939401 -1.263203 2.591662 0
M  V30 5 C 2.108722 -0.334921 1.537043 0
M  V30 6 O 2.677743 -0.728680 0.461332 0
M  V30 7 C 1.669605 1.053777 1.603945 0
M  V30 8 C 1.050065 1.642675 2.674621 0
M  V30 9 C 0.639776 2.946492 2.722843 0
M  V30 10 C 0.849185 3.759834 1.628470 0
M  V30 11 N 0.446664 5.120359 1.612882 0
M  V30 12 C 0.110724 5.905473 2.652366 0
M  V30 13 C -0.224064 7.178078 2.214634 0
M  V30 14 N -0.073888 7.121508 0.864714 0
M  V30 15 C 0.323096 5.898680 0.523848 0
M  V30 16 C 1.475186 3.222974 0.504310 0
M  V30 17 C 1.861319 1.900719 0.528005 0
M  V30 18 N 0.731813 -3.191517 0.538530 0
M  V30 19 C 0.250864 -4.171665 -0.377052 0
M  V30 20 C 0.573767 -3.832075 -1.837591 0
M  V30 21 C 0.125490 -2.415971 -2.121727 0
M  V30 22 C -1.251035 -2.117308 -1.603146 0
M  V30 23 C -1.899543 -3.288755 -0.957558 0
M  V30 24 C -3.298815 -3.304864 -0.999145 0
M  V30 25 C -3.968926 -4.376871 -0.411736 0
M  V30 26 C -3.260401 -5.393116 0.193740 0
M  V30 27 C -1.877628 -5.393981 0.244390 0
M  V30 28 C -1.229179 -4.326178 -0.341488 0
M  V30 29 H 2.179186 -3.074839 3.591070 0
M  V30 30 H 3.462204 -2.633450 2.468856 0
M  V30 31 H 1.472476 -0.862350 3.434489 0
M  V30 32 H 0.863024 1.062904 3.547550 0
M  V30 33 H 0.154725 3.393746 3.569701 0
M  V30 34 H 0.097706 5.608824 3.676125 0
M  V30 35 H -0.540082 8.070098 2.730901 0
M  V30 36 H 0.524507 5.560533 -0.497521 0
M  V30 37 H 1.663408 3.827663 -0.388065 0
M  V30 38 H 2.345938 1.516175 -0.364519 0
M  V30 39 H 0.417007 -2.206019 0.572609 0
M  V30 40 H 0.768913 -5.130952 -0.170963 0
M  V30 41 H -0.047068 -4.493502 -2.467182 0
M  V30 42 H 1.649800 -3.910634 -1.984459 0
M  V30 43 H 0.806023 -1.688719 -1.637357 0
M  V30 44 H 0.196486 -2.257508 -3.217480 0
M  V30 45 H -1.263319 -1.267729 -0.858959 0
M  V30 46 H -1.885606 -1.744408 -2.435401 0
M  V30 47 H -3.857480 -2.497640 -1.480578 0
M  V30 48 H -5.044978 -4.399977 -0.436921 0
M  V30 49 H -3.778902 -6.235970 0.655654 0
M  V30 50 H -1.259067 -6.157046 0.702144 0
M  V30 END ATOM
M  V30 BEGIN BOND
M  V30 1 2 1 2
M  V30 2 1 2 3
M  V30 3 1 3 4
M  V30 4 1 4 5
M  V30 5 2 5 6
M  V30 6 1 5 7
M  V30 7 2 7 8
M  V30 8 1 8 9
M  V30 9 2 9 10
M  V30 10 1 10 11
M  V30 11 1 11 12
M  V30 12 2 12 13
M  V30 13 1 13 14
M  V30 14 2 14 15
M  V30 15 1 10 16
M  V30 16 2 16 17
M  V30 17 1 2 18
M  V30 18 1 18 19
M  V30 19 1 19 20
M  V30 20 1 20 21
M  V30 21 1 21 22
M  V30 22 1 22 23
M  V30 23 2 23 24
M  V30 24 1 24 25
M  V30 25 2 25 26
M  V30 26 1 26 27
M  V30 27 2 27 28
M  V30 28 1 17 7
M  V30 29 1 28 19
M  V30 30 1 15 11
M  V30 31 1 28 23
M  V30 32 1 3 29
M  V30 33 1 3 30
M  V30 34 1 4 31
M  V30 35 1 8 32
M  V30 36 1 9 33
M  V30 37 1 12 34
M  V30 38 1 13 35
M  V30 39 1 15 36
M  V30 40 1 16 37
M  V30 41 1 17 38
M  V30 42 1 18 39
M  V30 43 1 19 40
M  V30 44 1 20 41
M  V30 45 1 20 42
M  V30 46 1 21 43
M  V30 47 1 21 44
M  V30 48 1 22 45
M  V30 49 1 22 46
M  V30 50 1 24 47
M  V30 51 1 25 48
M  V30 52 1 26 49
M  V30 53 1 27 50
M  V30 END BOND
M  V30 END CTAB
M  END
>  <Dataset>  (501) 
ChEMBL_Kinases

>  <Ligand_Instance>  (501) 
nan

>  <PDB_ID>  (501) 
nan

>  <Standardized_SMILES>  (501) 
O=C(CNC(=O)c1ccc(-n2ccnc2)cc1)NC1CCCc2ccccc21

>  <Name>  (501) 
nan

>  <Pocket>  (501) 
nan

>  <ATP_Site>  (501) 
nan

>  <Peripheral>  (501) 
nan

>  <Num_H_Atoms_ProtBoundConf>  (501) 
nan

>  <Num_Resolved_Atoms>  (501) 
nan

>  <Num_Not_Resolved_Atoms>  (501) 
nan

$$$$
CHEMBL4447399
     RDKit          3D

  0  0  0  0  0  0  0  0  0  0999 V3000
M  V30 BEGIN CTAB
M  V30 COUNTS 48 52 0 0 0
M  V30 BEGIN ATOM
M  V30 1 C -0.793651 -1.167374 4.867686 0
M  V30 2 C 0.234934 -1.738684 3.943181 0
M  V30 3 C 1.053047 -2.757723 4.423800 0
M  V30 4 C 2.023536 -3.319549 3.602618 0
M  V30 5 C 2.160935 -2.848868 2.303701 0
M  V30 6 C 1.338192 -1.839489 1.853076 0
M  V30 7 C 1.305676 -1.196378 0.546220 0
M  V30 8 N 2.195333 -0.289621 0.117056 0
M  V30 9 C 1.881650 0.103084 -1.121464 0
M  V30 10 C 2.324092 1.042976 -2.192273 0
M  V30 11 N 1.492237 2.221694 -2.082018 0
M  V30 12 C 1.364635 3.187298 -1.063775 0
M  V30 13 C 2.074300 3.243564 0.108963 0
M  V30 14 C 1.974764 4.152014 1.132557 0
M  V30 15 C 1.019054 5.141472 0.933331 0
M  V30 16 C 0.269638 5.145041 -0.223199 0
M  V30 17 C 0.435202 4.196386 -1.197081 0
M  V30 18 N 0.757934 -0.590229 -1.463258 0
M  V30 19 C 0.380828 -1.395682 -0.458553 0
M  V30 20 C -0.754386 -2.301150 -0.376996 0
M  V30 21 C -2.065226 -1.992293 -0.488364 0
M  V30 22 C -3.008895 -2.983539 -0.377845 0
M  V30 23 C -4.383114 -2.944830 -0.447829 0
M  V30 24 N -5.100877 -4.040214 -0.308622 0
M  V30 25 C -4.662195 -5.287036 -0.091611 0
M  V30 26 C -3.291849 -5.402034 -0.009669 0
M  V30 27 C -2.538097 -4.253714 -0.155908 0
M  V30 28 S -0.701950 -4.059157 -0.098655 0
M  V30 29 N 0.395855 -1.309026 2.682687 0
M  V30 30 H -1.601975 -1.880282 5.067017 0
M  V30 31 H -1.146987 -0.223777 4.390714 0
M  V30 32 H -0.314949 -0.975248 5.853716 0
M  V30 33 H 0.963167 -3.141024 5.437800 0
M  V30 34 H 2.698251 -4.115702 3.902487 0
M  V30 35 H 2.867792 -3.191201 1.561673 0
M  V30 36 H 3.039344 0.137709 0.541912 0
M  V30 37 H 3.357443 1.377696 -1.901526 0
M  V30 38 H 2.296394 0.611863 -3.184033 0
M  V30 39 H 0.874908 2.359774 -2.937794 0
M  V30 40 H 2.834309 2.467950 0.267531 0
M  V30 41 H 2.594377 4.090225 2.013802 0
M  V30 42 H 0.890454 5.882541 1.699258 0
M  V30 43 H -0.491667 5.924938 -0.391487 0
M  V30 44 H -0.189496 4.263490 -2.080540 0
M  V30 45 H -2.360343 -0.941507 -0.668467 0
M  V30 46 H -4.917733 -2.019056 -0.619170 0
M  V30 47 H -5.242484 -6.179962 0.022702 0
M  V30 48 H -2.788384 -6.332579 0.161375 0
M  V30 END ATOM
M  V30 BEGIN BOND
M  V30 1 1 1 2
M  V30 2 2 2 3
M  V30 3 1 3 4
M  V30 4 2 4 5
M  V30 5 1 5 6
M  V30 6 1 6 7
M  V30 7 1 7 8
M  V30 8 1 8 9
M  V30 9 1 9 10
M  V30 10 1 10 11
M  V30 11 1 11 12
M  V30 12 2 12 13
M  V30 13 1 13 14
M  V30 14 2 14 15
M  V30 15 1 15 16
M  V30 16 2 16 17
M  V30 17 2 9 18
M  V30 18 1 18 19
M  V30 19 1 19 20
M  V30 20 2 20 21
M  V30 21 1 21 22
M  V30 22 2 22 23
M  V30 23 1 23 24
M  V30 24 2 24 25
M  V30 25 1 25 26
M  V30 26 2 26 27
M  V30 27 1 27 28
M  V30 28 2 6 29
M  V30 29 1 29 2
M  V30 30 2 19 7
M  V30 31 1 28 20
M  V30 32 1 17 12
M  V30 33 1 27 22
M  V30 34 1 1 30
M  V30 35 1 1 31
M  V30 36 1 1 32
M  V30 37 1 3 33
M  V30 38 1 4 34
M  V30 39 1 5 35
M  V30 40 1 8 36
M  V30 41 1 10 37
M  V30 42 1 10 38
M  V30 43 1 11 39
M  V30 44 1 13 40
M  V30 45 1 14 41
M  V30 46 1 15 42
M  V30 47 1 16 43
M  V30 48 1 17 44
M  V30 49 1 21 45
M  V30 50 1 23 46
M  V30 51 1 25 47
M  V30 52 1 26 48
M  V30 END BOND
M  V30 END CTAB
M  END
>  <Dataset>  (502) 
ChEMBL_Kinases

>  <Ligand_Instance>  (502) 
nan

>  <PDB_ID>  (502) 
nan

>  <Standardized_SMILES>  (502) 
Cc1cccc(-c2[nH]c(CNc3ccccc3)nc2-c2cc3cnccc3s2)n1

>  <Name>  (502) 
nan

>  <Pocket>  (502) 
nan

>  <ATP_Site>  (502) 
nan

>  <Peripheral>  (502) 
nan

>  <Num_H_Atoms_ProtBoundConf>  (502) 
nan

>  <Num_Resolved_Atoms>  (502) 
nan

>  <Num_Not_Resolved_Atoms>  (502) 
nan

$$$$
CHEMBL3718166
     RDKit          3D

  0  0  0  0  0  0  0  0  0  0999 V3000
M  V30 BEGIN CTAB
M  V30 COUNTS 40 41 0 0 0
M  V30 BEGIN ATOM
M  V30 1 O -0.331998 -3.015780 2.566078 0
M  V30 2 C -0.094186 -2.068917 1.739603 0
M  V30 3 C 1.348780 -1.746143 1.826181 0
M  V30 4 N 1.765570 -0.666593 0.956476 0
M  V30 5 C 1.112050 0.555999 1.264816 0
M  V30 6 O 0.246006 0.897041 2.141696 0
M  V30 7 C 1.399286 1.808337 0.474125 0
M  V30 8 O 2.354599 1.554391 -0.537817 0
M  V30 9 C 2.803893 2.529950 -1.414619 0
M  V30 10 C 3.733991 2.312795 -2.410875 0
M  V30 11 C 4.125712 3.360084 -3.247342 0
M  V30 12 C 3.567985 4.624130 -3.065028 0
M  V30 13 Br 4.078342 6.084585 -4.189973 0
M  V30 14 C 2.645941 4.863150 -2.086092 0
M  V30 15 C 2.282669 3.807758 -1.279565 0
M  V30 16 N -1.149947 -1.549396 0.963922 0
M  V30 17 C -2.500215 -2.040685 1.065481 0
M  V30 18 C -2.658868 -3.118474 2.040292 0
M  V30 19 C -2.965661 -2.931688 3.394060 0
M  V30 20 C -3.113095 -3.952953 4.303673 0
M  V30 21 C -2.951920 -5.254564 3.873063 0
M  V30 22 Cl -3.147330 -6.524689 5.059357 0
M  V30 23 C -2.650364 -5.498381 2.556440 0
M  V30 24 Cl -2.446564 -7.172628 2.018375 0
M  V30 25 C -2.505708 -4.455111 1.654357 0
M  V30 26 H 1.933721 -2.645105 1.574399 0
M  V30 27 H 1.601868 -1.487794 2.874033 0
M  V30 28 H 2.439564 -0.611561 0.162118 0
M  V30 29 H 0.448965 2.025943 -0.061694 0
M  V30 30 H 1.647987 2.663699 1.097855 0
M  V30 31 H 4.148831 1.308839 -2.523143 0
M  V30 32 H 4.855000 3.200141 -4.032287 0
M  V30 33 H 2.185173 5.832207 -1.907914 0
M  V30 34 H 1.551201 3.992648 -0.501237 0
M  V30 35 H -0.830969 -0.795226 0.326467 0
M  V30 36 H -3.192324 -1.211205 1.392885 0
M  V30 37 H -2.841680 -2.356536 0.065532 0
M  V30 38 H -3.073077 -1.862868 3.634087 0
M  V30 39 H -3.353488 -3.629506 5.323119 0
M  V30 40 H -2.266260 -4.674338 0.614923 0
M  V30 END ATOM
M  V30 BEGIN BOND
M  V30 1 2 1 2
M  V30 2 1 2 3
M  V30 3 1 3 4
M  V30 4 1 4 5
M  V30 5 2 5 6
M  V30 6 1 5 7
M  V30 7 1 7 8
M  V30 8 1 8 9
M  V30 9 2 9 10
M  V30 10 1 10 11
M  V30 11 2 11 12
M  V30 12 1 12 13
M  V30 13 1 12 14
M  V30 14 2 14 15
M  V30 15 1 2 16
M  V30 16 1 16 17
M  V30 17 1 17 18
M  V30 18 2 18 19
M  V30 19 1 19 20
M  V30 20 2 20 21
M  V30 21 1 21 22
M  V30 22 1 21 23
M  V30 23 1 23 24
M  V30 24 2 23 25
M  V30 25 1 15 9
M  V30 26 1 25 18
M  V30 27 1 3 26
M  V30 28 1 3 27
M  V30 29 1 4 28
M  V30 30 1 7 29
M  V30 31 1 7 30
M  V30 32 1 10 31
M  V30 33 1 11 32
M  V30 34 1 14 33
M  V30 35 1 15 34
M  V30 36 1 16 35
M  V30 37 1 17 36
M  V30 38 1 17 37
M  V30 39 1 19 38
M  V30 40 1 20 39
M  V30 41 1 25 40
M  V30 END BOND
M  V30 END CTAB
M  END
>  <Dataset>  (503) 
ChEMBL_Kinases

>  <Ligand_Instance>  (503) 
nan

>  <PDB_ID>  (503) 
nan

>  <Standardized_SMILES>  (503) 
O=C(CNC(=O)COc1ccc(Br)cc1)NCc1ccc(Cl)c(Cl)c1

>  <Name>  (503) 
nan

>  <Pocket>  (503) 
nan

>  <ATP_Site>  (503) 
nan

>  <Peripheral>  (503) 
nan

>  <Num_H_Atoms_ProtBoundConf>  (503) 
nan

>  <Num_Resolved_Atoms>  (503) 
nan

>  <Num_Not_Resolved_Atoms>  (503) 
nan

$$$$
CHEMBL4447241
     RDKit          3D

  0  0  0  0  0  0  0  0  0  0999 V3000
M  V30 BEGIN CTAB
M  V30 COUNTS 68 71 0 0 0
M  V30 BEGIN ATOM
M  V30 1 C 5.334417 -2.119090 4.304871 0
M  V30 2 C 5.402620 -0.753292 3.605556 0
M  V30 3 C 6.792668 -0.741000 2.952375 0
M  V30 4 C 4.350505 -0.650797 2.564689 0
M  V30 5 C 3.031342 -0.139133 3.065563 0
M  V30 6 N 2.193731 0.211419 1.916164 0
M  V30 7 C 0.980157 -0.401212 1.533100 0
M  V30 8 O 0.635766 -1.338362 2.297491 0
M  V30 9 C 0.233982 0.040897 0.361833 0
M  V30 10 C 0.649968 1.053376 -0.473506 0
M  V30 11 C -0.092805 1.436754 -1.562698 0
M  V30 12 C -1.292190 0.841660 -1.891366 0
M  V30 13 N -2.034937 1.263830 -3.026501 0
M  V30 14 C -3.303744 0.817710 -3.503543 0
M  V30 15 N -3.813709 1.354032 -4.600882 0
M  V30 16 C -5.004777 0.962623 -5.074973 0
M  V30 17 C -5.749892 -0.009069 -4.448089 0
M  V30 18 N -7.009879 -0.419506 -4.953780 0 CHG=1 VAL=4
M  V30 19 O -7.853505 -0.792215 -4.086604 0
M  V30 20 O -7.424365 -0.462739 -6.255581 0 CHG=-1 VAL=1
M  V30 21 C -5.232897 -0.571913 -3.311198 0
M  V30 22 N -5.916825 -1.578780 -2.582835 0
M  V30 23 C -5.979428 -2.996991 -2.623189 0
M  V30 24 C -5.261424 -3.668186 -3.586983 0
M  V30 25 C -5.379773 -5.042357 -3.552149 0
M  V30 26 C -6.172358 -5.697153 -2.605031 0
M  V30 27 O -6.328323 -7.071636 -2.522214 0
M  V30 28 C -6.866825 -4.939869 -1.663724 0
M  V30 29 C -6.781129 -3.562413 -1.656896 0
M  V30 30 N -4.039173 -0.126974 -2.903075 0
M  V30 31 C -1.667069 -0.164528 -1.028329 0
M  V30 32 C -0.940754 -0.567718 0.069911 0
M  V30 33 C 3.115203 0.989161 4.023713 0
M  V30 34 C 4.487431 1.292272 4.559365 0
M  V30 35 C 4.268457 1.753522 6.009791 0
M  V30 36 C 5.039305 2.502109 3.825085 0
M  V30 37 N 5.393019 0.218388 4.622732 0
M  V30 38 O 5.890335 -0.120449 5.800262 0 RAD=2 VAL=1
M  V30 39 H 4.358004 -2.271162 4.788660 0
M  V30 40 H 6.097565 -2.058466 5.116061 0
M  V30 41 H 5.609232 -2.894966 3.581179 0
M  V30 42 H 6.983240 -1.701743 2.433892 0
M  V30 43 H 7.502675 -0.538138 3.775136 0
M  V30 44 H 6.864095 0.042720 2.183751 0
M  V30 45 H 4.759951 -0.057122 1.706251 0
M  V30 46 H 4.143282 -1.667183 2.119029 0
M  V30 47 H 2.529290 -1.000019 3.561383 0
M  V30 48 H 2.613533 1.004644 1.383151 0
M  V30 49 H 1.580317 1.562858 -0.275116 0
M  V30 50 H 0.299141 2.252506 -2.187519 0
M  V30 51 H -1.568461 2.016540 -3.589766 0
M  V30 52 H -5.350716 1.451461 -5.977743 0
M  V30 53 H -6.429885 -0.955130 -1.925931 0
M  V30 54 H -4.647277 -3.166995 -4.321329 0
M  V30 55 H -4.855626 -5.680070 -4.267697 0
M  V30 56 H -5.583932 -7.645802 -2.161375 0
M  V30 57 H -7.485896 -5.430265 -0.921574 0
M  V30 58 H -7.322723 -2.980968 -0.924557 0
M  V30 59 H -2.588360 -0.701782 -1.188592 0
M  V30 60 H -1.300008 -1.381039 0.718676 0
M  V30 61 H 2.376337 0.815012 4.838408 0
M  V30 62 H 2.706207 1.909442 3.507575 0
M  V30 63 H 3.734705 2.712045 6.060595 0
M  V30 64 H 5.269736 1.913296 6.449204 0
M  V30 65 H 3.788156 0.954632 6.602588 0
M  V30 66 H 4.924687 3.439368 4.409129 0
M  V30 67 H 6.104622 2.387177 3.541044 0
M  V30 68 H 4.417761 2.685914 2.900899 0
M  V30 END ATOM
M  V30 BEGIN BOND
M  V30 1 1 1 2
M  V30 2 1 2 3
M  V30 3 1 2 4
M  V30 4 1 4 5
M  V30 5 1 5 6
M  V30 6 1 6 7
M  V30 7 2 7 8
M  V30 8 1 7 9
M  V30 9 2 9 10
M  V30 10 1 10 11
M  V30 11 2 11 12
M  V30 12 1 12 13
M  V30 13 1 13 14
M  V30 14 2 14 15
M  V30 15 1 15 16
M  V30 16 2 16 17
M  V30 17 1 17 18
M  V30 18 2 18 19
M  V30 19 1 18 20
M  V30 20 1 17 21
M  V30 21 1 21 22
M  V30 22 1 22 23
M  V30 23 2 23 24
M  V30 24 1 24 25
M  V30 25 2 25 26
M  V30 26 1 26 27
M  V30 27 1 26 28
M  V30 28 2 28 29
M  V30 29 2 21 30
M  V30 30 1 12 31
M  V30 31 2 31 32
M  V30 32 1 5 33
M  V30 33 1 33 34
M  V30 34 1 34 35
M  V30 35 1 34 36
M  V30 36 1 34 37
M  V30 37 1 37 38
M  V30 38 1 37 2
M  V30 39 1 32 9
M  V30 40 1 30 14
M  V30 41 1 29 23
M  V30 42 1 1 39
M  V30 43 1 1 40
M  V30 44 1 1 41
M  V30 45 1 3 42
M  V30 46 1 3 43
M  V30 47 1 3 44
M  V30 48 1 4 45
M  V30 49 1 4 46
M  V30 50 1 5 47
M  V30 51 1 6 48
M  V30 52 1 10 49
M  V30 53 1 11 50
M  V30 54 1 13 51
M  V30 55 1 16 52
M  V30 56 1 22 53
M  V30 57 1 24 54
M  V30 58 1 25 55
M  V30 59 1 27 56
M  V30 60 1 28 57
M  V30 61 1 29 58
M  V30 62 1 31 59
M  V30 63 1 32 60
M  V30 64 1 33 61
M  V30 65 1 33 62
M  V30 66 1 35 63
M  V30 67 1 35 64
M  V30 68 1 35 65
M  V30 69 1 36 66
M  V30 70 1 36 67
M  V30 71 1 36 68
M  V30 END BOND
M  V30 END CTAB
M  END
>  <Dataset>  (504) 
ChEMBL_Kinases

>  <Ligand_Instance>  (504) 
nan

>  <PDB_ID>  (504) 
nan

>  <Standardized_SMILES>  (504) 
CC1(C)CC(NC(=O)c2ccc(Nc3ncc([N+](=O)[O-])c(Nc4ccc(O)cc4)n3)cc2)CC(C)(C)N1[O]

>  <Name>  (504) 
nan

>  <Pocket>  (504) 
nan

>  <ATP_Site>  (504) 
nan

>  <Peripheral>  (504) 
nan

>  <Num_H_Atoms_ProtBoundConf>  (504) 
nan

>  <Num_Resolved_Atoms>  (504) 
nan

>  <Num_Not_Resolved_Atoms>  (504) 
nan

$$$$
CHEMBL3715238
     RDKit          3D

  0  0  0  0  0  0  0  0  0  0999 V3000
M  V30 BEGIN CTAB
M  V30 COUNTS 54 59 0 0 0
M  V30 BEGIN ATOM
M  V30 1 N -2.446181 -8.223641 1.575613 0
M  V30 2 C -2.039664 -6.910665 1.233671 0
M  V30 3 N -1.677763 -6.539101 -0.005714 0
M  V30 4 C -1.287990 -5.305800 -0.361811 0
M  V30 5 C -1.243293 -4.314023 0.595414 0
M  V30 6 C -0.821572 -2.960792 0.245205 0
M  V30 7 C -0.714961 -1.843283 1.049587 0
M  V30 8 C -0.268870 -0.764817 0.266912 0
M  V30 9 C -0.060133 0.539530 0.918691 0 CFG=1
M  V30 10 C 1.372513 1.030690 0.781910 0 CFG=2
M  V30 11 C 1.993356 1.802658 1.923198 0
M  V30 12 N 1.383830 3.089324 1.951113 0
M  V30 13 C 2.154405 4.171761 1.449013 0
M  V30 14 C 3.458416 4.454282 2.152463 0
M  V30 15 O 4.007466 4.787154 0.914277 0
M  V30 16 C 3.119360 3.887826 0.322512 0
M  V30 17 C 0.128516 3.029710 1.232868 0
M  V30 18 C 0.238545 1.809641 0.293771 0 CFG=2
M  V30 19 N -0.128564 -1.267619 -0.955786 0
M  V30 20 C 0.276634 -0.595150 -2.155816 0
M  V30 21 C -0.950938 -0.148345 -2.906167 0
M  V30 22 C -1.949564 0.767743 -2.368179 0
M  V30 23 C -1.006664 1.300829 -3.356760 0
M  V30 24 N -0.452141 -2.570725 -0.985469 0
M  V30 25 C -1.606722 -4.651190 1.882706 0
M  V30 26 C -2.004603 -5.925707 2.228963 0
M  V30 27 C -2.394893 -6.280423 3.626098 0
M  V30 28 F -2.264473 -5.128433 4.385387 0
M  V30 29 F -3.737142 -6.606898 3.607938 0
M  V30 30 F -1.596396 -7.309046 4.083768 0
M  V30 31 H -1.633909 -8.871648 1.712495 0
M  V30 32 H -3.481414 -8.132796 1.586396 0
M  V30 33 H -1.001229 -5.030461 -1.363725 0
M  V30 34 H -0.974338 -1.961683 2.093791 0
M  V30 35 H -0.375498 0.565321 1.998844 0
M  V30 36 H 2.092287 0.475234 0.181545 0
M  V30 37 H 1.705146 1.227291 2.850077 0
M  V30 38 H 3.079627 1.772731 1.897139 0
M  V30 39 H 1.563620 5.065281 1.249289 0
M  V30 40 H 3.373920 5.384397 2.774521 0
M  V30 41 H 3.917338 3.589643 2.667286 0
M  V30 42 H 3.575794 2.902845 0.276815 0
M  V30 43 H 2.718284 4.187512 -0.663416 0
M  V30 44 H -0.057413 3.950437 0.679372 0
M  V30 45 H -0.731417 2.819424 1.908394 0
M  V30 46 H 0.177347 2.056716 -0.761834 0
M  V30 47 H 0.984366 0.218540 -1.910826 0
M  V30 48 H 0.862847 -1.317463 -2.817829 0
M  V30 49 H -1.292226 -0.910206 -3.683642 0
M  V30 50 H -3.002425 0.622406 -2.761892 0
M  V30 51 H -1.956801 0.984372 -1.298921 0
M  V30 52 H -0.189612 1.969056 -3.086048 0
M  V30 53 H -1.363592 1.469786 -4.402160 0
M  V30 54 H -1.580260 -3.885680 2.657651 0
M  V30 END ATOM
M  V30 BEGIN BOND
M  V30 1 1 1 2
M  V30 2 2 2 3
M  V30 3 1 3 4
M  V30 4 2 4 5
M  V30 5 1 5 6
M  V30 6 1 6 7
M  V30 7 2 7 8
M  V30 8 1 8 9
M  V30 9 1 9 10
M  V30 10 1 10 11
M  V30 11 1 11 12
M  V30 12 1 12 13
M  V30 13 1 13 14
M  V30 14 1 14 15
M  V30 15 1 15 16
M  V30 16 1 12 17
M  V30 17 1 17 18
M  V30 18 1 8 19
M  V30 19 1 19 20
M  V30 20 1 20 21
M  V30 21 1 21 22
M  V30 22 1 22 23
M  V30 23 1 19 24
M  V30 24 1 5 25
M  V30 25 2 25 26
M  V30 26 1 26 27
M  V30 27 1 27 28
M  V30 28 1 27 29
M  V30 29 1 27 30
M  V30 30 1 26 2
M  V30 31 2 24 6
M  V30 32 1 18 9
M  V30 33 1 23 21
M  V30 34 1 18 10
M  V30 35 1 16 13
M  V30 36 1 1 31
M  V30 37 1 1 32
M  V30 38 1 4 33
M  V30 39 1 7 34
M  V30 40 1 9 35 CFG=1
M  V30 41 1 10 36 CFG=3
M  V30 42 1 11 37
M  V30 43 1 11 38
M  V30 44 1 13 39
M  V30 45 1 14 40
M  V30 46 1 14 41
M  V30 47 1 16 42
M  V30 48 1 16 43
M  V30 49 1 17 44
M  V30 50 1 17 45
M  V30 51 1 18 46 CFG=3
M  V30 52 1 20 47
M  V30 53 1 20 48
M  V30 54 1 21 49
M  V30 55 1 22 50
M  V30 56 1 22 51
M  V30 57 1 23 52
M  V30 58 1 23 53
M  V30 59 1 25 54
M  V30 END BOND
M  V30 END CTAB
M  END
>  <Dataset>  (505) 
ChEMBL_Kinases

>  <Ligand_Instance>  (505) 
nan

>  <PDB_ID>  (505) 
nan

>  <Standardized_SMILES>  (505) 
Nc1ncc(-c2cc([C@H]3[C@@H]4CN(C5COC5)C[C@@H]43)n(CC3CC3)n2)cc1C(F)(F)F

>  <Name>  (505) 
nan

>  <Pocket>  (505) 
nan

>  <ATP_Site>  (505) 
nan

>  <Peripheral>  (505) 
nan

>  <Num_H_Atoms_ProtBoundConf>  (505) 
nan

>  <Num_Resolved_Atoms>  (505) 
nan

>  <Num_Not_Resolved_Atoms>  (505) 
nan

$$$$
CHEMBL3718495
     RDKit          3D

  0  0  0  0  0  0  0  0  0  0999 V3000
M  V30 BEGIN CTAB
M  V30 COUNTS 43 46 0 0 0
M  V30 BEGIN ATOM
M  V30 1 C 1.404649 2.107693 1.407755 0
M  V30 2 C 1.557829 0.646083 1.750176 0
M  V30 3 C 1.740805 0.485692 3.248606 0
M  V30 4 N 2.658931 0.043250 1.028671 0
M  V30 5 C 3.997171 0.492572 1.160456 0
M  V30 6 C 4.384619 1.531646 1.976492 0
M  V30 7 C 5.677989 1.987295 2.121580 0
M  V30 8 C 6.680269 1.370448 1.403804 0
M  V30 9 C 6.362412 0.322182 0.566747 0
M  V30 10 O 7.355471 -0.323565 -0.174006 0
M  V30 11 C 5.047176 -0.075945 0.475022 0
M  V30 12 C 0.309557 -0.059489 1.301716 0
M  V30 13 O 0.581413 -0.945112 0.451828 0
M  V30 14 N -0.965067 0.287490 1.817029 0
M  V30 15 C -1.953311 -0.581434 1.179084 0
M  V30 16 N -2.584265 -0.468545 0.199397 0
M  V30 17 C -3.461950 -1.308776 -0.308427 0
M  V30 18 C -4.214927 -1.194476 -1.460079 0
M  V30 19 C -5.090110 -2.192397 -1.829216 0
M  V30 20 C -5.298171 -3.360273 -1.119124 0
M  V30 21 N -6.019603 -4.491878 -1.158503 0
M  V30 22 N -5.742941 -5.263214 -0.110086 0
M  V30 23 C -4.819552 -4.661063 0.665805 0
M  V30 24 C -4.549747 -3.485390 0.035431 0
M  V30 25 C -3.679851 -2.479847 0.390633 0
M  V30 26 S -2.557075 -2.296214 1.804326 0
M  V30 27 H 1.358351 2.715596 2.344378 0
M  V30 28 H 2.198291 2.450581 0.705444 0
M  V30 29 H 0.431960 2.260023 0.905354 0
M  V30 30 H 2.730885 0.035059 3.459781 0
M  V30 31 H 0.986901 -0.230236 3.655144 0
M  V30 32 H 1.650633 1.463660 3.744846 0
M  V30 33 H 2.515134 -0.769886 0.361920 0
M  V30 34 H 3.650004 2.059311 2.567790 0
M  V30 35 H 5.958396 2.801285 2.765199 0
M  V30 36 H 7.725129 1.640750 1.437308 0
M  V30 37 H 7.049875 -0.898854 -0.971130 0
M  V30 38 H 4.851696 -0.916522 -0.207439 0
M  V30 39 H -1.048229 1.033928 2.510554 0
M  V30 40 H -4.175387 -0.345747 -2.132372 0
M  V30 41 H -5.687377 -2.105275 -2.739675 0
M  V30 42 H -6.690800 -4.667860 -1.946856 0
M  V30 43 H -4.352215 -4.991927 1.603427 0
M  V30 END ATOM
M  V30 BEGIN BOND
M  V30 1 1 1 2
M  V30 2 1 2 3
M  V30 3 1 2 4
M  V30 4 1 4 5
M  V30 5 2 5 6
M  V30 6 1 6 7
M  V30 7 2 7 8
M  V30 8 1 8 9
M  V30 9 1 9 10
M  V30 10 2 9 11
M  V30 11 1 2 12
M  V30 12 2 12 13
M  V30 13 1 12 14
M  V30 14 1 14 15
M  V30 15 2 15 16
M  V30 16 1 16 17
M  V30 17 2 17 18
M  V30 18 1 18 19
M  V30 19 2 19 20
M  V30 20 1 20 21
M  V30 21 1 21 22
M  V30 22 2 22 23
M  V30 23 1 23 24
M  V30 24 2 24 25
M  V30 25 1 25 26
M  V30 26 1 11 5
M  V30 27 1 26 15
M  V30 28 1 25 17
M  V30 29 1 24 20
M  V30 30 1 1 27
M  V30 31 1 1 28
M  V30 32 1 1 29
M  V30 33 1 3 30
M  V30 34 1 3 31
M  V30 35 1 3 32
M  V30 36 1 4 33
M  V30 37 1 6 34
M  V30 38 1 7 35
M  V30 39 1 8 36
M  V30 40 1 10 37
M  V30 41 1 11 38
M  V30 42 1 14 39
M  V30 43 1 18 40
M  V30 44 1 19 41
M  V30 45 1 21 42
M  V30 46 1 23 43
M  V30 END BOND
M  V30 END CTAB
M  END
>  <Dataset>  (506) 
ChEMBL_Kinases

>  <Ligand_Instance>  (506) 
nan

>  <PDB_ID>  (506) 
nan

>  <Standardized_SMILES>  (506) 
CC(C)(Nc1cccc(O)c1)C(=O)Nc1nc2ccc3[nH]ncc3c2s1

>  <Name>  (506) 
nan

>  <Pocket>  (506) 
nan

>  <ATP_Site>  (506) 
nan

>  <Peripheral>  (506) 
nan

>  <Num_H_Atoms_ProtBoundConf>  (506) 
nan

>  <Num_Resolved_Atoms>  (506) 
nan

>  <Num_Not_Resolved_Atoms>  (506) 
nan

$$$$
CHEMBL3718650
     RDKit          3D

  0  0  0  0  0  0  0  0  0  0999 V3000
M  V30 BEGIN CTAB
M  V30 COUNTS 49 52 0 0 0
M  V30 BEGIN ATOM
M  V30 1 C -0.260720 -3.847573 3.913362 0
M  V30 2 C 0.711968 -3.568989 2.821382 0
M  V30 3 O 0.204901 -3.712649 1.657564 0
M  V30 4 N 2.093265 -3.174827 2.876678 0
M  V30 5 C 2.717432 -2.995549 1.610471 0
M  V30 6 C 2.714326 -1.772025 0.962489 0
M  V30 7 C 3.305705 -1.551424 -0.264324 0
M  V30 8 N 3.292336 -0.298212 -0.908724 0
M  V30 9 C 2.659832 0.839469 -0.329417 0
M  V30 10 C 3.195269 1.269894 0.999181 0
M  V30 11 C 2.804135 2.043577 -1.269937 0
M  V30 12 C 1.176439 0.589687 -0.280058 0
M  V30 13 O 0.610114 -0.466073 -0.692366 0
M  V30 14 N 0.338357 1.596055 0.262970 0
M  V30 15 C -1.033833 1.171930 0.221964 0
M  V30 16 N -1.721547 0.297546 -0.095683 0
M  V30 17 C -3.041473 0.209765 0.008612 0
M  V30 18 C -3.872179 -0.832452 -0.368801 0
M  V30 19 C -5.223196 -0.733632 -0.177347 0
M  V30 20 C -5.875881 0.355197 0.382497 0
M  V30 21 N -7.117029 0.754723 0.696980 0
M  V30 22 N -7.079010 1.976650 1.241372 0
M  V30 23 C -5.790051 2.413173 1.296992 0
M  V30 24 C -5.058368 1.399502 0.762283 0
M  V30 25 C -3.697466 1.310885 0.574330 0
M  V30 26 S -2.300611 2.406905 0.914266 0
M  V30 27 C 3.913783 -2.662799 -0.810700 0
M  V30 28 C 3.960556 -3.908442 -0.232785 0
M  V30 29 C 3.354356 -4.059828 0.984840 0
M  V30 30 Cl 3.391467 -5.631917 1.755312 0
M  V30 31 H 0.113336 -3.535048 4.913691 0
M  V30 32 H -0.505839 -4.941581 3.952515 0
M  V30 33 H -1.210829 -3.314652 3.678501 0
M  V30 34 H 2.405646 -3.086594 3.888234 0
M  V30 35 H 2.214479 -0.985736 1.479433 0
M  V30 36 H 3.767464 -0.226688 -1.838641 0
M  V30 37 H 2.344652 1.399600 1.703818 0
M  V30 38 H 4.001832 0.612469 1.389339 0
M  V30 39 H 3.675278 2.291938 0.973546 0
M  V30 40 H 2.317972 2.938178 -0.882740 0
M  V30 41 H 3.918411 2.206441 -1.323054 0
M  V30 42 H 2.493891 1.714749 -2.273556 0
M  V30 43 H 0.662008 2.510900 0.638422 0
M  V30 44 H -3.537025 -1.756718 -0.820192 0
M  V30 45 H -5.895802 -1.542736 -0.467322 0
M  V30 46 H -7.942141 0.143721 0.512537 0
M  V30 47 H -5.461470 3.372907 1.692048 0
M  V30 48 H 4.409627 -2.575192 -1.787296 0
M  V30 49 H 4.448537 -4.751975 -0.697086 0
M  V30 END ATOM
M  V30 BEGIN BOND
M  V30 1 1 1 2
M  V30 2 2 2 3
M  V30 3 1 2 4
M  V30 4 1 4 5
M  V30 5 2 5 6
M  V30 6 1 6 7
M  V30 7 1 7 8
M  V30 8 1 8 9
M  V30 9 1 9 10
M  V30 10 1 9 11
M  V30 11 1 9 12
M  V30 12 2 12 13
M  V30 13 1 12 14
M  V30 14 1 14 15
M  V30 15 2 15 16
M  V30 16 1 16 17
M  V30 17 2 17 18
M  V30 18 1 18 19
M  V30 19 2 19 20
M  V30 20 1 20 21
M  V30 21 1 21 22
M  V30 22 2 22 23
M  V30 23 1 23 24
M  V30 24 2 24 25
M  V30 25 1 25 26
M  V30 26 2 7 27
M  V30 27 1 27 28
M  V30 28 2 28 29
M  V30 29 1 29 30
M  V30 30 1 29 5
M  V30 31 1 26 15
M  V30 32 1 25 17
M  V30 33 1 24 20
M  V30 34 1 1 31
M  V30 35 1 1 32
M  V30 36 1 1 33
M  V30 37 1 4 34
M  V30 38 1 6 35
M  V30 39 1 8 36
M  V30 40 1 10 37
M  V30 41 1 10 38
M  V30 42 1 10 39
M  V30 43 1 11 40
M  V30 44 1 11 41
M  V30 45 1 11 42
M  V30 46 1 14 43
M  V30 47 1 18 44
M  V30 48 1 19 45
M  V30 49 1 21 46
M  V30 50 1 23 47
M  V30 51 1 27 48
M  V30 52 1 28 49
M  V30 END BOND
M  V30 END CTAB
M  END
>  <Dataset>  (507) 
ChEMBL_Kinases

>  <Ligand_Instance>  (507) 
nan

>  <PDB_ID>  (507) 
nan

>  <Standardized_SMILES>  (507) 
CC(=O)Nc1cc(NC(C)(C)C(=O)Nc2nc3ccc4[nH]ncc4c3s2)ccc1Cl

>  <Name>  (507) 
nan

>  <Pocket>  (507) 
nan

>  <ATP_Site>  (507) 
nan

>  <Peripheral>  (507) 
nan

>  <Num_H_Atoms_ProtBoundConf>  (507) 
nan

>  <Num_Resolved_Atoms>  (507) 
nan

>  <Num_Not_Resolved_Atoms>  (507) 
nan

$$$$
CHEMBL3718736
     RDKit          3D

  0  0  0  0  0  0  0  0  0  0999 V3000
M  V30 BEGIN CTAB
M  V30 COUNTS 56 58 0 0 0
M  V30 BEGIN ATOM
M  V30 1 C 1.025071 -5.493746 6.423286 0
M  V30 2 C 2.393656 -5.164911 5.877387 0
M  V30 3 C 2.360964 -3.885404 5.038895 0
M  V30 4 C 3.738146 -3.601102 4.520111 0
M  V30 5 O 3.832555 -2.465663 3.749439 0
M  V30 6 C 3.256603 -2.108954 2.576171 0
M  V30 7 C 3.701940 -0.819127 2.246597 0
M  V30 8 C 3.287229 -0.158597 1.081809 0
M  V30 9 C 2.411548 -0.795907 0.228676 0
M  V30 10 C 1.892507 -0.220067 -1.030676 0
M  V30 11 O 1.087432 -0.857419 -1.770475 0
M  V30 12 N 2.248010 1.071986 -1.505227 0
M  V30 13 C 1.747237 1.632785 -2.711435 0
M  V30 14 C 0.281949 1.827568 -2.768897 0
M  V30 15 O -0.026481 2.314609 -3.914753 0
M  V30 16 N -0.790743 1.597396 -1.860313 0
M  V30 17 C -2.127452 1.892922 -2.222745 0
M  V30 18 C -2.773857 2.948058 -1.344766 0
M  V30 19 C -4.096880 3.309933 -1.935628 0
M  V30 20 C -4.611085 2.377530 -2.984335 0
M  V30 21 C -4.359808 0.972155 -2.561559 0
M  V30 22 C -5.294845 -0.040817 -2.543407 0
M  V30 23 C -4.888748 -1.296332 -2.119143 0
M  V30 24 C -3.590119 -1.552042 -1.720580 0
M  V30 25 C -2.644331 -0.523034 -1.740054 0
M  V30 26 C -3.055836 0.732607 -2.165736 0
M  V30 27 C 1.967853 -2.062595 0.541992 0
M  V30 28 C 2.385972 -2.691925 1.687066 0
M  V30 29 H 0.970491 -5.366786 7.513188 0
M  V30 30 H 0.739515 -6.538775 6.173189 0
M  V30 31 H 0.273733 -4.817314 5.948699 0
M  V30 32 H 3.076502 -5.042698 6.758014 0
M  V30 33 H 2.753957 -6.016786 5.269350 0
M  V30 34 H 2.058400 -3.051856 5.719562 0
M  V30 35 H 1.617651 -4.035724 4.257159 0
M  V30 36 H 4.126108 -4.509239 3.993301 0
M  V30 37 H 4.382331 -3.459308 5.435397 0
M  V30 38 H 4.391033 -0.168506 2.800033 0
M  V30 39 H 3.599133 0.828621 0.784839 0
M  V30 40 H 2.910908 1.639140 -0.939726 0
M  V30 41 H 2.235562 2.618706 -2.946270 0
M  V30 42 H 2.034286 0.977998 -3.585855 0
M  V30 43 H -0.437712 1.218568 -0.973166 0
M  V30 44 H -2.146248 2.297395 -3.255625 0
M  V30 45 H -2.109843 3.819099 -1.180477 0
M  V30 46 H -2.886115 2.464076 -0.345626 0
M  V30 47 H -4.021819 4.360382 -2.316140 0
M  V30 48 H -4.847514 3.307409 -1.098380 0
M  V30 49 H -5.718079 2.570721 -3.069495 0
M  V30 50 H -4.207749 2.592027 -4.003365 0
M  V30 51 H -6.295994 0.213143 -2.865106 0
M  V30 52 H -5.645171 -2.077214 -2.114319 0
M  V30 53 H -3.320582 -2.561278 -1.394059 0
M  V30 54 H -1.637628 -0.686734 -1.439792 0
M  V30 55 H 1.272995 -2.641535 -0.077102 0
M  V30 56 H 2.096866 -3.679304 2.002920 0
M  V30 END ATOM
M  V30 BEGIN BOND
M  V30 1 1 1 2
M  V30 2 1 2 3
M  V30 3 1 3 4
M  V30 4 1 4 5
M  V30 5 1 5 6
M  V30 6 2 6 7
M  V30 7 1 7 8
M  V30 8 2 8 9
M  V30 9 1 9 10
M  V30 10 2 10 11
M  V30 11 1 10 12
M  V30 12 1 12 13
M  V30 13 1 13 14
M  V30 14 2 14 15
M  V30 15 1 14 16
M  V30 16 1 16 17
M  V30 17 1 17 18
M  V30 18 1 18 19
M  V30 19 1 19 20
M  V30 20 1 20 21
M  V30 21 2 21 22
M  V30 22 1 22 23
M  V30 23 2 23 24
M  V30 24 1 24 25
M  V30 25 2 25 26
M  V30 26 1 9 27
M  V30 27 2 27 28
M  V30 28 1 28 6
M  V30 29 1 26 17
M  V30 30 1 26 21
M  V30 31 1 1 29
M  V30 32 1 1 30
M  V30 33 1 1 31
M  V30 34 1 2 32
M  V30 35 1 2 33
M  V30 36 1 3 34
M  V30 37 1 3 35
M  V30 38 1 4 36
M  V30 39 1 4 37
M  V30 40 1 7 38
M  V30 41 1 8 39
M  V30 42 1 12 40
M  V30 43 1 13 41
M  V30 44 1 13 42
M  V30 45 1 16 43
M  V30 46 1 17 44
M  V30 47 1 18 45
M  V30 48 1 18 46
M  V30 49 1 19 47
M  V30 50 1 19 48
M  V30 51 1 20 49
M  V30 52 1 20 50
M  V30 53 1 22 51
M  V30 54 1 23 52
M  V30 55 1 24 53
M  V30 56 1 25 54
M  V30 57 1 27 55
M  V30 58 1 28 56
M  V30 END BOND
M  V30 END CTAB
M  END
>  <Dataset>  (508) 
ChEMBL_Kinases

>  <Ligand_Instance>  (508) 
nan

>  <PDB_ID>  (508) 
nan

>  <Standardized_SMILES>  (508) 
CCCCOc1ccc(C(=O)NCC(=O)NC2CCCc3ccccc32)cc1

>  <Name>  (508) 
nan

>  <Pocket>  (508) 
nan

>  <ATP_Site>  (508) 
nan

>  <Peripheral>  (508) 
nan

>  <Num_H_Atoms_ProtBoundConf>  (508) 
nan

>  <Num_Resolved_Atoms>  (508) 
nan

>  <Num_Not_Resolved_Atoms>  (508) 
nan

$$$$
CHEMBL3718849
     RDKit          3D

  0  0  0  0  0  0  0  0  0  0999 V3000
M  V30 BEGIN CTAB
M  V30 COUNTS 52 55 0 0 0
M  V30 BEGIN ATOM
M  V30 1 C 3.930543 -3.426796 1.007847 0
M  V30 2 C 3.316802 -3.342506 2.383261 0
M  V30 3 C 2.502275 -2.115974 2.512927 0
M  V30 4 O 2.474670 -1.397009 1.486814 0
M  V30 5 N 1.787246 -1.721512 3.664631 0
M  V30 6 C 0.989285 -0.577167 3.878638 0
M  V30 7 C 0.727331 0.429996 2.986395 0
M  V30 8 C -0.054634 1.541027 3.213352 0
M  V30 9 N -0.284479 2.558904 2.248066 0
M  V30 10 C 0.234135 2.629367 0.917463 0
M  V30 11 C 1.736724 2.635381 0.955982 0
M  V30 12 C -0.172622 3.978965 0.326430 0
M  V30 13 C -0.230211 1.566160 0.008340 0
M  V30 14 O 0.248996 1.552246 -1.162318 0
M  V30 15 N -1.176473 0.585611 0.402871 0
M  V30 16 C -1.655180 -0.467817 -0.447662 0
M  V30 17 N -2.386614 -1.396432 -0.464091 0
M  V30 18 C -2.622297 -2.219576 -1.456754 0
M  V30 19 C -3.470716 -3.306057 -1.493434 0
M  V30 20 C -3.582278 -4.055572 -2.641545 0
M  V30 21 C -2.903676 -3.827700 -3.820493 0
M  V30 22 N -2.761402 -4.309553 -5.065806 0
M  V30 23 N -1.910750 -3.609351 -5.762394 0
M  V30 24 C -1.414849 -2.594769 -5.025681 0
M  V30 25 C -2.050766 -2.752317 -3.815367 0
M  V30 26 C -1.938565 -1.987308 -2.639574 0
M  V30 27 S -0.957926 -0.522078 -2.202507 0
M  V30 28 C -0.607604 1.602241 4.477275 0
M  V30 29 C -0.391657 0.634988 5.421236 0
M  V30 30 C 0.403701 -0.444320 5.113844 0
M  V30 31 Cl 0.655181 -1.670286 6.365329 0
M  V30 32 H 4.807601 -4.121732 1.077095 0
M  V30 33 H 3.218982 -3.872981 0.272811 0
M  V30 34 H 4.281495 -2.432363 0.644097 0
M  V30 35 H 4.148487 -3.315021 3.130980 0
M  V30 36 H 2.688966 -4.256752 2.504535 0
M  V30 37 H 1.914484 -2.421679 4.418138 0
M  V30 38 H 1.159800 0.366443 2.002441 0
M  V30 39 H -0.921325 3.340499 2.592533 0
M  V30 40 H 2.121514 1.785323 0.356787 0
M  V30 41 H 2.142248 2.531982 1.989307 0
M  V30 42 H 2.173366 3.565764 0.484030 0
M  V30 43 H 0.262237 4.064912 -0.693505 0
M  V30 44 H -1.278461 3.994957 0.330578 0
M  V30 45 H 0.217321 4.738953 1.038785 0
M  V30 46 H -1.606922 0.548361 1.333994 0
M  V30 47 H -4.081429 -3.635224 -0.666298 0
M  V30 48 H -4.258742 -4.926825 -2.680175 0
M  V30 49 H -3.303863 -5.153875 -5.371299 0
M  V30 50 H -0.684867 -1.817935 -5.291840 0
M  V30 51 H -1.246832 2.454391 4.747619 0
M  V30 52 H -0.823911 0.695473 6.390000 0
M  V30 END ATOM
M  V30 BEGIN BOND
M  V30 1 1 1 2
M  V30 2 1 2 3
M  V30 3 2 3 4
M  V30 4 1 3 5
M  V30 5 1 5 6
M  V30 6 2 6 7
M  V30 7 1 7 8
M  V30 8 1 8 9
M  V30 9 1 9 10
M  V30 10 1 10 11
M  V30 11 1 10 12
M  V30 12 1 10 13
M  V30 13 2 13 14
M  V30 14 1 13 15
M  V30 15 1 15 16
M  V30 16 2 16 17
M  V30 17 1 17 18
M  V30 18 2 18 19
M  V30 19 1 19 20
M  V30 20 2 20 21
M  V30 21 1 21 22
M  V30 22 1 22 23
M  V30 23 2 23 24
M  V30 24 1 24 25
M  V30 25 2 25 26
M  V30 26 1 26 27
M  V30 27 2 8 28
M  V30 28 1 28 29
M  V30 29 2 29 30
M  V30 30 1 30 31
M  V30 31 1 30 6
M  V30 32 1 27 16
M  V30 33 1 26 18
M  V30 34 1 25 21
M  V30 35 1 1 32
M  V30 36 1 1 33
M  V30 37 1 1 34
M  V30 38 1 2 35
M  V30 39 1 2 36
M  V30 40 1 5 37
M  V30 41 1 7 38
M  V30 42 1 9 39
M  V30 43 1 11 40
M  V30 44 1 11 41
M  V30 45 1 11 42
M  V30 46 1 12 43
M  V30 47 1 12 44
M  V30 48 1 12 45
M  V30 49 1 15 46
M  V30 50 1 19 47
M  V30 51 1 20 48
M  V30 52 1 22 49
M  V30 53 1 24 50
M  V30 54 1 28 51
M  V30 55 1 29 52
M  V30 END BOND
M  V30 END CTAB
M  END
>  <Dataset>  (509) 
ChEMBL_Kinases

>  <Ligand_Instance>  (509) 
nan

>  <PDB_ID>  (509) 
nan

>  <Standardized_SMILES>  (509) 
CCC(=O)Nc1cc(NC(C)(C)C(=O)Nc2nc3ccc4[nH]ncc4c3s2)ccc1Cl

>  <Name>  (509) 
nan

>  <Pocket>  (509) 
nan

>  <ATP_Site>  (509) 
nan

>  <Peripheral>  (509) 
nan

>  <Num_H_Atoms_ProtBoundConf>  (509) 
nan

>  <Num_Resolved_Atoms>  (509) 
nan

>  <Num_Not_Resolved_Atoms>  (509) 
nan

$$$$
CHEMBL3718891
     RDKit          3D

  0  0  0  0  0  0  0  0  0  0999 V3000
M  V30 BEGIN CTAB
M  V30 COUNTS 51 53 0 0 0
M  V30 BEGIN ATOM
M  V30 1 C 1.719016 0.687842 6.074938 0
M  V30 2 O 2.205339 -0.330313 5.257050 0
M  V30 3 C 2.593345 -0.243892 3.948405 0
M  V30 4 C 3.029693 -1.449701 3.427119 0
M  V30 5 C 3.456496 -1.518197 2.107000 0
M  V30 6 C 3.439845 -0.388069 1.336215 0
M  V30 7 C 3.014887 0.833412 1.809712 0
M  V30 8 O 2.912539 2.069248 1.236550 0
M  V30 9 C 3.226722 2.445548 -0.064349 0
M  V30 10 C 2.478329 1.795685 -1.136227 0
M  V30 11 O 2.859420 2.219737 -2.273499 0
M  V30 12 N 1.450884 0.822868 -1.124762 0
M  V30 13 C 1.058998 0.522115 -2.500864 0
M  V30 14 C -0.007988 -0.479421 -2.564724 0
M  V30 15 O -0.435605 -0.825700 -3.699849 0
M  V30 16 N -0.618382 -1.109668 -1.443633 0
M  V30 17 C -1.660173 -2.089033 -1.458721 0
M  V30 18 C -1.306048 -3.432175 -0.902704 0
M  V30 19 C -1.476314 -3.610629 0.567754 0
M  V30 20 C -1.966990 -2.420146 1.306150 0
M  V30 21 C -3.025013 -1.758217 0.506478 0
M  V30 22 C -4.194489 -1.284228 1.099844 0
M  V30 23 C -5.212145 -0.660488 0.404859 0
M  V30 24 C -5.067444 -0.494239 -0.957581 0
M  V30 25 C -3.928139 -0.943778 -1.605698 0
M  V30 26 C -2.939030 -1.561062 -0.866923 0
M  V30 27 C 2.587868 0.884589 3.143116 0
M  V30 28 H 2.153261 0.589865 7.108804 0
M  V30 29 H 1.937253 1.709845 5.765051 0
M  V30 30 H 0.618080 0.500336 6.227762 0
M  V30 31 H 3.075836 -2.389016 3.963949 0
M  V30 32 H 3.808363 -2.420669 1.635552 0
M  V30 33 H 3.746749 -0.315799 0.298503 0
M  V30 34 H 4.326269 2.317323 -0.281565 0
M  V30 35 H 3.093677 3.565841 -0.126557 0
M  V30 36 H 1.185545 0.528453 -0.162749 0
M  V30 37 H 0.663949 1.472485 -2.919937 0
M  V30 38 H 1.969496 0.233041 -3.064956 0
M  V30 39 H -0.284641 -0.843370 -0.490881 0
M  V30 40 H -1.892333 -2.251099 -2.542746 0
M  V30 41 H -0.281037 -3.665695 -1.266743 0
M  V30 42 H -1.934205 -4.208881 -1.395559 0
M  V30 43 H -0.490412 -3.901560 1.037183 0
M  V30 44 H -2.146107 -4.468263 0.843797 0
M  V30 45 H -1.179086 -1.718590 1.630521 0
M  V30 46 H -2.454908 -2.749380 2.266073 0
M  V30 47 H -4.357445 -1.389617 2.163531 0
M  V30 48 H -6.106285 -0.307308 0.909794 0
M  V30 49 H -5.848865 -0.007448 -1.532690 0
M  V30 50 H -3.767184 -0.836548 -2.674477 0
M  V30 51 H 2.216112 1.747257 3.707348 0
M  V30 END ATOM
M  V30 BEGIN BOND
M  V30 1 1 1 2
M  V30 2 1 2 3
M  V30 3 2 3 4
M  V30 4 1 4 5
M  V30 5 2 5 6
M  V30 6 1 6 7
M  V30 7 1 7 8
M  V30 8 1 8 9
M  V30 9 1 9 10
M  V30 10 2 10 11
M  V30 11 1 10 12
M  V30 12 1 12 13
M  V30 13 1 13 14
M  V30 14 2 14 15
M  V30 15 1 14 16
M  V30 16 1 16 17
M  V30 17 1 17 18
M  V30 18 1 18 19
M  V30 19 1 19 20
M  V30 20 1 20 21
M  V30 21 2 21 22
M  V30 22 1 22 23
M  V30 23 2 23 24
M  V30 24 1 24 25
M  V30 25 2 25 26
M  V30 26 2 7 27
M  V30 27 1 27 3
M  V30 28 1 26 17
M  V30 29 1 26 21
M  V30 30 1 1 28
M  V30 31 1 1 29
M  V30 32 1 1 30
M  V30 33 1 4 31
M  V30 34 1 5 32
M  V30 35 1 6 33
M  V30 36 1 9 34
M  V30 37 1 9 35
M  V30 38 1 12 36
M  V30 39 1 13 37
M  V30 40 1 13 38
M  V30 41 1 16 39
M  V30 42 1 17 40
M  V30 43 1 18 41
M  V30 44 1 18 42
M  V30 45 1 19 43
M  V30 46 1 19 44
M  V30 47 1 20 45
M  V30 48 1 20 46
M  V30 49 1 22 47
M  V30 50 1 23 48
M  V30 51 1 24 49
M  V30 52 1 25 50
M  V30 53 1 27 51
M  V30 END BOND
M  V30 END CTAB
M  END
>  <Dataset>  (510) 
ChEMBL_Kinases

>  <Ligand_Instance>  (510) 
nan

>  <PDB_ID>  (510) 
nan

>  <Standardized_SMILES>  (510) 
COc1cccc(OCC(=O)NCC(=O)NC2CCCc3ccccc32)c1

>  <Name>  (510) 
nan

>  <Pocket>  (510) 
nan

>  <ATP_Site>  (510) 
nan

>  <Peripheral>  (510) 
nan

>  <Num_H_Atoms_ProtBoundConf>  (510) 
nan

>  <Num_Resolved_Atoms>  (510) 
nan

>  <Num_Not_Resolved_Atoms>  (510) 
nan

$$$$
CHEMBL3718940
     RDKit          3D

  0  0  0  0  0  0  0  0  0  0999 V3000
M  V30 BEGIN CTAB
M  V30 COUNTS 58 61 0 0 0
M  V30 BEGIN ATOM
M  V30 1 O -3.394329 -5.087340 2.053530 0
M  V30 2 C -2.932971 -3.916173 1.983891 0
M  V30 3 C -2.696333 -3.156170 3.226563 0
M  V30 4 N -2.130315 -1.862960 3.032875 0
M  V30 5 C -0.817178 -1.887862 2.429923 0
M  V30 6 O -0.226396 -2.958336 2.114326 0
M  V30 7 C -0.111604 -0.639512 2.159404 0
M  V30 8 C 1.147729 -0.728412 1.603653 0
M  V30 9 C 1.914921 0.376659 1.299931 0
M  V30 10 C 1.450695 1.654136 1.542368 0
M  V30 11 N 2.182811 2.853672 1.258928 0
M  V30 12 C 1.773415 4.208899 1.447373 0
M  V30 13 C 2.829669 4.959242 2.235153 0
M  V30 14 C 4.212560 4.703035 1.728767 0
M  V30 15 C 4.137621 3.938244 0.407234 0
M  V30 16 C 3.503574 2.602058 0.712963 0
M  V30 17 C 0.172569 1.724555 2.105834 0
M  V30 18 C -0.601169 0.623491 2.412429 0
M  V30 19 N -2.670712 -3.400365 0.690229 0
M  V30 20 C -2.831184 -3.985137 -0.624624 0
M  V30 21 C -3.876018 -3.167451 -1.348803 0
M  V30 22 C -3.534242 -2.858421 -2.769452 0
M  V30 23 C -2.125966 -2.344966 -2.947007 0
M  V30 24 C -1.175851 -3.364529 -2.440442 0
M  V30 25 C 0.037261 -3.526598 -3.076076 0
M  V30 26 C 0.927493 -4.472120 -2.611827 0
M  V30 27 C 0.563702 -5.231406 -1.511629 0
M  V30 28 C -0.668674 -5.046330 -0.888987 0
M  V30 29 C -1.562259 -4.098734 -1.353227 0
M  V30 30 H -2.101672 -3.739652 3.969907 0
M  V30 31 H -3.710541 -3.042133 3.711311 0
M  V30 32 H -2.613555 -0.978623 3.298655 0
M  V30 33 H 1.646848 -1.674606 1.355493 0
M  V30 34 H 2.914555 0.305761 0.859371 0
M  V30 35 H 1.653010 4.740015 0.465523 0
M  V30 36 H 0.850817 4.279785 2.036991 0
M  V30 37 H 2.716433 4.725925 3.328286 0
M  V30 38 H 2.621138 6.044554 2.141499 0
M  V30 39 H 4.738378 4.029099 2.435919 0
M  V30 40 H 4.841826 5.601577 1.640256 0
M  V30 41 H 3.525934 4.521348 -0.293209 0
M  V30 42 H 5.158660 3.778905 -0.006590 0
M  V30 43 H 4.140773 2.031358 1.418794 0
M  V30 44 H 3.381210 1.987237 -0.214905 0
M  V30 45 H -0.305654 2.660496 2.344373 0
M  V30 46 H -1.581348 0.703080 2.845478 0
M  V30 47 H -2.309627 -2.441135 0.523090 0
M  V30 48 H -3.221546 -5.032768 -0.468528 0
M  V30 49 H -4.846531 -3.707861 -1.335142 0
M  V30 50 H -4.091034 -2.200236 -0.806304 0
M  V30 51 H -3.738172 -3.686455 -3.457913 0
M  V30 52 H -4.204322 -1.998947 -3.066360 0
M  V30 53 H -1.956453 -2.244330 -4.027657 0
M  V30 54 H -1.955232 -1.422030 -2.387221 0
M  V30 55 H 0.319892 -2.931042 -3.937850 0
M  V30 56 H 1.873176 -4.576941 -3.132953 0
M  V30 57 H 1.305348 -5.970392 -1.179150 0
M  V30 58 H -0.806521 -5.711011 -0.047202 0
M  V30 END ATOM
M  V30 BEGIN BOND
M  V30 1 2 1 2
M  V30 2 1 2 3
M  V30 3 1 3 4
M  V30 4 1 4 5
M  V30 5 2 5 6
M  V30 6 1 5 7
M  V30 7 2 7 8
M  V30 8 1 8 9
M  V30 9 2 9 10
M  V30 10 1 10 11
M  V30 11 1 11 12
M  V30 12 1 12 13
M  V30 13 1 13 14
M  V30 14 1 14 15
M  V30 15 1 15 16
M  V30 16 1 10 17
M  V30 17 2 17 18
M  V30 18 1 2 19
M  V30 19 1 19 20
M  V30 20 1 20 21
M  V30 21 1 21 22
M  V30 22 1 22 23
M  V30 23 1 23 24
M  V30 24 2 24 25
M  V30 25 1 25 26
M  V30 26 2 26 27
M  V30 27 1 27 28
M  V30 28 2 28 29
M  V30 29 1 18 7
M  V30 30 1 29 20
M  V30 31 1 16 11
M  V30 32 1 29 24
M  V30 33 1 3 30
M  V30 34 1 3 31
M  V30 35 1 4 32
M  V30 36 1 8 33
M  V30 37 1 9 34
M  V30 38 1 12 35
M  V30 39 1 12 36
M  V30 40 1 13 37
M  V30 41 1 13 38
M  V30 42 1 14 39
M  V30 43 1 14 40
M  V30 44 1 15 41
M  V30 45 1 15 42
M  V30 46 1 16 43
M  V30 47 1 16 44
M  V30 48 1 17 45
M  V30 49 1 18 46
M  V30 50 1 19 47
M  V30 51 1 20 48
M  V30 52 1 21 49
M  V30 53 1 21 50
M  V30 54 1 22 51
M  V30 55 1 22 52
M  V30 56 1 23 53
M  V30 57 1 23 54
M  V30 58 1 25 55
M  V30 59 1 26 56
M  V30 60 1 27 57
M  V30 61 1 28 58
M  V30 END BOND
M  V30 END CTAB
M  END
>  <Dataset>  (511) 
ChEMBL_Kinases

>  <Ligand_Instance>  (511) 
nan

>  <PDB_ID>  (511) 
nan

>  <Standardized_SMILES>  (511) 
O=C(CNC(=O)c1ccc(N2CCCCC2)cc1)NC1CCCc2ccccc21

>  <Name>  (511) 
nan

>  <Pocket>  (511) 
nan

>  <ATP_Site>  (511) 
nan

>  <Peripheral>  (511) 
nan

>  <Num_H_Atoms_ProtBoundConf>  (511) 
nan

>  <Num_Resolved_Atoms>  (511) 
nan

>  <Num_Not_Resolved_Atoms>  (511) 
nan

$$$$
CHEMBL4446498
     RDKit          3D

  0  0  0  0  0  0  0  0  0  0999 V3000
M  V30 BEGIN CTAB
M  V30 COUNTS 50 53 0 0 0
M  V30 BEGIN ATOM
M  V30 1 N 1.872382 -6.528343 1.370697 0
M  V30 2 C 3.115310 -5.821151 1.461363 0
M  V30 3 O 4.172446 -6.445373 1.765620 0
M  V30 4 C 3.134430 -4.366681 1.195226 0
M  V30 5 C 4.342653 -3.709132 1.288683 0
M  V30 6 C 4.322952 -2.352576 1.033771 0
M  V30 7 Cl 5.824596 -1.439522 1.132155 0
M  V30 8 C 3.113335 -1.735103 0.703782 0
M  V30 9 C 2.920560 -0.377953 0.418061 0
M  V30 10 Cl 4.076013 0.944819 0.378993 0
M  V30 11 C 1.558498 -0.329312 0.166384 0
M  V30 12 C 0.872546 0.888657 -0.181274 0
M  V30 13 C 0.299903 1.918340 -0.453556 0
M  V30 14 C -0.393337 3.190199 -0.775825 0
M  V30 15 N -1.001942 3.759227 0.412945 0
M  V30 16 C -0.389581 4.685952 1.340850 0
M  V30 17 C -1.152695 4.557805 2.635525 0
M  V30 18 C -2.435799 3.847444 2.347657 0
M  V30 19 C -2.301635 3.518847 0.889366 0
M  V30 20 O -3.286267 3.086122 0.251005 0
M  V30 21 N 0.974687 -1.516540 0.282265 0
M  V30 22 C -0.382306 -1.934221 0.117898 0 CFG=1
M  V30 23 C -1.370152 -0.870326 -0.166197 0
M  V30 24 C -2.752384 -1.531379 -0.156704 0
M  V30 25 C -2.643876 -3.039441 -0.101556 0
M  V30 26 N -1.705565 -3.594998 -1.025576 0
M  V30 27 C -0.421315 -2.965287 -1.000518 0
M  V30 28 C 1.924769 -2.411757 0.617353 0
M  V30 29 N 1.992170 -3.732544 0.874132 0
M  V30 30 H 0.941355 -6.119809 1.627338 0
M  V30 31 H 0.942919 -6.138917 1.620534 0
M  V30 32 H 5.225250 -4.258092 1.547729 0
M  V30 33 H -1.115472 2.966387 -1.573494 0
M  V30 34 H 0.390168 3.859301 -1.150700 0
M  V30 35 H -0.510204 5.716298 0.929087 0
M  V30 36 H 0.698898 4.519039 1.445265 0
M  V30 37 H -0.544114 4.071941 3.421354 0
M  V30 38 H -1.412375 5.592850 2.997928 0
M  V30 39 H -3.327940 4.503937 2.515446 0
M  V30 40 H -2.534021 2.919816 2.960645 0
M  V30 41 H -0.696468 -2.426264 1.079284 0
M  V30 42 H -1.274792 -0.407468 -1.165940 0
M  V30 43 H -1.370395 -0.162323 0.678538 0
M  V30 44 H -3.345588 -1.246059 0.743971 0
M  V30 45 H -3.376198 -1.210986 -1.017131 0
M  V30 46 H -2.493524 -3.380349 0.942658 0
M  V30 47 H -3.662801 -3.414634 -0.403046 0
M  V30 48 H -2.073461 -3.642778 -1.988645 0
M  V30 49 H 0.410092 -3.678660 -0.902243 0
M  V30 50 H -0.250203 -2.400442 -1.961837 0
M  V30 END ATOM
M  V30 BEGIN BOND
M  V30 1 1 1 2
M  V30 2 2 2 3
M  V30 3 1 2 4
M  V30 4 2 4 5
M  V30 5 1 5 6
M  V30 6 1 6 7
M  V30 7 2 6 8
M  V30 8 1 8 9
M  V30 9 1 9 10
M  V30 10 2 9 11
M  V30 11 1 11 12
M  V30 12 3 12 13
M  V30 13 1 13 14
M  V30 14 1 14 15
M  V30 15 1 15 16
M  V30 16 1 16 17
M  V30 17 1 17 18
M  V30 18 1 18 19
M  V30 19 2 19 20
M  V30 20 1 11 21
M  V30 21 1 21 22
M  V30 22 1 22 23
M  V30 23 1 23 24
M  V30 24 1 24 25
M  V30 25 1 25 26
M  V30 26 1 26 27
M  V30 27 1 21 28
M  V30 28 2 28 29
M  V30 29 1 29 4
M  V30 30 1 28 8
M  V30 31 1 19 15
M  V30 32 1 27 22
M  V30 33 1 1 30
M  V30 34 1 1 31
M  V30 35 1 5 32
M  V30 36 1 14 33
M  V30 37 1 14 34
M  V30 38 1 16 35
M  V30 39 1 16 36
M  V30 40 1 17 37
M  V30 41 1 17 38
M  V30 42 1 18 39
M  V30 43 1 18 40
M  V30 44 1 22 41 CFG=1
M  V30 45 1 23 42
M  V30 46 1 23 43
M  V30 47 1 24 44
M  V30 48 1 24 45
M  V30 49 1 25 46
M  V30 50 1 25 47
M  V30 51 1 26 48
M  V30 52 1 27 49
M  V30 53 1 27 50
M  V30 END BOND
M  V30 END CTAB
M  END
>  <Dataset>  (512) 
ChEMBL_Kinases

>  <Ligand_Instance>  (512) 
nan

>  <PDB_ID>  (512) 
nan

>  <Standardized_SMILES>  (512) 
NC(=O)c1cc(Cl)c2c(Cl)c(C#CCN3CCCC3=O)n([C@H]3CCCNC3)c2n1

>  <Name>  (512) 
nan

>  <Pocket>  (512) 
nan

>  <ATP_Site>  (512) 
nan

>  <Peripheral>  (512) 
nan

>  <Num_H_Atoms_ProtBoundConf>  (512) 
nan

>  <Num_Resolved_Atoms>  (512) 
nan

>  <Num_Not_Resolved_Atoms>  (512) 
nan

$$$$
CHEMBL2442287
     RDKit          3D

  0  0  0  0  0  0  0  0  0  0999 V3000
M  V30 BEGIN CTAB
M  V30 COUNTS 37 39 0 0 0
M  V30 BEGIN ATOM
M  V30 1 C -1.275813 -2.798929 3.763604 0
M  V30 2 N -1.009414 -3.629320 2.659423 0
M  V30 3 C -2.061832 -4.352892 2.065997 0
M  V30 4 C 0.187596 -3.432999 1.945277 0
M  V30 5 C 0.315026 -2.163752 1.168477 0
M  V30 6 N -0.696366 -1.997628 0.148658 0
M  V30 7 C -0.613937 -0.782218 -0.614143 0
M  V30 8 C -1.507698 -0.469181 -1.620970 0
M  V30 9 C -1.393174 0.709798 -2.329410 0
M  V30 10 N -0.428032 1.597611 -2.084608 0
M  V30 11 N -0.077815 2.757246 -2.571177 0
M  V30 12 C 1.010766 3.228069 -1.930381 0
M  V30 13 C 1.386324 2.313412 -0.969579 0
M  V30 14 C 2.492453 2.308989 0.012090 0
M  V30 15 C 2.868668 3.371678 0.806184 0
M  V30 16 N 3.912735 2.945068 1.547212 0
M  V30 17 N 4.167120 1.685918 1.227419 0
M  V30 18 C 3.321118 1.237152 0.282756 0
M  V30 19 C 0.436863 1.295535 -1.111005 0
M  V30 20 N 0.332485 0.150041 -0.416169 0
M  V30 21 H -0.392822 -2.786030 4.440909 0
M  V30 22 H -2.125545 -3.232215 4.347034 0
M  V30 23 H -1.596003 -1.777347 3.471603 0
M  V30 24 H -2.815044 -3.768600 1.502821 0
M  V30 25 H -2.599440 -4.994419 2.819113 0
M  V30 26 H -1.598131 -5.111398 1.369724 0
M  V30 27 H 0.406082 -4.297297 1.251759 0
M  V30 28 H 1.044442 -3.440578 2.670937 0
M  V30 29 H 0.348708 -1.291066 1.869686 0
M  V30 30 H 1.347357 -2.180691 0.715752 0
M  V30 31 H -1.473547 -2.634221 -0.109787 0
M  V30 32 H -2.306954 -1.153810 -1.859036 0
M  V30 33 H -2.093625 0.952751 -3.117481 0
M  V30 34 H 1.571343 4.159331 -2.073972 0
M  V30 35 H 2.367099 4.322736 0.773387 0
M  V30 36 H 4.910134 1.021769 1.597858 0
M  V30 37 H 3.236518 0.281063 -0.206992 0
M  V30 END ATOM
M  V30 BEGIN BOND
M  V30 1 1 1 2
M  V30 2 1 2 3
M  V30 3 1 2 4
M  V30 4 1 4 5
M  V30 5 1 5 6
M  V30 6 1 6 7
M  V30 7 1 7 8
M  V30 8 2 8 9
M  V30 9 1 9 10
M  V30 10 1 10 11
M  V30 11 2 11 12
M  V30 12 1 12 13
M  V30 13 1 13 14
M  V30 14 1 14 15
M  V30 15 2 15 16
M  V30 16 1 16 17
M  V30 17 1 17 18
M  V30 18 2 13 19
M  V30 19 1 19 20
M  V30 20 2 20 7
M  V30 21 1 19 10
M  V30 22 2 18 14
M  V30 23 1 1 21
M  V30 24 1 1 22
M  V30 25 1 1 23
M  V30 26 1 3 24
M  V30 27 1 3 25
M  V30 28 1 3 26
M  V30 29 1 4 27
M  V30 30 1 4 28
M  V30 31 1 5 29
M  V30 32 1 5 30
M  V30 33 1 6 31
M  V30 34 1 8 32
M  V30 35 1 9 33
M  V30 36 1 12 34
M  V30 37 1 15 35
M  V30 38 1 17 36
M  V30 39 1 18 37
M  V30 END BOND
M  V30 END CTAB
M  END
>  <Dataset>  (513) 
ChEMBL_Kinases

>  <Ligand_Instance>  (513) 
nan

>  <PDB_ID>  (513) 
nan

>  <Standardized_SMILES>  (513) 
CN(C)CCNc1ccn2ncc(-c3cn[nH]c3)c2n1

>  <Name>  (513) 
nan

>  <Pocket>  (513) 
nan

>  <ATP_Site>  (513) 
nan

>  <Peripheral>  (513) 
nan

>  <Num_H_Atoms_ProtBoundConf>  (513) 
nan

>  <Num_Resolved_Atoms>  (513) 
nan

>  <Num_Not_Resolved_Atoms>  (513) 
nan

$$$$
CHEMBL3718965
     RDKit          3D

  0  0  0  0  0  0  0  0  0  0999 V3000
M  V30 BEGIN CTAB
M  V30 COUNTS 47 49 0 0 0
M  V30 BEGIN ATOM
M  V30 1 O 1.500247 -3.946147 2.492977 0
M  V30 2 C 1.053051 -2.850647 2.061634 0
M  V30 3 C 2.193061 -2.128043 1.448013 0
M  V30 4 N 1.775415 -0.854495 0.922903 0
M  V30 5 C 2.913460 -0.207589 0.346838 0
M  V30 6 O 3.979813 -0.907668 0.443781 0
M  V30 7 C 2.869314 1.125775 -0.292976 0
M  V30 8 C 1.776419 1.931350 -0.435598 0
M  V30 9 C 1.890413 3.156413 -1.058669 0
M  V30 10 C 3.104074 3.625203 -1.564693 0
M  V30 11 O 3.016144 4.859332 -2.145981 0
M  V30 12 C 3.184752 6.099483 -1.530700 0
M  V30 13 F 3.003687 7.072394 -2.510640 0
M  V30 14 F 4.456061 6.304695 -1.037588 0
M  V30 15 F 2.295499 6.369612 -0.520802 0
M  V30 16 C 4.193345 2.793488 -1.408504 0
M  V30 17 C 4.075682 1.574939 -0.787775 0
M  V30 18 N -0.294316 -2.418804 2.160180 0
M  V30 19 C -1.321039 -3.226624 2.789341 0
M  V30 20 C -2.045875 -2.441622 3.887719 0
M  V30 21 C -2.276429 -1.039371 3.378194 0
M  V30 22 C -2.986086 -0.988685 2.073943 0
M  V30 23 C -3.137939 -2.300476 1.417920 0
M  V30 24 C -4.112387 -2.433164 0.437110 0
M  V30 25 C -4.329556 -3.637276 -0.239135 0
M  V30 26 C -3.537071 -4.726713 0.091968 0
M  V30 27 C -2.565115 -4.599112 1.068404 0
M  V30 28 C -2.359990 -3.423906 1.721907 0
M  V30 29 H 3.040302 -2.006279 2.147425 0
M  V30 30 H 2.531548 -2.723939 0.550929 0
M  V30 31 H 0.883201 -0.293353 0.853792 0
M  V30 32 H 0.852352 1.539981 -0.033536 0
M  V30 33 H 0.966652 3.706071 -1.115252 0
M  V30 34 H 5.109878 3.205647 -1.818950 0
M  V30 35 H 5.039134 1.049403 -0.752032 0
M  V30 36 H -0.499381 -1.482998 1.751143 0
M  V30 37 H -0.917526 -4.169103 3.156120 0
M  V30 38 H -3.052224 -2.907803 4.002465 0
M  V30 39 H -1.490777 -2.414336 4.823123 0
M  V30 40 H -2.853592 -0.513946 4.187889 0
M  V30 41 H -1.291368 -0.527125 3.374983 0
M  V30 42 H -2.519056 -0.224007 1.432629 0
M  V30 43 H -4.036229 -0.619035 2.262182 0
M  V30 44 H -4.731131 -1.566180 0.184943 0
M  V30 45 H -5.113061 -3.660597 -0.995260 0
M  V30 46 H -3.697573 -5.663402 -0.426044 0
M  V30 47 H -1.945698 -5.455614 1.325275 0
M  V30 END ATOM
M  V30 BEGIN BOND
M  V30 1 2 1 2
M  V30 2 1 2 3
M  V30 3 1 3 4
M  V30 4 1 4 5
M  V30 5 2 5 6
M  V30 6 1 5 7
M  V30 7 2 7 8
M  V30 8 1 8 9
M  V30 9 2 9 10
M  V30 10 1 10 11
M  V30 11 1 11 12
M  V30 12 1 12 13
M  V30 13 1 12 14
M  V30 14 1 12 15
M  V30 15 1 10 16
M  V30 16 2 16 17
M  V30 17 1 2 18
M  V30 18 1 18 19
M  V30 19 1 19 20
M  V30 20 1 20 21
M  V30 21 1 21 22
M  V30 22 1 22 23
M  V30 23 2 23 24
M  V30 24 1 24 25
M  V30 25 2 25 26
M  V30 26 1 26 27
M  V30 27 2 27 28
M  V30 28 1 17 7
M  V30 29 1 28 19
M  V30 30 1 28 23
M  V30 31 1 3 29
M  V30 32 1 3 30
M  V30 33 1 4 31
M  V30 34 1 8 32
M  V30 35 1 9 33
M  V30 36 1 16 34
M  V30 37 1 17 35
M  V30 38 1 18 36
M  V30 39 1 19 37
M  V30 40 1 20 38
M  V30 41 1 20 39
M  V30 42 1 21 40
M  V30 43 1 21 41
M  V30 44 1 22 42
M  V30 45 1 22 43
M  V30 46 1 24 44
M  V30 47 1 25 45
M  V30 48 1 26 46
M  V30 49 1 27 47
M  V30 END BOND
M  V30 END CTAB
M  END
>  <Dataset>  (514) 
ChEMBL_Kinases

>  <Ligand_Instance>  (514) 
nan

>  <PDB_ID>  (514) 
nan

>  <Standardized_SMILES>  (514) 
O=C(CNC(=O)c1ccc(OC(F)(F)F)cc1)NC1CCCc2ccccc21

>  <Name>  (514) 
nan

>  <Pocket>  (514) 
nan

>  <ATP_Site>  (514) 
nan

>  <Peripheral>  (514) 
nan

>  <Num_H_Atoms_ProtBoundConf>  (514) 
nan

>  <Num_Resolved_Atoms>  (514) 
nan

>  <Num_Not_Resolved_Atoms>  (514) 
nan

$$$$
CHEMBL3718473
     RDKit          3D

  0  0  0  0  0  0  0  0  0  0999 V3000
M  V30 BEGIN CTAB
M  V30 COUNTS 50 53 0 0 0
M  V30 BEGIN ATOM
M  V30 1 C 4.740128 3.130313 -8.156637 0
M  V30 2 O 3.616061 2.629344 -7.463011 0
M  V30 3 C 3.712866 2.150050 -6.168051 0
M  V30 4 C 4.835649 2.077229 -5.375435 0
M  V30 5 C 4.860226 1.587857 -4.092796 0
M  V30 6 C 3.681733 1.117297 -3.505369 0
M  V30 7 N 3.607097 0.633374 -2.287122 0
M  V30 8 C 2.626730 0.230284 -1.765901 0
M  V30 9 N 2.158253 -0.346983 -0.511307 0
M  V30 10 C 1.713745 0.601343 0.444662 0
M  V30 11 O 1.746052 1.846391 0.166702 0
M  V30 12 C 1.180448 0.371887 1.806851 0
M  V30 13 N 1.134859 -1.035341 2.152037 0
M  V30 14 C 0.612164 -1.143770 3.461908 0
M  V30 15 O 0.327841 -0.016947 3.977691 0
M  V30 16 C 0.375165 -2.370617 4.251630 0
M  V30 17 N -0.994636 -2.840141 3.983991 0
M  V30 18 C -1.080315 -3.701643 2.954282 0
M  V30 19 N -2.323102 -4.139204 2.698839 0
M  V30 20 C -3.358060 -3.727602 3.430766 0
M  V30 21 S -5.093514 -4.107320 3.354200 0
M  V30 22 C -5.600793 -3.071296 4.727650 0
M  V30 23 C -7.027803 -2.989232 5.144079 0
M  V30 24 C -4.391958 -2.494768 5.161120 0
M  V30 25 C -4.589425 -1.583478 6.310657 0
M  V30 26 C -3.257661 -2.844268 4.483786 0
M  V30 27 C -1.990776 -2.385249 4.760002 0
M  V30 28 O -1.662255 -1.574706 5.673399 0
M  V30 29 S 1.366411 0.518124 -3.192001 0
M  V30 30 C 2.564683 1.177575 -4.261820 0
M  V30 31 C 2.540321 1.675537 -5.567001 0
M  V30 32 H 5.324553 3.744656 -7.444658 0
M  V30 33 H 4.384503 3.860377 -8.935179 0
M  V30 34 H 5.333003 2.330364 -8.643855 0
M  V30 35 H 5.726182 2.462944 -5.898552 0
M  V30 36 H 5.850727 1.625370 -3.657977 0
M  V30 37 H 2.095837 -1.331228 -0.199809 0
M  V30 38 H 0.158550 0.760634 1.850785 0
M  V30 39 H 1.837000 0.940303 2.511801 0
M  V30 40 H 1.383176 -1.960960 1.691569 0
M  V30 41 H 0.476422 -2.096006 5.327213 0
M  V30 42 H 1.081233 -3.180317 4.069329 0
M  V30 43 H -0.226961 -4.016625 2.379594 0
M  V30 44 H -7.050886 -2.313120 6.009303 0
M  V30 45 H -7.659558 -2.581455 4.332733 0
M  V30 46 H -7.310708 -4.020487 5.440434 0
M  V30 47 H -5.308571 -0.758938 6.025761 0
M  V30 48 H -5.115804 -2.098274 7.152225 0
M  V30 49 H -3.687850 -1.058373 6.641563 0
M  V30 50 H 1.580541 1.675658 -6.080819 0
M  V30 END ATOM
M  V30 BEGIN BOND
M  V30 1 1 1 2
M  V30 2 1 2 3
M  V30 3 2 3 4
M  V30 4 1 4 5
M  V30 5 2 5 6
M  V30 6 1 6 7
M  V30 7 2 7 8
M  V30 8 1 8 9
M  V30 9 1 9 10
M  V30 10 2 10 11
M  V30 11 1 10 12
M  V30 12 1 12 13
M  V30 13 1 13 14
M  V30 14 2 14 15
M  V30 15 1 14 16
M  V30 16 1 16 17
M  V30 17 1 17 18
M  V30 18 2 18 19
M  V30 19 1 19 20
M  V30 20 1 20 21
M  V30 21 1 21 22
M  V30 22 1 22 23
M  V30 23 2 22 24
M  V30 24 1 24 25
M  V30 25 1 24 26
M  V30 26 1 26 27
M  V30 27 2 27 28
M  V30 28 1 8 29
M  V30 29 1 29 30
M  V30 30 2 30 31
M  V30 31 1 31 3
M  V30 32 1 30 6
M  V30 33 1 27 17
M  V30 34 2 26 20
M  V30 35 1 1 32
M  V30 36 1 1 33
M  V30 37 1 1 34
M  V30 38 1 4 35
M  V30 39 1 5 36
M  V30 40 1 9 37
M  V30 41 1 12 38
M  V30 42 1 12 39
M  V30 43 1 13 40
M  V30 44 1 16 41
M  V30 45 1 16 42
M  V30 46 1 18 43
M  V30 47 1 23 44
M  V30 48 1 23 45
M  V30 49 1 23 46
M  V30 50 1 25 47
M  V30 51 1 25 48
M  V30 52 1 25 49
M  V30 53 1 31 50
M  V30 END BOND
M  V30 END CTAB
M  END
>  <Dataset>  (515) 
ChEMBL_Kinases

>  <Ligand_Instance>  (515) 
nan

>  <PDB_ID>  (515) 
nan

>  <Standardized_SMILES>  (515) 
COc1ccc2nc(NC(=O)CNC(=O)Cn3cnc4sc(C)c(C)c4c3=O)sc2c1

>  <Name>  (515) 
nan

>  <Pocket>  (515) 
nan

>  <ATP_Site>  (515) 
nan

>  <Peripheral>  (515) 
nan

>  <Num_H_Atoms_ProtBoundConf>  (515) 
nan

>  <Num_Resolved_Atoms>  (515) 
nan

>  <Num_Not_Resolved_Atoms>  (515) 
nan

$$$$
CHEMBL3716968
     RDKit          3D

  0  0  0  0  0  0  0  0  0  0999 V3000
M  V30 BEGIN CTAB
M  V30 COUNTS 60 63 0 0 0
M  V30 BEGIN ATOM
M  V30 1 C 2.284191 -3.233668 0.966817 0
M  V30 2 C 0.860760 -2.882242 1.252576 0
M  V30 3 N 0.642209 -1.486504 1.528975 0
M  V30 4 C 0.026688 -0.842746 2.623808 0
M  V30 5 O -0.396725 -1.628752 3.497372 0
M  V30 6 C -0.078285 0.612028 2.677956 0
M  V30 7 C 0.392968 1.475857 1.710858 0
M  V30 8 C 0.259580 2.845392 1.821254 0
M  V30 9 C -0.369232 3.372868 2.941726 0
M  V30 10 O -0.529904 4.753202 3.101619 0
M  V30 11 C -0.030501 5.628069 2.079616 0
M  V30 12 C -0.344264 7.019901 2.517876 0
M  V30 13 C 0.563346 7.720876 3.282864 0
M  V30 14 C 0.200985 9.001884 3.648882 0
M  V30 15 C -1.007682 9.540962 3.263653 0
M  V30 16 C -1.916686 8.842444 2.498855 0
M  V30 17 C -1.562224 7.544015 2.121255 0
M  V30 18 C -0.849642 2.537658 3.923100 0
M  V30 19 C -0.699931 1.152621 3.783693 0
M  V30 20 C 0.058952 -3.174399 0.010209 0
M  V30 21 O -0.494406 -2.106663 -0.314188 0
M  V30 22 N 0.018813 -4.463550 -0.587202 0
M  V30 23 C -0.785117 -4.634011 -1.781605 0
M  V30 24 C -1.871657 -5.659150 -1.634566 0
M  V30 25 C -1.983004 -6.567164 -2.838049 0
M  V30 26 C -0.701355 -7.293648 -3.063770 0
M  V30 27 C -0.563818 -8.669393 -3.215859 0
M  V30 28 C 0.718707 -9.142771 -3.417086 0
M  V30 29 C 1.813198 -8.310572 -3.466952 0
M  V30 30 C 1.653411 -6.938703 -3.312451 0
M  V30 31 C 0.380367 -6.405720 -3.106655 0
M  V30 32 C 0.152898 -4.949229 -2.935574 0
M  V30 33 H 2.488603 -2.978719 -0.103151 0
M  V30 34 H 3.017916 -2.735799 1.639857 0
M  V30 35 H 2.407554 -4.334322 1.030411 0
M  V30 36 H 0.470156 -3.528431 2.049420 0
M  V30 37 H 1.047682 -0.971334 0.717929 0
M  V30 38 H 0.880329 1.051809 0.845193 0
M  V30 39 H 0.632670 3.498367 1.058896 0
M  V30 40 H 1.065416 5.475249 2.002340 0
M  V30 41 H -0.574258 5.414796 1.137501 0
M  V30 42 H 1.515962 7.317900 3.596673 0
M  V30 43 H 0.862677 9.606496 4.246582 0
M  V30 44 H -1.325847 10.553022 3.537050 0
M  V30 45 H -2.876614 9.207964 2.166301 0
M  V30 46 H -2.240168 6.929860 1.510972 0
M  V30 47 H -1.329662 2.971263 4.775434 0
M  V30 48 H -1.109074 0.559370 4.606550 0
M  V30 49 H 0.553465 -5.253116 -0.171905 0
M  V30 50 H -1.289824 -3.663383 -2.056705 0
M  V30 51 H -2.873596 -5.204542 -1.463685 0
M  V30 52 H -1.688992 -6.335815 -0.749767 0
M  V30 53 H -2.168799 -5.954242 -3.755257 0
M  V30 54 H -2.822762 -7.249020 -2.686899 0
M  V30 55 H -1.486174 -9.196160 -3.157303 0
M  V30 56 H 0.767225 -10.223766 -3.529199 0
M  V30 57 H 2.805393 -8.755968 -3.630621 0
M  V30 58 H 2.521446 -6.269913 -3.351238 0
M  V30 59 H 1.118153 -4.451075 -2.704535 0
M  V30 60 H -0.254843 -4.484348 -3.874981 0
M  V30 END ATOM
M  V30 BEGIN BOND
M  V30 1 1 1 2
M  V30 2 1 2 3
M  V30 3 1 3 4
M  V30 4 2 4 5
M  V30 5 1 4 6
M  V30 6 2 6 7
M  V30 7 1 7 8
M  V30 8 2 8 9
M  V30 9 1 9 10
M  V30 10 1 10 11
M  V30 11 1 11 12
M  V30 12 2 12 13
M  V30 13 1 13 14
M  V30 14 2 14 15
M  V30 15 1 15 16
M  V30 16 2 16 17
M  V30 17 1 9 18
M  V30 18 2 18 19
M  V30 19 1 2 20
M  V30 20 2 20 21
M  V30 21 1 20 22
M  V30 22 1 22 23
M  V30 23 1 23 24
M  V30 24 1 24 25
M  V30 25 1 25 26
M  V30 26 2 26 27
M  V30 27 1 27 28
M  V30 28 2 28 29
M  V30 29 1 29 30
M  V30 30 2 30 31
M  V30 31 1 31 32
M  V30 32 1 19 6
M  V30 33 1 32 23
M  V30 34 1 17 12
M  V30 35 1 31 26
M  V30 36 1 1 33
M  V30 37 1 1 34
M  V30 38 1 1 35
M  V30 39 1 2 36
M  V30 40 1 3 37
M  V30 41 1 7 38
M  V30 42 1 8 39
M  V30 43 1 11 40
M  V30 44 1 11 41
M  V30 45 1 13 42
M  V30 46 1 14 43
M  V30 47 1 15 44
M  V30 48 1 16 45
M  V30 49 1 17 46
M  V30 50 1 18 47
M  V30 51 1 19 48
M  V30 52 1 22 49
M  V30 53 1 23 50
M  V30 54 1 24 51
M  V30 55 1 24 52
M  V30 56 1 25 53
M  V30 57 1 25 54
M  V30 58 1 27 55
M  V30 59 1 28 56
M  V30 60 1 29 57
M  V30 61 1 30 58
M  V30 62 1 32 59
M  V30 63 1 32 60
M  V30 END BOND
M  V30 END CTAB
M  END
>  <Dataset>  (516) 
ChEMBL_Kinases

>  <Ligand_Instance>  (516) 
nan

>  <PDB_ID>  (516) 
nan

>  <Standardized_SMILES>  (516) 
CC(NC(=O)c1ccc(OCc2ccccc2)cc1)C(=O)NC1CCc2ccccc2C1

>  <Name>  (516) 
nan

>  <Pocket>  (516) 
nan

>  <ATP_Site>  (516) 
nan

>  <Peripheral>  (516) 
nan

>  <Num_H_Atoms_ProtBoundConf>  (516) 
nan

>  <Num_Resolved_Atoms>  (516) 
nan

>  <Num_Not_Resolved_Atoms>  (516) 
nan

$$$$
CHEMBL3717041
     RDKit          3D

  0  0  0  0  0  0  0  0  0  0999 V3000
M  V30 BEGIN CTAB
M  V30 COUNTS 52 55 0 0 0
M  V30 BEGIN ATOM
M  V30 1 C 5.536401 -1.137263 6.989157 0
M  V30 2 N 4.405713 -0.481484 6.370472 0
M  V30 3 C 3.924370 -0.911874 5.125244 0
M  V30 4 O 4.474481 -1.884690 4.521414 0
M  V30 5 C 2.820862 -0.428354 4.305030 0
M  V30 6 C 3.133428 0.053448 3.051702 0
M  V30 7 C 2.147307 0.538456 2.189263 0
M  V30 8 N 2.395763 1.052291 0.882904 0
M  V30 9 C 1.367155 1.549241 -0.011528 0
M  V30 10 C 0.590403 2.691972 0.550978 0
M  V30 11 C 2.090981 1.980205 -1.292485 0
M  V30 12 C 0.503908 0.356817 -0.341388 0
M  V30 13 O 0.649194 -0.835774 0.068238 0
M  V30 14 N -0.575522 0.639235 -1.204555 0
M  V30 15 C -1.506941 -0.342212 -1.637884 0
M  V30 16 N -2.499911 -0.427321 -2.342321 0
M  V30 17 C -3.181127 -1.525916 -2.563327 0
M  V30 18 C -4.307376 -1.682874 -3.346618 0
M  V30 19 C -4.937924 -0.559883 -4.090274 0
M  V30 20 F -4.093106 0.025055 -5.008872 0
M  V30 21 F -5.202379 0.442478 -3.146187 0
M  V30 22 F -6.156792 -0.907162 -4.609549 0
M  V30 23 C -4.895467 -2.906363 -3.467721 0
M  V30 24 C -4.477305 -4.074430 -2.867606 0
M  V30 25 N -4.777660 -5.378234 -2.758263 0
M  V30 26 N -3.931379 -6.004198 -1.981973 0
M  V30 27 C -2.998469 -5.143259 -1.517400 0
M  V30 28 C -3.355061 -3.936890 -2.082284 0
M  V30 29 C -2.738108 -2.680071 -1.948400 0
M  V30 30 S -1.319707 -2.090288 -1.060277 0
M  V30 31 C 0.863695 0.489168 2.701644 0
M  V30 32 C 0.539990 0.010586 3.950507 0
M  V30 33 C 1.541525 -0.458266 4.769357 0
M  V30 34 Cl 1.221520 -1.084045 6.371145 0
M  V30 35 H 6.253158 -0.377784 7.380544 0
M  V30 36 H 6.065262 -1.722103 6.220077 0
M  V30 37 H 5.235432 -1.824786 7.807750 0
M  V30 38 H 3.863106 0.320089 6.747174 0
M  V30 39 H 4.156396 0.087229 2.656605 0
M  V30 40 H 3.427759 1.035815 0.622509 0
M  V30 41 H 0.869831 2.992939 1.575240 0
M  V30 42 H -0.507653 2.531199 0.540645 0
M  V30 43 H 0.732042 3.594172 -0.114996 0
M  V30 44 H 3.038854 2.452608 -0.962246 0
M  V30 45 H 1.539370 2.751652 -1.848726 0
M  V30 46 H 2.266929 1.048035 -1.863540 0
M  V30 47 H -0.796459 1.576234 -1.604833 0
M  V30 48 H -5.795745 -3.034562 -4.093431 0
M  V30 49 H -5.621733 -5.759112 -3.278922 0
M  V30 50 H -2.156156 -5.322966 -0.856662 0
M  V30 51 H 0.004716 0.830646 2.147031 0
M  V30 52 H -0.463232 -0.023950 4.341329 0
M  V30 END ATOM
M  V30 BEGIN BOND
M  V30 1 1 1 2
M  V30 2 1 2 3
M  V30 3 2 3 4
M  V30 4 1 3 5
M  V30 5 2 5 6
M  V30 6 1 6 7
M  V30 7 1 7 8
M  V30 8 1 8 9
M  V30 9 1 9 10
M  V30 10 1 9 11
M  V30 11 1 9 12
M  V30 12 2 12 13
M  V30 13 1 12 14
M  V30 14 1 14 15
M  V30 15 2 15 16
M  V30 16 1 16 17
M  V30 17 2 17 18
M  V30 18 1 18 19
M  V30 19 1 19 20
M  V30 20 1 19 21
M  V30 21 1 19 22
M  V30 22 1 18 23
M  V30 23 2 23 24
M  V30 24 1 24 25
M  V30 25 1 25 26
M  V30 26 2 26 27
M  V30 27 1 27 28
M  V30 28 2 28 29
M  V30 29 1 29 30
M  V30 30 2 7 31
M  V30 31 1 31 32
M  V30 32 2 32 33
M  V30 33 1 33 34
M  V30 34 1 33 5
M  V30 35 1 30 15
M  V30 36 1 29 17
M  V30 37 1 28 24
M  V30 38 1 1 35
M  V30 39 1 1 36
M  V30 40 1 1 37
M  V30 41 1 2 38
M  V30 42 1 6 39
M  V30 43 1 8 40
M  V30 44 1 10 41
M  V30 45 1 10 42
M  V30 46 1 10 43
M  V30 47 1 11 44
M  V30 48 1 11 45
M  V30 49 1 11 46
M  V30 50 1 14 47
M  V30 51 1 23 48
M  V30 52 1 25 49
M  V30 53 1 27 50
M  V30 54 1 31 51
M  V30 55 1 32 52
M  V30 END BOND
M  V30 END CTAB
M  END
>  <Dataset>  (517) 
ChEMBL_Kinases

>  <Ligand_Instance>  (517) 
nan

>  <PDB_ID>  (517) 
nan

>  <Standardized_SMILES>  (517) 
CNC(=O)c1cc(NC(C)(C)C(=O)Nc2nc3c(C(F)(F)F)cc4[nH]ncc4c3s2)ccc1Cl

>  <Name>  (517) 
nan

>  <Pocket>  (517) 
nan

>  <ATP_Site>  (517) 
nan

>  <Peripheral>  (517) 
nan

>  <Num_H_Atoms_ProtBoundConf>  (517) 
nan

>  <Num_Resolved_Atoms>  (517) 
nan

>  <Num_Not_Resolved_Atoms>  (517) 
nan

$$$$
CHEMBL3717111
     RDKit          3D

  0  0  0  0  0  0  0  0  0  0999 V3000
M  V30 BEGIN CTAB
M  V30 COUNTS 71 73 0 0 0
M  V30 BEGIN ATOM
M  V30 1 C 5.356610 -2.238028 5.294820 0
M  V30 2 C 5.679371 -3.711850 5.145393 0
M  V30 3 C 6.001989 -4.054118 3.688441 0
M  V30 4 C 4.768037 -3.697021 2.874403 0
M  V30 5 C 4.955750 -3.993846 1.411420 0
M  V30 6 O 3.861611 -3.686213 0.613026 0
M  V30 7 C 3.265446 -2.486573 0.364793 0
M  V30 8 C 3.473338 -1.179289 0.745383 0
M  V30 9 C 2.674353 -0.144659 0.318535 0
M  V30 10 C 1.613425 -0.381537 -0.524390 0
M  V30 11 C 0.826364 0.773450 -0.925295 0
M  V30 12 O 1.146790 1.912373 -0.504506 0
M  V30 13 N -0.294126 0.764035 -1.760869 0
M  V30 14 C -1.072087 1.916216 -2.157057 0 CFG=1
M  V30 15 C -1.034168 2.236338 -3.592200 0
M  V30 16 C -1.501918 1.224007 -4.562768 0
M  V30 17 C -2.950685 0.886164 -4.314579 0
M  V30 18 C -1.417641 1.695725 -6.002395 0
M  V30 19 C -2.442078 1.852182 -1.604680 0
M  V30 20 O -3.465459 2.577912 -1.666821 0
M  V30 21 N -2.789802 0.719856 -0.776558 0
M  V30 22 C -3.961554 0.334162 -0.097007 0
M  V30 23 C -4.618081 -0.930889 -0.543430 0
M  V30 24 C -5.908940 -1.134273 0.201208 0
M  V30 25 C -6.199191 -0.084278 1.246911 0
M  V30 26 C -4.977917 0.041235 2.087166 0
M  V30 27 C -4.936497 -0.042322 3.461233 0
M  V30 28 C -3.745619 0.089449 4.145684 0
M  V30 29 C -2.588239 0.307897 3.426146 0
M  V30 30 C -2.602070 0.396740 2.033218 0
M  V30 31 C -3.803198 0.260722 1.391778 0
M  V30 32 C 1.362709 -1.666081 -0.934117 0
M  V30 33 C 2.176779 -2.703590 -0.496014 0
M  V30 34 H 6.049219 -1.614880 4.697554 0
M  V30 35 H 4.280490 -2.067049 4.996818 0
M  V30 36 H 5.454221 -1.948208 6.360650 0
M  V30 37 H 4.849914 -4.323054 5.523683 0
M  V30 38 H 6.585088 -3.926907 5.749932 0
M  V30 39 H 6.860077 -3.426745 3.408102 0
M  V30 40 H 6.201790 -5.145400 3.667606 0
M  V30 41 H 3.904230 -4.314088 3.205955 0
M  V30 42 H 4.569895 -2.638425 3.061273 0
M  V30 43 H 5.248502 -5.065025 1.267465 0
M  V30 44 H 5.874417 -3.405469 1.103267 0
M  V30 45 H 4.312743 -1.071859 1.385232 0
M  V30 46 H 2.984633 0.827490 0.719212 0
M  V30 47 H -0.617497 -0.171375 -2.150156 0
M  V30 48 H -0.537776 2.787003 -1.638365 0
M  V30 49 H -1.539608 3.228492 -3.729567 0
M  V30 50 H 0.044493 2.458274 -3.850528 0
M  V30 51 H -0.864328 0.314620 -4.490736 0
M  V30 52 H -3.138994 0.225231 -3.470776 0
M  V30 53 H -3.519539 1.854867 -4.290104 0
M  V30 54 H -3.345827 0.328809 -5.213164 0
M  V30 55 H -2.385197 2.093569 -6.387427 0
M  V30 56 H -1.209172 0.809015 -6.667600 0
M  V30 57 H -0.645847 2.440555 -6.190844 0
M  V30 58 H -2.123432 -0.078322 -0.536340 0
M  V30 59 H -4.734028 1.118786 -0.270549 0
M  V30 60 H -4.018241 -1.837481 -0.415053 0
M  V30 61 H -4.879912 -0.817248 -1.632404 0
M  V30 62 H -6.783887 -1.242349 -0.505803 0
M  V30 63 H -5.922365 -2.118456 0.754027 0
M  V30 64 H -6.543682 0.867229 0.810239 0
M  V30 65 H -6.987199 -0.502432 1.913101 0
M  V30 66 H -5.883626 -0.215497 3.972750 0
M  V30 67 H -3.762095 0.016265 5.231434 0
M  V30 68 H -1.636902 0.413957 3.956994 0
M  V30 69 H -1.700898 0.568881 1.448389 0
M  V30 70 H 0.514588 -1.764342 -1.592730 0
M  V30 71 H 1.829726 -3.641755 -0.918806 0
M  V30 END ATOM
M  V30 BEGIN BOND
M  V30 1 1 1 2
M  V30 2 1 2 3
M  V30 3 1 3 4
M  V30 4 1 4 5
M  V30 5 1 5 6
M  V30 6 1 6 7
M  V30 7 2 7 8
M  V30 8 1 8 9
M  V30 9 2 9 10
M  V30 10 1 10 11
M  V30 11 2 11 12
M  V30 12 1 11 13
M  V30 13 1 13 14
M  V30 14 1 14 15
M  V30 15 1 15 16
M  V30 16 1 16 17
M  V30 17 1 16 18
M  V30 18 1 14 19
M  V30 19 2 19 20
M  V30 20 1 19 21
M  V30 21 1 21 22
M  V30 22 1 22 23
M  V30 23 1 23 24
M  V30 24 1 24 25
M  V30 25 1 25 26
M  V30 26 2 26 27
M  V30 27 1 27 28
M  V30 28 2 28 29
M  V30 29 1 29 30
M  V30 30 2 30 31
M  V30 31 1 10 32
M  V30 32 2 32 33
M  V30 33 1 33 7
M  V30 34 1 31 22
M  V30 35 1 31 26
M  V30 36 1 1 34
M  V30 37 1 1 35
M  V30 38 1 1 36
M  V30 39 1 2 37
M  V30 40 1 2 38
M  V30 41 1 3 39
M  V30 42 1 3 40
M  V30 43 1 4 41
M  V30 44 1 4 42
M  V30 45 1 5 43
M  V30 46 1 5 44
M  V30 47 1 8 45
M  V30 48 1 9 46
M  V30 49 1 13 47
M  V30 50 1 14 48 CFG=1
M  V30 51 1 15 49
M  V30 52 1 15 50
M  V30 53 1 16 51
M  V30 54 1 17 52
M  V30 55 1 17 53
M  V30 56 1 17 54
M  V30 57 1 18 55
M  V30 58 1 18 56
M  V30 59 1 18 57
M  V30 60 1 21 58
M  V30 61 1 22 59
M  V30 62 1 23 60
M  V30 63 1 23 61
M  V30 64 1 24 62
M  V30 65 1 24 63
M  V30 66 1 25 64
M  V30 67 1 25 65
M  V30 68 1 27 66
M  V30 69 1 28 67
M  V30 70 1 29 68
M  V30 71 1 30 69
M  V30 72 1 32 70
M  V30 73 1 33 71
M  V30 END BOND
M  V30 END CTAB
M  END
>  <Dataset>  (518) 
ChEMBL_Kinases

>  <Ligand_Instance>  (518) 
nan

>  <PDB_ID>  (518) 
nan

>  <Standardized_SMILES>  (518) 
CCCCCOc1ccc(C(=O)N[C@@H](CC(C)C)C(=O)NC2CCCc3ccccc32)cc1

>  <Name>  (518) 
nan

>  <Pocket>  (518) 
nan

>  <ATP_Site>  (518) 
nan

>  <Peripheral>  (518) 
nan

>  <Num_H_Atoms_ProtBoundConf>  (518) 
nan

>  <Num_Resolved_Atoms>  (518) 
nan

>  <Num_Not_Resolved_Atoms>  (518) 
nan

$$$$
CHEMBL3717193
     RDKit          3D

  0  0  0  0  0  0  0  0  0  0999 V3000
M  V30 BEGIN CTAB
M  V30 COUNTS 60 64 0 0 0
M  V30 BEGIN ATOM
M  V30 1 C 9.069567 -1.840387 3.119203 0
M  V30 2 O 8.355733 -0.846773 3.775321 0
M  V30 3 C 7.350851 -0.058749 3.310724 0
M  V30 4 C 6.682738 0.921563 4.039720 0
M  V30 5 C 5.678833 1.688970 3.531523 0
M  V30 6 C 5.231511 1.560253 2.235501 0
M  V30 7 N 4.288222 2.205323 1.589544 0
M  V30 8 C 3.920192 2.096548 0.520231 0
M  V30 9 N 2.863144 2.796343 -0.251340 0
M  V30 10 C 1.612503 2.109288 -0.101819 0
M  V30 11 O 1.865685 1.117409 0.662664 0
M  V30 12 C 0.478890 2.725012 -0.836707 0
M  V30 13 C -0.808610 1.925833 -0.611264 0
M  V30 14 C -1.178998 1.878978 0.835098 0
M  V30 15 N -2.380275 1.137831 1.113588 0
M  V30 16 C -3.648135 1.477190 0.564809 0
M  V30 17 O -3.675089 2.481660 -0.193131 0
M  V30 18 C -4.928983 0.757495 0.805505 0
M  V30 19 N -5.165633 -0.269599 -0.222859 0
M  V30 20 C -5.835588 0.161675 -1.278441 0
M  V30 21 N -6.083927 -0.710672 -2.246383 0
M  V30 22 C -5.600513 -2.039851 -2.054117 0
M  V30 23 S -5.729977 -3.513319 -3.133451 0
M  V30 24 C -4.837854 -4.585748 -2.008981 0
M  V30 25 C -4.522311 -3.760779 -0.933680 0
M  V30 26 C -4.894950 -2.460777 -0.924035 0
M  V30 27 C -4.691867 -1.479519 0.017936 0
M  V30 28 O -4.080224 -1.724148 1.066030 0
M  V30 29 C -3.772150 -4.556849 0.074276 0
M  V30 30 C -2.526399 -5.078990 -0.658083 0
M  V30 31 C -2.943923 -6.144687 -1.651012 0
M  V30 32 C -4.412504 -6.020064 -2.002979 0
M  V30 33 S 5.077501 0.699748 -0.060953 0
M  V30 34 C 5.878951 0.589335 1.481075 0
M  V30 35 C 6.927786 -0.213474 2.009913 0
M  V30 36 H 9.042504 -2.783444 3.740505 0
M  V30 37 H 10.173225 -1.599147 3.096270 0
M  V30 38 H 8.795436 -2.048617 2.084465 0
M  V30 39 H 7.049994 1.014486 5.075236 0
M  V30 40 H 5.275829 2.408137 4.262994 0
M  V30 41 H 3.073344 3.670560 -0.808385 0
M  V30 42 H 0.693393 2.769191 -1.918698 0
M  V30 43 H 0.297829 3.729528 -0.458620 0
M  V30 44 H -0.560932 0.882760 -0.937474 0
M  V30 45 H -1.601334 2.269794 -1.282454 0
M  V30 46 H -0.339989 1.397119 1.377083 0
M  V30 47 H -1.223069 2.919855 1.256037 0
M  V30 48 H -2.370428 0.304722 1.743398 0
M  V30 49 H -4.942499 0.269573 1.806299 0
M  V30 50 H -5.732589 1.506866 0.806018 0
M  V30 51 H -6.219628 1.146722 -1.470816 0
M  V30 52 H -4.367096 -5.447820 0.342457 0
M  V30 53 H -3.443225 -3.966217 0.929169 0
M  V30 54 H -1.752802 -5.444610 0.041755 0
M  V30 55 H -2.103446 -4.188639 -1.169095 0
M  V30 56 H -2.286066 -6.112519 -2.542593 0
M  V30 57 H -2.807213 -7.127929 -1.157789 0
M  V30 58 H -5.048580 -6.662297 -1.373825 0
M  V30 59 H -4.522861 -6.368594 -3.050654 0
M  V30 60 H 7.312682 -0.910513 1.290163 0
M  V30 END ATOM
M  V30 BEGIN BOND
M  V30 1 1 1 2
M  V30 2 1 2 3
M  V30 3 2 3 4
M  V30 4 1 4 5
M  V30 5 2 5 6
M  V30 6 1 6 7
M  V30 7 2 7 8
M  V30 8 1 8 9
M  V30 9 1 9 10
M  V30 10 2 10 11
M  V30 11 1 10 12
M  V30 12 1 12 13
M  V30 13 1 13 14
M  V30 14 1 14 15
M  V30 15 1 15 16
M  V30 16 2 16 17
M  V30 17 1 16 18
M  V30 18 1 18 19
M  V30 19 1 19 20
M  V30 20 2 20 21
M  V30 21 1 21 22
M  V30 22 1 22 23
M  V30 23 1 23 24
M  V30 24 2 24 25
M  V30 25 1 25 26
M  V30 26 1 26 27
M  V30 27 2 27 28
M  V30 28 1 25 29
M  V30 29 1 29 30
M  V30 30 1 30 31
M  V30 31 1 31 32
M  V30 32 1 8 33
M  V30 33 1 33 34
M  V30 34 2 34 35
M  V30 35 1 35 3
M  V30 36 1 34 6
M  V30 37 1 27 19
M  V30 38 2 26 22
M  V30 39 1 32 24
M  V30 40 1 1 36
M  V30 41 1 1 37
M  V30 42 1 1 38
M  V30 43 1 4 39
M  V30 44 1 5 40
M  V30 45 1 9 41
M  V30 46 1 12 42
M  V30 47 1 12 43
M  V30 48 1 13 44
M  V30 49 1 13 45
M  V30 50 1 14 46
M  V30 51 1 14 47
M  V30 52 1 15 48
M  V30 53 1 18 49
M  V30 54 1 18 50
M  V30 55 1 20 51
M  V30 56 1 29 52
M  V30 57 1 29 53
M  V30 58 1 30 54
M  V30 59 1 30 55
M  V30 60 1 31 56
M  V30 61 1 31 57
M  V30 62 1 32 58
M  V30 63 1 32 59
M  V30 64 1 35 60
M  V30 END BOND
M  V30 END CTAB
M  END
>  <Dataset>  (519) 
ChEMBL_Kinases

>  <Ligand_Instance>  (519) 
nan

>  <PDB_ID>  (519) 
nan

>  <Standardized_SMILES>  (519) 
COc1ccc2nc(NC(=O)CCCNC(=O)Cn3cnc4sc5c(c4c3=O)CCCC5)sc2c1

>  <Name>  (519) 
nan

>  <Pocket>  (519) 
nan

>  <ATP_Site>  (519) 
nan

>  <Peripheral>  (519) 
nan

>  <Num_H_Atoms_ProtBoundConf>  (519) 
nan

>  <Num_Resolved_Atoms>  (519) 
nan

>  <Num_Not_Resolved_Atoms>  (519) 
nan

$$$$
CHEMBL4449036
     RDKit          3D

  0  0  0  0  0  0  0  0  0  0999 V3000
M  V30 BEGIN CTAB
M  V30 COUNTS 37 40 0 0 0
M  V30 BEGIN ATOM
M  V30 1 F 1.776090 -2.984039 4.850569 0
M  V30 2 C 0.652338 -3.169026 4.073667 0
M  V30 3 F -0.499781 -3.092439 4.801174 0
M  V30 4 F 0.790987 -4.408124 3.470904 0
M  V30 5 C 0.632938 -2.163708 2.908823 0
M  V30 6 N -0.482586 -2.213470 1.984717 0
M  V30 7 C -0.566884 -1.369294 0.846732 0
M  V30 8 N 0.352886 -0.467423 0.511173 0
M  V30 9 C 0.294793 0.328277 -0.543122 0
M  V30 10 C 1.406143 1.251749 -0.738657 0
M  V30 11 C 1.509727 2.149625 -1.780888 0
M  V30 12 C 2.575525 3.010999 -1.937691 0
M  V30 13 N 3.576926 3.011047 -1.064182 0
M  V30 14 C 3.562349 2.169075 -0.014819 0
M  V30 15 C 2.490525 1.312850 0.130233 0
M  V30 16 C -0.736469 0.310468 -1.419887 0
M  V30 17 C -1.727708 -0.603518 -1.131381 0
M  V30 18 C -2.828078 -0.682573 -1.991323 0
M  V30 19 N -3.838374 -1.568689 -1.754757 0
M  V30 20 C -3.778435 -2.389891 -0.666704 0
M  V30 21 C -2.680497 -2.287613 0.161825 0
M  V30 22 C -1.629770 -1.415353 -0.021989 0
M  V30 23 C 1.268106 -0.823088 3.163442 0
M  V30 24 C 2.001950 -1.823616 2.396268 0
M  V30 25 H -1.199047 -2.919482 2.240563 0
M  V30 26 H 0.727085 2.191324 -2.516231 0
M  V30 27 H 2.647893 3.706347 -2.751698 0
M  V30 28 H 4.379136 2.159684 0.709585 0
M  V30 29 H 2.528304 0.656938 0.990647 0
M  V30 30 H -0.833140 0.924150 -2.278251 0
M  V30 31 H -2.882934 -0.037148 -2.853222 0
M  V30 32 H -4.589651 -3.084739 -0.497772 0
M  V30 33 H -2.714179 -2.971728 0.995128 0
M  V30 34 H 1.630948 -0.613762 4.214578 0
M  V30 35 H 0.741964 0.054229 2.763595 0
M  V30 36 H 2.141038 -1.814070 1.301251 0
M  V30 37 H 2.897530 -2.290394 2.890671 0
M  V30 END ATOM
M  V30 BEGIN BOND
M  V30 1 1 1 2
M  V30 2 1 2 3
M  V30 3 1 2 4
M  V30 4 1 2 5
M  V30 5 1 5 6
M  V30 6 1 6 7
M  V30 7 2 7 8
M  V30 8 1 8 9
M  V30 9 1 9 10
M  V30 10 2 10 11
M  V30 11 1 11 12
M  V30 12 2 12 13
M  V30 13 1 13 14
M  V30 14 2 14 15
M  V30 15 2 9 16
M  V30 16 1 16 17
M  V30 17 2 17 18
M  V30 18 1 18 19
M  V30 19 2 19 20
M  V30 20 1 20 21
M  V30 21 2 21 22
M  V30 22 1 5 23
M  V30 23 1 23 24
M  V30 24 1 24 5
M  V30 25 1 22 7
M  V30 26 1 15 10
M  V30 27 1 22 17
M  V30 28 1 6 25
M  V30 29 1 11 26
M  V30 30 1 12 27
M  V30 31 1 14 28
M  V30 32 1 15 29
M  V30 33 1 16 30
M  V30 34 1 18 31
M  V30 35 1 20 32
M  V30 36 1 21 33
M  V30 37 1 23 34
M  V30 38 1 23 35
M  V30 39 1 24 36
M  V30 40 1 24 37
M  V30 END BOND
M  V30 END CTAB
M  END
>  <Dataset>  (520) 
ChEMBL_Kinases

>  <Ligand_Instance>  (520) 
nan

>  <PDB_ID>  (520) 
nan

>  <Standardized_SMILES>  (520) 
FC(F)(F)C1(Nc2nc(-c3ccncc3)cc3cnccc23)CC1

>  <Name>  (520) 
nan

>  <Pocket>  (520) 
nan

>  <ATP_Site>  (520) 
nan

>  <Peripheral>  (520) 
nan

>  <Num_H_Atoms_ProtBoundConf>  (520) 
nan

>  <Num_Resolved_Atoms>  (520) 
nan

>  <Num_Not_Resolved_Atoms>  (520) 
nan

$$$$
CHEMBL3717287
     RDKit          3D

  0  0  0  0  0  0  0  0  0  0999 V3000
M  V30 BEGIN CTAB
M  V30 COUNTS 61 63 0 0 0
M  V30 BEGIN ATOM
M  V30 1 C 2.531268 -0.348221 8.212648 0
M  V30 2 C 2.837268 -1.165145 6.961101 0
M  V30 3 C 3.964581 -0.488239 6.176820 0
M  V30 4 C 3.484765 0.879586 5.812648 0
M  V30 5 C 4.450340 1.709433 5.032700 0
M  V30 6 C 4.862596 1.148103 3.712428 0
M  V30 7 C 3.769543 0.942186 2.755146 0
M  V30 8 C 3.485996 2.032068 1.920801 0
M  V30 9 C 2.478067 2.011878 0.949006 0
M  V30 10 C 1.730352 0.862443 0.809028 0
M  V30 11 C 0.685752 0.854982 -0.207351 0
M  V30 12 O 0.544010 1.917399 -0.904115 0
M  V30 13 N -0.198086 -0.186930 -0.523293 0
M  V30 14 C -1.057708 0.283157 -1.611396 0
M  V30 15 C -1.965222 -0.892463 -1.878657 0
M  V30 16 O -1.512978 -1.708857 -1.003572 0
M  V30 17 N -3.022512 -1.042762 -2.834903 0
M  V30 18 C -3.745951 -2.304502 -2.874339 0
M  V30 19 C -5.173440 -2.017558 -2.538763 0
M  V30 20 C -6.030193 -1.965557 -3.759194 0
M  V30 21 C -5.242756 -1.662388 -4.982228 0
M  V30 22 C -4.323841 -2.781353 -5.341995 0
M  V30 23 C -4.121837 -3.499085 -6.499041 0
M  V30 24 C -3.191389 -4.496671 -6.505535 0
M  V30 25 C -2.487541 -4.755480 -5.367360 0
M  V30 26 C -2.681508 -4.040351 -4.197266 0
M  V30 27 C -3.641073 -3.001757 -4.168755 0
M  V30 28 C 1.983036 -0.225905 1.612664 0
M  V30 29 C 2.983721 -0.171610 2.559832 0
M  V30 30 H 1.879004 0.500928 7.887203 0
M  V30 31 H 2.000826 -0.998225 8.946462 0
M  V30 32 H 3.486500 0.045603 8.635517 0
M  V30 33 H 3.114294 -2.208263 7.238199 0
M  V30 34 H 1.921430 -1.236868 6.340649 0
M  V30 35 H 4.866732 -0.430288 6.834527 0
M  V30 36 H 4.233039 -1.147289 5.356301 0
M  V30 37 H 3.335666 1.425588 6.790916 0
M  V30 38 H 2.499035 0.876613 5.341826 0
M  V30 39 H 5.316050 2.013880 5.622944 0
M  V30 40 H 3.897395 2.667542 4.794309 0
M  V30 41 H 5.391913 0.169976 3.802553 0
M  V30 42 H 5.625496 1.835342 3.289275 0
M  V30 43 H 4.053775 2.962334 1.997513 0
M  V30 44 H 2.321186 2.896685 0.342744 0
M  V30 45 H -0.060059 -1.056419 0.069418 0
M  V30 46 H -0.475985 0.484659 -2.526080 0
M  V30 47 H -1.696842 1.105728 -1.292744 0
M  V30 48 H -3.014146 -0.118835 -3.316568 0
M  V30 49 H -3.265761 -2.912457 -2.052008 0
M  V30 50 H -5.562371 -2.852440 -1.864816 0
M  V30 51 H -5.244414 -1.076055 -1.932293 0
M  V30 52 H -6.625513 -2.896930 -3.910036 0
M  V30 53 H -6.757224 -1.103212 -3.640328 0
M  V30 54 H -5.950153 -1.513308 -5.842799 0
M  V30 55 H -4.644622 -0.743233 -4.908755 0
M  V30 56 H -4.783271 -3.125109 -7.267519 0
M  V30 57 H -3.106789 -5.002360 -7.463588 0
M  V30 58 H -1.764685 -5.573672 -5.470813 0
M  V30 59 H -2.026640 -4.395956 -3.402421 0
M  V30 60 H 1.402207 -1.139815 1.514259 0
M  V30 61 H 3.210852 -1.001158 3.204527 0
M  V30 END ATOM
M  V30 BEGIN BOND
M  V30 1 1 1 2
M  V30 2 1 2 3
M  V30 3 1 3 4
M  V30 4 1 4 5
M  V30 5 1 5 6
M  V30 6 1 6 7
M  V30 7 2 7 8
M  V30 8 1 8 9
M  V30 9 2 9 10
M  V30 10 1 10 11
M  V30 11 2 11 12
M  V30 12 1 11 13
M  V30 13 1 13 14
M  V30 14 1 14 15
M  V30 15 2 15 16
M  V30 16 1 15 17
M  V30 17 1 17 18
M  V30 18 1 18 19
M  V30 19 1 19 20
M  V30 20 1 20 21
M  V30 21 1 21 22
M  V30 22 2 22 23
M  V30 23 1 23 24
M  V30 24 2 24 25
M  V30 25 1 25 26
M  V30 26 2 26 27
M  V30 27 1 10 28
M  V30 28 2 28 29
M  V30 29 1 29 7
M  V30 30 1 27 18
M  V30 31 1 27 22
M  V30 32 1 1 30
M  V30 33 1 1 31
M  V30 34 1 1 32
M  V30 35 1 2 33
M  V30 36 1 2 34
M  V30 37 1 3 35
M  V30 38 1 3 36
M  V30 39 1 4 37
M  V30 40 1 4 38
M  V30 41 1 5 39
M  V30 42 1 5 40
M  V30 43 1 6 41
M  V30 44 1 6 42
M  V30 45 1 8 43
M  V30 46 1 9 44
M  V30 47 1 13 45
M  V30 48 1 14 46
M  V30 49 1 14 47
M  V30 50 1 17 48
M  V30 51 1 18 49
M  V30 52 1 19 50
M  V30 53 1 19 51
M  V30 54 1 20 52
M  V30 55 1 20 53
M  V30 56 1 21 54
M  V30 57 1 21 55
M  V30 58 1 23 56
M  V30 59 1 24 57
M  V30 60 1 25 58
M  V30 61 1 26 59
M  V30 62 1 28 60
M  V30 63 1 29 61
M  V30 END BOND
M  V30 END CTAB
M  END
>  <Dataset>  (521) 
ChEMBL_Kinases

>  <Ligand_Instance>  (521) 
nan

>  <PDB_ID>  (521) 
nan

>  <Standardized_SMILES>  (521) 
CCCCCCc1ccc(C(=O)NCC(=O)NC2CCCc3ccccc32)cc1

>  <Name>  (521) 
nan

>  <Pocket>  (521) 
nan

>  <ATP_Site>  (521) 
nan

>  <Peripheral>  (521) 
nan

>  <Num_H_Atoms_ProtBoundConf>  (521) 
nan

>  <Num_Resolved_Atoms>  (521) 
nan

>  <Num_Not_Resolved_Atoms>  (521) 
nan

$$$$
CHEMBL243985
     RDKit          3D

  0  0  0  0  0  0  0  0  0  0999 V3000
M  V30 BEGIN CTAB
M  V30 COUNTS 37 40 0 0 0
M  V30 BEGIN ATOM
M  V30 1 C 3.600812 -0.940506 3.139781 0
M  V30 2 C 2.460637 -1.795597 2.745486 0
M  V30 3 O 2.405031 -3.010928 3.070600 0
M  V30 4 O 1.473340 -1.179411 2.006024 0
M  V30 5 N 0.378869 -1.891384 1.595599 0
M  V30 6 C -0.224791 -1.813999 0.473897 0
M  V30 7 C 0.273307 -0.878577 -0.446869 0
M  V30 8 C 0.755184 0.309015 -0.459697 0
M  V30 9 C 1.300302 1.255418 -1.409203 0
M  V30 10 O 1.598663 0.773286 -2.538492 0
M  V30 11 N 1.400722 2.566793 -0.891471 0
M  V30 12 C 0.889916 2.459654 0.455569 0
M  V30 13 C 0.773652 3.568683 1.236663 0
M  V30 14 F 1.174389 4.810349 0.930676 0
M  V30 15 C 0.194527 3.426779 2.469735 0
M  V30 16 C -0.244996 2.175232 2.864874 0
M  V30 17 C -0.062366 1.155758 1.983803 0
M  V30 18 C 0.505384 1.171738 0.734695 0
M  V30 19 N -0.313252 -1.360072 -1.713861 0
M  V30 20 C -1.120623 -2.532014 -1.425440 0
M  V30 21 C -1.871179 -3.328862 -2.274366 0
M  V30 22 C -2.566069 -4.398748 -1.770551 0
M  V30 23 C -2.549388 -4.721559 -0.429392 0
M  V30 24 C -1.799619 -3.926398 0.421148 0
M  V30 25 C -1.095752 -2.852326 -0.052478 0
M  V30 26 H 3.327410 0.121717 3.245417 0
M  V30 27 H 3.946280 -1.280680 4.146364 0
M  V30 28 H 4.466825 -1.023066 2.449486 0
M  V30 29 H 1.780792 3.337574 -1.474595 0
M  V30 30 H 0.071911 4.262995 3.140238 0
M  V30 31 H -0.695443 2.101838 3.833375 0
M  V30 32 H -0.519986 0.279440 2.404407 0
M  V30 33 H -0.220409 -0.987048 -2.709206 0
M  V30 34 H -1.925898 -3.127655 -3.343248 0
M  V30 35 H -3.152654 -5.022639 -2.429586 0
M  V30 36 H -3.088934 -5.555571 -0.024838 0
M  V30 37 H -1.728949 -4.105655 1.488424 0
M  V30 END ATOM
M  V30 BEGIN BOND
M  V30 1 1 1 2
M  V30 2 2 2 3
M  V30 3 1 2 4
M  V30 4 1 4 5
M  V30 5 2 5 6
M  V30 6 1 6 7
M  V30 7 2 7 8
M  V30 8 1 8 9
M  V30 9 2 9 10
M  V30 10 1 9 11
M  V30 11 1 11 12
M  V30 12 2 12 13
M  V30 13 1 13 14
M  V30 14 1 13 15
M  V30 15 2 15 16
M  V30 16 1 16 17
M  V30 17 2 17 18
M  V30 18 1 7 19
M  V30 19 1 19 20
M  V30 20 2 20 21
M  V30 21 1 21 22
M  V30 22 2 22 23
M  V30 23 1 23 24
M  V30 24 2 24 25
M  V30 25 1 25 6
M  V30 26 1 18 8
M  V30 27 1 25 20
M  V30 28 1 18 12
M  V30 29 1 1 26
M  V30 30 1 1 27
M  V30 31 1 1 28
M  V30 32 1 11 29
M  V30 33 1 15 30
M  V30 34 1 16 31
M  V30 35 1 17 32
M  V30 36 1 19 33
M  V30 37 1 21 34
M  V30 38 1 22 35
M  V30 39 1 23 36
M  V30 40 1 24 37
M  V30 END BOND
M  V30 END CTAB
M  END
>  <Dataset>  (522) 
ChEMBL_Kinases

>  <Ligand_Instance>  (522) 
nan

>  <PDB_ID>  (522) 
nan

>  <Standardized_SMILES>  (522) 
CC(=O)O/N=C1C(=C2\C(=O)Nc3c(F)cccc32)\Nc2ccccc2\1

>  <Name>  (522) 
nan

>  <Pocket>  (522) 
nan

>  <ATP_Site>  (522) 
nan

>  <Peripheral>  (522) 
nan

>  <Num_H_Atoms_ProtBoundConf>  (522) 
nan

>  <Num_Resolved_Atoms>  (522) 
nan

>  <Num_Not_Resolved_Atoms>  (522) 
nan

$$$$
CHEMBL4448596
     RDKit          3D

  0  0  0  0  0  0  0  0  0  0999 V3000
M  V30 BEGIN CTAB
M  V30 COUNTS 65 71 0 0 0
M  V30 BEGIN ATOM
M  V30 1 C 4.138611 0.088827 -0.412159 0
M  V30 2 O 5.004470 1.182284 -0.255513 0
M  V30 3 C 4.635985 2.509609 -0.215558 0
M  V30 4 C 5.603292 3.466441 -0.055711 0
M  V30 5 C 5.285378 4.781972 -0.011245 0
M  V30 6 C 3.956066 5.144457 -0.130784 0
M  V30 7 C 2.901657 4.260657 -0.295452 0
M  V30 8 C 3.327078 2.926993 -0.329726 0
M  V30 9 C 1.672155 4.964292 -0.384379 0 CFG=1
M  V30 10 C 0.842123 4.664251 -1.659293 0
M  V30 11 C 0.289615 4.658568 -0.239297 0 CFG=1
M  V30 12 C -0.399102 3.441149 0.146231 0
M  V30 13 C -0.255558 2.177594 -0.398815 0
M  V30 14 C -0.910930 1.029429 -0.002863 0
M  V30 15 C -1.802641 1.148170 1.043686 0
M  V30 16 C -2.635194 0.255563 1.722135 0
M  V30 17 C -2.763282 -1.172517 1.442496 0
M  V30 18 C -2.892946 -1.699581 0.172039 0
M  V30 19 C -3.009888 -3.051630 -0.065234 0
M  V30 20 C -3.003209 -3.962920 0.969241 0
M  V30 21 N -3.118115 -5.366330 0.785277 0
M  V30 22 C -3.129887 -6.406618 1.793137 0
M  V30 23 C -1.724296 -7.014965 1.798457 0
M  V30 24 N -1.307389 -7.148531 0.412977 0
M  V30 25 C -0.407407 -8.257940 0.235878 0
M  V30 26 C -2.451937 -7.289249 -0.469363 0
M  V30 27 C -3.246054 -5.990269 -0.515801 0
M  V30 28 C -2.873411 -3.426768 2.231527 0
M  V30 29 C -2.755025 -2.077920 2.495214 0
M  V30 30 N -3.292810 0.961569 2.682274 0
M  V30 31 N -2.935859 2.235161 2.659420 0
M  V30 32 C -2.041696 2.364372 1.681642 0
M  V30 33 C -1.329751 3.441690 1.200309 0
M  V30 34 C 2.100725 6.401026 -0.240783 0
M  V30 35 O 1.321179 7.409692 -0.249433 0
M  V30 36 N 3.505126 6.514253 -0.089940 0
M  V30 37 H 4.724063 -0.831055 -0.130632 0
M  V30 38 H 3.798201 -0.058163 -1.455247 0
M  V30 39 H 3.286503 0.110792 0.297680 0
M  V30 40 H 6.633050 3.151635 0.034718 0
M  V30 41 H 6.100040 5.482784 0.116801 0
M  V30 42 H 2.631952 2.128984 -0.449039 0
M  V30 43 H 1.063364 3.721000 -2.176969 0
M  V30 44 H 0.649631 5.547816 -2.297520 0
M  V30 45 H -0.352390 5.565878 -0.006504 0
M  V30 46 H 0.417482 2.058575 -1.213060 0
M  V30 47 H -0.758906 0.085179 -0.458902 0
M  V30 48 H -2.903555 -1.023094 -0.672291 0
M  V30 49 H -3.107414 -3.378685 -1.081294 0
M  V30 50 H -3.242161 -5.943043 2.785410 0
M  V30 51 H -3.896309 -7.192595 1.618205 0
M  V30 52 H -1.787522 -7.993600 2.317283 0
M  V30 53 H -1.060890 -6.282228 2.298081 0
M  V30 54 H -0.280891 -8.813760 1.189711 0
M  V30 55 H 0.608497 -7.907551 -0.104282 0
M  V30 56 H -0.806385 -8.978337 -0.501006 0
M  V30 57 H -2.080879 -7.551105 -1.460783 0
M  V30 58 H -3.074807 -8.119237 -0.113064 0
M  V30 59 H -4.321981 -6.299383 -0.648823 0
M  V30 60 H -2.955307 -5.366584 -1.356530 0
M  V30 61 H -2.851610 -4.012689 3.134738 0
M  V30 62 H -2.652797 -1.656081 3.488204 0
M  V30 63 H -3.286885 2.997961 3.288284 0
M  V30 64 H -1.511572 4.388155 1.690930 0
M  V30 65 H 4.041346 7.397842 0.020097 0
M  V30 END ATOM
M  V30 BEGIN BOND
M  V30 1 1 1 2
M  V30 2 1 2 3
M  V30 3 2 3 4
M  V30 4 1 4 5
M  V30 5 2 5 6
M  V30 6 1 6 7
M  V30 7 2 7 8
M  V30 8 1 7 9
M  V30 9 1 9 10 CFG=3
M  V30 10 1 10 11
M  V30 11 1 11 12
M  V30 12 2 12 13
M  V30 13 1 13 14
M  V30 14 2 14 15
M  V30 15 1 15 16
M  V30 16 1 16 17
M  V30 17 2 17 18
M  V30 18 1 18 19
M  V30 19 2 19 20
M  V30 20 1 20 21
M  V30 21 1 21 22
M  V30 22 1 22 23
M  V30 23 1 23 24
M  V30 24 1 24 25
M  V30 25 1 24 26
M  V30 26 1 26 27
M  V30 27 1 20 28
M  V30 28 2 28 29
M  V30 29 2 16 30
M  V30 30 1 30 31
M  V30 31 1 31 32
M  V30 32 2 32 33
M  V30 33 1 9 34
M  V30 34 2 34 35
M  V30 35 1 34 36
M  V30 36 1 8 3
M  V30 37 1 11 9
M  V30 38 1 33 12
M  V30 39 1 36 6
M  V30 40 1 32 15
M  V30 41 1 29 17
M  V30 42 1 27 21
M  V30 43 1 1 37
M  V30 44 1 1 38
M  V30 45 1 1 39
M  V30 46 1 4 40
M  V30 47 1 5 41
M  V30 48 1 8 42
M  V30 49 1 10 43
M  V30 50 1 10 44
M  V30 51 1 11 45 CFG=3
M  V30 52 1 13 46
M  V30 53 1 14 47
M  V30 54 1 18 48
M  V30 55 1 19 49
M  V30 56 1 22 50
M  V30 57 1 22 51
M  V30 58 1 23 52
M  V30 59 1 23 53
M  V30 60 1 25 54
M  V30 61 1 25 55
M  V30 62 1 25 56
M  V30 63 1 26 57
M  V30 64 1 26 58
M  V30 65 1 27 59
M  V30 66 1 27 60
M  V30 67 1 28 61
M  V30 68 1 29 62
M  V30 69 1 31 63
M  V30 70 1 33 64
M  V30 71 1 36 65
M  V30 END BOND
M  V30 END CTAB
M  END
>  <Dataset>  (523) 
ChEMBL_Kinases

>  <Ligand_Instance>  (523) 
nan

>  <PDB_ID>  (523) 
nan

>  <Standardized_SMILES>  (523) 
COc1ccc2c(c1)[C@]1(C[C@H]1c1ccc3c(-c4ccc(N5CCN(C)CC5)cc4)n[nH]c3c1)C(=O)N2

>  <Name>  (523) 
nan

>  <Pocket>  (523) 
nan

>  <ATP_Site>  (523) 
nan

>  <Peripheral>  (523) 
nan

>  <Num_H_Atoms_ProtBoundConf>  (523) 
nan

>  <Num_Resolved_Atoms>  (523) 
nan

>  <Num_Not_Resolved_Atoms>  (523) 
nan

$$$$
CHEMBL3717713
     RDKit          3D

  0  0  0  0  0  0  0  0  0  0999 V3000
M  V30 BEGIN CTAB
M  V30 COUNTS 48 51 0 0 0
M  V30 BEGIN ATOM
M  V30 1 O 0.073862 -2.469887 4.120830 0
M  V30 2 C 0.374587 -2.038245 2.953836 0
M  V30 3 C 1.757449 -2.503888 2.697628 0
M  V30 4 N 2.284693 -2.088699 1.415751 0
M  V30 5 C 2.478353 -0.764338 0.988222 0
M  V30 6 O 2.179190 0.193718 1.771780 0
M  V30 7 C 3.010386 -0.406306 -0.320616 0
M  V30 8 C 3.384793 -1.307263 -1.289943 0
M  V30 9 C 3.887545 -0.953669 -2.524310 0
M  V30 10 C 4.030194 0.374567 -2.821693 0
M  V30 11 N 4.523638 0.762812 -4.030515 0
M  V30 12 C 4.654586 2.092804 -4.297943 0
M  V30 13 C 4.317930 3.089228 -3.418301 0
M  V30 14 C 3.816800 2.675598 -2.191490 0
M  V30 15 C 3.678646 1.332551 -1.906683 0
M  V30 16 C 3.183775 0.909724 -0.694951 0
M  V30 17 N -0.594203 -1.283291 2.237325 0
M  V30 18 C -1.867789 -1.013262 2.813400 0
M  V30 19 C -2.109047 0.476957 2.919612 0
M  V30 20 C -3.518891 0.817133 3.271582 0
M  V30 21 C -4.328031 -0.417959 3.657662 0
M  V30 22 C -4.289594 -1.295531 2.431945 0
M  V30 23 C -5.410212 -1.766792 1.779891 0
M  V30 24 C -5.188781 -2.562754 0.665613 0
M  V30 25 C -3.919756 -2.852261 0.253016 0
M  V30 26 C -2.803236 -2.371667 0.918171 0
M  V30 27 C -3.000065 -1.578682 2.028211 0
M  V30 28 H 2.408235 -1.993308 3.455591 0
M  V30 29 H 1.863361 -3.596099 2.815751 0
M  V30 30 H 2.552780 -2.825545 0.728688 0
M  V30 31 H 3.288808 -2.362157 -1.096582 0
M  V30 32 H 4.171616 -1.702150 -3.262818 0
M  V30 33 H 5.049095 2.334821 -5.267097 0
M  V30 34 H 4.431446 4.136161 -3.654646 0
M  V30 35 H 3.541549 3.441252 -1.474604 0
M  V30 36 H 2.911391 1.704056 0.016163 0
M  V30 37 H -0.193458 -1.021247 1.311853 0
M  V30 38 H -1.880320 -1.486139 3.817741 0
M  V30 39 H -1.364973 0.882263 3.637179 0
M  V30 40 H -1.841876 0.933238 1.938728 0
M  V30 41 H -4.038036 1.248517 2.369345 0
M  V30 42 H -3.516639 1.580560 4.065389 0
M  V30 43 H -3.794396 -0.881865 4.511462 0
M  V30 44 H -5.350633 -0.084909 3.891307 0
M  V30 45 H -6.374328 -1.486295 2.178301 0
M  V30 46 H -6.060366 -2.939145 0.144851 0
M  V30 47 H -3.846575 -3.489638 -0.638393 0
M  V30 48 H -1.819480 -2.610179 0.578488 0
M  V30 END ATOM
M  V30 BEGIN BOND
M  V30 1 2 1 2
M  V30 2 1 2 3
M  V30 3 1 3 4
M  V30 4 1 4 5
M  V30 5 2 5 6
M  V30 6 1 5 7
M  V30 7 2 7 8
M  V30 8 1 8 9
M  V30 9 2 9 10
M  V30 10 1 10 11
M  V30 11 2 11 12
M  V30 12 1 12 13
M  V30 13 2 13 14
M  V30 14 1 14 15
M  V30 15 2 15 16
M  V30 16 1 2 17
M  V30 17 1 17 18
M  V30 18 1 18 19
M  V30 19 1 19 20
M  V30 20 1 20 21
M  V30 21 1 21 22
M  V30 22 2 22 23
M  V30 23 1 23 24
M  V30 24 2 24 25
M  V30 25 1 25 26
M  V30 26 2 26 27
M  V30 27 1 16 7
M  V30 28 1 27 18
M  V30 29 1 15 10
M  V30 30 1 27 22
M  V30 31 1 3 28
M  V30 32 1 3 29
M  V30 33 1 4 30
M  V30 34 1 8 31
M  V30 35 1 9 32
M  V30 36 1 12 33
M  V30 37 1 13 34
M  V30 38 1 14 35
M  V30 39 1 16 36
M  V30 40 1 17 37
M  V30 41 1 18 38
M  V30 42 1 19 39
M  V30 43 1 19 40
M  V30 44 1 20 41
M  V30 45 1 20 42
M  V30 46 1 21 43
M  V30 47 1 21 44
M  V30 48 1 23 45
M  V30 49 1 24 46
M  V30 50 1 25 47
M  V30 51 1 26 48
M  V30 END BOND
M  V30 END CTAB
M  END
>  <Dataset>  (524) 
ChEMBL_Kinases

>  <Ligand_Instance>  (524) 
nan

>  <PDB_ID>  (524) 
nan

>  <Standardized_SMILES>  (524) 
O=C(CNC(=O)c1ccc2ncccc2c1)NC1CCCc2ccccc21

>  <Name>  (524) 
nan

>  <Pocket>  (524) 
nan

>  <ATP_Site>  (524) 
nan

>  <Peripheral>  (524) 
nan

>  <Num_H_Atoms_ProtBoundConf>  (524) 
nan

>  <Num_Resolved_Atoms>  (524) 
nan

>  <Num_Not_Resolved_Atoms>  (524) 
nan

$$$$
CHEMBL3717391
     RDKit          3D

  0  0  0  0  0  0  0  0  0  0999 V3000
M  V30 BEGIN CTAB
M  V30 COUNTS 58 60 0 0 0
M  V30 BEGIN ATOM
M  V30 1 C 1.946482 -1.851781 7.697357 0
M  V30 2 C 3.178314 -2.072495 6.853482 0
M  V30 3 C 3.394742 -0.891772 5.915057 0
M  V30 4 C 4.620557 -1.146805 5.097898 0
M  V30 5 C 4.942208 -0.040609 4.123946 0
M  V30 6 C 3.872394 0.197327 3.151889 0
M  V30 7 C 2.845733 1.093868 3.364969 0
M  V30 8 C 1.821627 1.325879 2.444253 0
M  V30 9 C 1.855088 0.604464 1.253057 0
M  V30 10 C 0.860188 0.717150 0.165938 0
M  V30 11 O 0.902954 0.039283 -0.910631 0
M  V30 12 N -0.258747 1.607483 0.217796 0
M  V30 13 C -1.185873 1.637294 -0.917896 0
M  V30 14 C -1.759432 0.291964 -1.070791 0
M  V30 15 O -1.550013 -0.767224 -0.388719 0
M  V30 16 N -2.710673 0.007489 -2.111206 0
M  V30 17 C -3.352440 -1.263139 -2.378851 0
M  V30 18 C -4.832706 -1.264002 -2.276519 0
M  V30 19 C -5.583842 -1.093709 -3.558760 0
M  V30 20 C -4.786311 -0.502412 -4.685673 0
M  V30 21 C -3.583150 -1.349856 -4.902170 0
M  V30 22 C -3.159138 -1.762842 -6.152378 0
M  V30 23 C -2.019734 -2.552001 -6.211605 0
M  V30 24 C -1.323200 -2.920651 -5.074931 0
M  V30 25 C -1.790523 -2.480259 -3.848854 0
M  V30 26 C -2.927434 -1.687571 -3.737188 0
M  V30 27 C 2.871966 -0.298128 1.017051 0
M  V30 28 C 3.861549 -0.492302 1.957901 0
M  V30 29 H 2.217875 -1.835615 8.770317 0
M  V30 30 H 1.222812 -2.694376 7.499365 0
M  V30 31 H 1.452895 -0.892822 7.478779 0
M  V30 32 H 3.088817 -3.011522 6.261823 0
M  V30 33 H 4.067696 -2.092805 7.511199 0
M  V30 34 H 3.515000 0.006633 6.545476 0
M  V30 35 H 2.514915 -0.740375 5.266781 0
M  V30 36 H 4.514534 -2.128191 4.611979 0
M  V30 37 H 5.475318 -1.206846 5.822626 0
M  V30 38 H 5.882258 -0.260063 3.617724 0
M  V30 39 H 5.110838 0.881772 4.736019 0
M  V30 40 H 2.808432 1.663880 4.291385 0
M  V30 41 H 1.014073 2.004457 2.566959 0
M  V30 42 H -0.365512 2.204055 1.073907 0
M  V30 43 H -0.607589 1.998125 -1.774150 0
M  V30 44 H -2.014302 2.340558 -0.634776 0
M  V30 45 H -3.008057 0.775991 -2.781210 0
M  V30 46 H -2.931236 -1.974478 -1.615809 0
M  V30 47 H -5.218256 -0.575380 -1.470093 0
M  V30 48 H -5.139232 -2.280582 -1.887975 0
M  V30 49 H -6.481432 -0.458589 -3.381652 0
M  V30 50 H -6.003270 -2.064602 -3.952830 0
M  V30 51 H -4.582092 0.566493 -4.606519 0
M  V30 52 H -5.428439 -0.636624 -5.606551 0
M  V30 53 H -3.730949 -1.454658 -7.022432 0
M  V30 54 H -1.698605 -2.869081 -7.203519 0
M  V30 55 H -0.451567 -3.530075 -5.179318 0
M  V30 56 H -1.225888 -2.783832 -2.972264 0
M  V30 57 H 2.931905 -0.874065 0.109470 0
M  V30 58 H 4.663079 -1.199877 1.778133 0
M  V30 END ATOM
M  V30 BEGIN BOND
M  V30 1 1 1 2
M  V30 2 1 2 3
M  V30 3 1 3 4
M  V30 4 1 4 5
M  V30 5 1 5 6
M  V30 6 2 6 7
M  V30 7 1 7 8
M  V30 8 2 8 9
M  V30 9 1 9 10
M  V30 10 2 10 11
M  V30 11 1 10 12
M  V30 12 1 12 13
M  V30 13 1 13 14
M  V30 14 2 14 15
M  V30 15 1 14 16
M  V30 16 1 16 17
M  V30 17 1 17 18
M  V30 18 1 18 19
M  V30 19 1 19 20
M  V30 20 1 20 21
M  V30 21 2 21 22
M  V30 22 1 22 23
M  V30 23 2 23 24
M  V30 24 1 24 25
M  V30 25 2 25 26
M  V30 26 1 9 27
M  V30 27 2 27 28
M  V30 28 1 28 6
M  V30 29 1 26 17
M  V30 30 1 26 21
M  V30 31 1 1 29
M  V30 32 1 1 30
M  V30 33 1 1 31
M  V30 34 1 2 32
M  V30 35 1 2 33
M  V30 36 1 3 34
M  V30 37 1 3 35
M  V30 38 1 4 36
M  V30 39 1 4 37
M  V30 40 1 5 38
M  V30 41 1 5 39
M  V30 42 1 7 40
M  V30 43 1 8 41
M  V30 44 1 12 42
M  V30 45 1 13 43
M  V30 46 1 13 44
M  V30 47 1 16 45
M  V30 48 1 17 46
M  V30 49 1 18 47
M  V30 50 1 18 48
M  V30 51 1 19 49
M  V30 52 1 19 50
M  V30 53 1 20 51
M  V30 54 1 20 52
M  V30 55 1 22 53
M  V30 56 1 23 54
M  V30 57 1 24 55
M  V30 58 1 25 56
M  V30 59 1 27 57
M  V30 60 1 28 58
M  V30 END BOND
M  V30 END CTAB
M  END
>  <Dataset>  (525) 
ChEMBL_Kinases

>  <Ligand_Instance>  (525) 
nan

>  <PDB_ID>  (525) 
nan

>  <Standardized_SMILES>  (525) 
CCCCCc1ccc(C(=O)NCC(=O)NC2CCCc3ccccc32)cc1

>  <Name>  (525) 
nan

>  <Pocket>  (525) 
nan

>  <ATP_Site>  (525) 
nan

>  <Peripheral>  (525) 
nan

>  <Num_H_Atoms_ProtBoundConf>  (525) 
nan

>  <Num_Resolved_Atoms>  (525) 
nan

>  <Num_Not_Resolved_Atoms>  (525) 
nan

$$$$
CHEMBL3717452
     RDKit          3D

  0  0  0  0  0  0  0  0  0  0999 V3000
M  V30 BEGIN CTAB
M  V30 COUNTS 72 76 0 0 0
M  V30 BEGIN ATOM
M  V30 1 C 5.639623 -2.190622 6.685380 0
M  V30 2 O 5.312463 -2.744738 5.436067 0
M  V30 3 C 4.437574 -2.198315 4.529841 0
M  V30 4 C 3.723329 -1.027787 4.658993 0
M  V30 5 C 2.883590 -0.597039 3.675760 0
M  V30 6 C 2.682360 -1.279768 2.497228 0
M  V30 7 C 1.769609 -0.765626 1.488171 0
M  V30 8 C 1.509450 -1.321741 0.340476 0
M  V30 9 C 0.587680 -0.828030 -0.707310 0
M  V30 10 O 0.414481 -1.455576 -1.781650 0
M  V30 11 N -0.154949 0.389697 -0.552879 0
M  V30 12 C -0.969143 0.658227 -1.674413 0 CFG=1
M  V30 13 C -0.391041 1.024581 -2.966353 0
M  V30 14 C 0.417202 2.291073 -2.827822 0
M  V30 15 C 1.806743 2.357743 -2.792188 0
M  V30 16 N 2.146662 3.671108 -2.657371 0
M  V30 17 C 1.016392 4.399193 -2.610695 0
M  V30 18 C 0.784293 5.776890 -2.481668 0
M  V30 19 C -0.516392 6.239308 -2.464243 0
M  V30 20 C -1.631746 5.428155 -2.566587 0
M  V30 21 C -1.394307 4.095266 -2.690616 0
M  V30 22 C -0.104966 3.570805 -2.714719 0
M  V30 23 C -2.068432 -0.356979 -1.888486 0
M  V30 24 O -2.757358 -0.136696 -2.945906 0
M  V30 25 N -2.439677 -1.479650 -1.116565 0
M  V30 26 C -3.545876 -2.298916 -1.561415 0
M  V30 27 C -3.131857 -3.739030 -1.581124 0
M  V30 28 C -2.889685 -4.376349 -0.264705 0
M  V30 29 C -3.361036 -3.646578 0.944947 0
M  V30 30 C -4.556396 -2.847210 0.606296 0
M  V30 31 C -5.607433 -2.736516 1.493106 0
M  V30 32 C -6.735715 -2.003233 1.220365 0
M  V30 33 C -6.847192 -1.339044 0.015590 0
M  V30 34 C -5.813166 -1.411311 -0.929495 0
M  V30 35 C -4.690604 -2.176966 -0.587795 0
M  V30 36 C 3.408557 -2.446718 2.392250 0
M  V30 37 C 4.268911 -2.906774 3.377641 0
M  V30 38 O 4.938720 -4.108951 3.133424 0
M  V30 39 C 4.742078 -4.817432 1.932686 0
M  V30 40 H 5.206398 -1.184846 6.841662 0
M  V30 41 H 5.267531 -2.851653 7.515288 0
M  V30 42 H 6.759099 -2.123861 6.823060 0
M  V30 43 H 3.844971 -0.461286 5.555585 0
M  V30 44 H 2.338917 0.333791 3.821408 0
M  V30 45 H 1.247651 0.160094 1.688860 0
M  V30 46 H 2.020063 -2.249841 0.118178 0
M  V30 47 H -0.050024 0.960442 0.325385 0
M  V30 48 H -1.580106 1.572443 -1.362412 0
M  V30 49 H -1.250823 1.331560 -3.621870 0
M  V30 50 H 0.116490 0.255108 -3.557205 0
M  V30 51 H 2.502545 1.534273 -2.856021 0
M  V30 52 H 3.116056 4.105071 -2.593901 0
M  V30 53 H 1.638060 6.440479 -2.398908 0
M  V30 54 H -0.605346 7.311887 -2.362188 0
M  V30 55 H -2.586100 5.904306 -2.539459 0
M  V30 56 H -2.260809 3.417998 -2.775332 0
M  V30 57 H -1.848486 -1.596259 -0.272868 0
M  V30 58 H -3.933712 -1.961947 -2.548226 0
M  V30 59 H -2.210963 -3.805657 -2.214761 0
M  V30 60 H -3.916729 -4.348969 -2.127287 0
M  V30 61 H -3.361128 -5.401616 -0.259512 0
M  V30 62 H -1.795860 -4.577747 -0.131881 0
M  V30 63 H -3.658071 -4.422704 1.716068 0
M  V30 64 H -2.583265 -3.046316 1.465292 0
M  V30 65 H -5.554109 -3.234919 2.434568 0
M  V30 66 H -7.584951 -1.881154 1.870719 0
M  V30 67 H -7.694081 -0.732573 -0.302958 0
M  V30 68 H -5.885218 -0.897366 -1.881348 0
M  V30 69 H 3.295929 -3.036913 1.480299 0
M  V30 70 H 5.070363 -4.231553 1.044858 0
M  V30 71 H 3.660634 -5.067237 1.897707 0
M  V30 72 H 5.274597 -5.795621 2.013617 0
M  V30 END ATOM
M  V30 BEGIN BOND
M  V30 1 1 1 2
M  V30 2 1 2 3
M  V30 3 2 3 4
M  V30 4 1 4 5
M  V30 5 2 5 6
M  V30 6 1 6 7
M  V30 7 2 7 8
M  V30 8 1 8 9
M  V30 9 2 9 10
M  V30 10 1 9 11
M  V30 11 1 11 12
M  V30 12 1 12 13
M  V30 13 1 13 14
M  V30 14 2 14 15
M  V30 15 1 15 16
M  V30 16 1 16 17
M  V30 17 2 17 18
M  V30 18 1 18 19
M  V30 19 2 19 20
M  V30 20 1 20 21
M  V30 21 2 21 22
M  V30 22 1 12 23
M  V30 23 2 23 24
M  V30 24 1 23 25
M  V30 25 1 25 26
M  V30 26 1 26 27
M  V30 27 1 27 28
M  V30 28 1 28 29
M  V30 29 1 29 30
M  V30 30 2 30 31
M  V30 31 1 31 32
M  V30 32 2 32 33
M  V30 33 1 33 34
M  V30 34 2 34 35
M  V30 35 1 6 36
M  V30 36 2 36 37
M  V30 37 1 37 38
M  V30 38 1 38 39
M  V30 39 1 37 3
M  V30 40 1 22 14
M  V30 41 1 35 26
M  V30 42 1 22 17
M  V30 43 1 35 30
M  V30 44 1 1 40
M  V30 45 1 1 41
M  V30 46 1 1 42
M  V30 47 1 4 43
M  V30 48 1 5 44
M  V30 49 1 7 45
M  V30 50 1 8 46
M  V30 51 1 11 47
M  V30 52 1 12 48 CFG=1
M  V30 53 1 13 49
M  V30 54 1 13 50
M  V30 55 1 15 51
M  V30 56 1 16 52
M  V30 57 1 18 53
M  V30 58 1 19 54
M  V30 59 1 20 55
M  V30 60 1 21 56
M  V30 61 1 25 57
M  V30 62 1 26 58
M  V30 63 1 27 59
M  V30 64 1 27 60
M  V30 65 1 28 61
M  V30 66 1 28 62
M  V30 67 1 29 63
M  V30 68 1 29 64
M  V30 69 1 31 65
M  V30 70 1 32 66
M  V30 71 1 33 67
M  V30 72 1 34 68
M  V30 73 1 36 69
M  V30 74 1 39 70
M  V30 75 1 39 71
M  V30 76 1 39 72
M  V30 END BOND
M  V30 END CTAB
M  END
>  <Dataset>  (526) 
ChEMBL_Kinases

>  <Ligand_Instance>  (526) 
nan

>  <PDB_ID>  (526) 
nan

>  <Standardized_SMILES>  (526) 
COc1ccc(/C=C/C(=O)N[C@@H](Cc2c[nH]c3ccccc23)C(=O)NC2CCCc3ccccc32)cc1OC

>  <Name>  (526) 
nan

>  <Pocket>  (526) 
nan

>  <ATP_Site>  (526) 
nan

>  <Peripheral>  (526) 
nan

>  <Num_H_Atoms_ProtBoundConf>  (526) 
nan

>  <Num_Resolved_Atoms>  (526) 
nan

>  <Num_Not_Resolved_Atoms>  (526) 
nan

$$$$
CHEMBL3717468
     RDKit          3D

  0  0  0  0  0  0  0  0  0  0999 V3000
M  V30 BEGIN CTAB
M  V30 COUNTS 54 57 0 0 0
M  V30 BEGIN ATOM
M  V30 1 O 1.289023 -4.735850 -2.115509 0
M  V30 2 C 0.971633 -3.591574 -1.664398 0
M  V30 3 C 1.975281 -2.857266 -0.859743 0
M  V30 4 N 1.473685 -1.562306 -0.411485 0
M  V30 5 C 2.532490 -0.967121 0.347751 0
M  V30 6 O 3.590035 -1.681898 0.435686 0
M  V30 7 C 2.520734 0.333777 1.009013 0
M  V30 8 C 3.680880 0.661093 1.682422 0
M  V30 9 C 3.734007 1.901072 2.335676 0
M  V30 10 C 2.650259 2.769603 2.302634 0
M  V30 11 O 2.639855 4.007967 2.926158 0
M  V30 12 C 2.185090 4.120960 4.230370 0
M  V30 13 C 2.906123 4.009247 5.408453 0
M  V30 14 C 2.232888 4.161778 6.618816 0
M  V30 15 C 0.896016 4.416143 6.695468 0
M  V30 16 C 0.190476 4.524778 5.509112 0
M  V30 17 C 0.823500 4.379691 4.292946 0
M  V30 18 C 1.521028 2.377094 1.609988 0
M  V30 19 C 1.421905 1.161327 0.949193 0
M  V30 20 N -0.318291 -3.097503 -1.961191 0
M  V30 21 C -1.362687 -3.762002 -2.746676 0
M  V30 22 C -1.689381 -2.958205 -3.945279 0
M  V30 23 C -3.029829 -2.289622 -3.838157 0
M  V30 24 C -3.403256 -1.988803 -2.427629 0
M  V30 25 C -3.605563 -3.271265 -1.689658 0
M  V30 26 C -4.686039 -3.618084 -0.896827 0
M  V30 27 C -4.691217 -4.862004 -0.297179 0
M  V30 28 C -3.643354 -5.743124 -0.482373 0
M  V30 29 C -2.581636 -5.346853 -1.288137 0
M  V30 30 C -2.514708 -4.114341 -1.917813 0
M  V30 31 H 2.875173 -2.747811 -1.490583 0
M  V30 32 H 2.229357 -3.461744 0.039557 0
M  V30 33 H 0.632096 -0.942871 -0.455467 0
M  V30 34 H 4.572366 0.084510 1.779292 0
M  V30 35 H 4.610926 2.215796 2.880028 0
M  V30 36 H 3.958082 3.806430 5.264633 0
M  V30 37 H 2.825245 4.068179 7.502208 0
M  V30 38 H 0.421896 4.526711 7.666723 0
M  V30 39 H -0.869858 4.727224 5.594421 0
M  V30 40 H 0.157295 4.487562 3.432703 0
M  V30 41 H 0.636552 3.007200 1.543557 0
M  V30 42 H 0.527905 0.888772 0.418281 0
M  V30 43 H -0.533973 -2.159477 -1.572252 0
M  V30 44 H -0.891756 -4.739042 -3.063790 0
M  V30 45 H -1.652474 -3.629893 -4.843180 0
M  V30 46 H -0.901505 -2.184441 -4.082029 0
M  V30 47 H -3.799948 -2.945348 -4.294556 0
M  V30 48 H -2.973817 -1.364408 -4.449529 0
M  V30 49 H -2.734865 -1.310886 -1.905600 0
M  V30 50 H -4.423116 -1.513162 -2.464172 0
M  V30 51 H -5.433489 -2.839829 -0.836575 0
M  V30 52 H -5.564078 -5.064602 0.307607 0
M  V30 53 H -3.676953 -6.709483 0.000426 0
M  V30 54 H -1.809047 -6.099550 -1.374636 0
M  V30 END ATOM
M  V30 BEGIN BOND
M  V30 1 2 1 2
M  V30 2 1 2 3
M  V30 3 1 3 4
M  V30 4 1 4 5
M  V30 5 2 5 6
M  V30 6 1 5 7
M  V30 7 2 7 8
M  V30 8 1 8 9
M  V30 9 2 9 10
M  V30 10 1 10 11
M  V30 11 1 11 12
M  V30 12 2 12 13
M  V30 13 1 13 14
M  V30 14 2 14 15
M  V30 15 1 15 16
M  V30 16 2 16 17
M  V30 17 1 10 18
M  V30 18 2 18 19
M  V30 19 1 2 20
M  V30 20 1 20 21
M  V30 21 1 21 22
M  V30 22 1 22 23
M  V30 23 1 23 24
M  V30 24 1 24 25
M  V30 25 2 25 26
M  V30 26 1 26 27
M  V30 27 2 27 28
M  V30 28 1 28 29
M  V30 29 2 29 30
M  V30 30 1 19 7
M  V30 31 1 30 21
M  V30 32 1 17 12
M  V30 33 1 30 25
M  V30 34 1 3 31
M  V30 35 1 3 32
M  V30 36 1 4 33
M  V30 37 1 8 34
M  V30 38 1 9 35
M  V30 39 1 13 36
M  V30 40 1 14 37
M  V30 41 1 15 38
M  V30 42 1 16 39
M  V30 43 1 17 40
M  V30 44 1 18 41
M  V30 45 1 19 42
M  V30 46 1 20 43
M  V30 47 1 21 44
M  V30 48 1 22 45
M  V30 49 1 22 46
M  V30 50 1 23 47
M  V30 51 1 23 48
M  V30 52 1 24 49
M  V30 53 1 24 50
M  V30 54 1 26 51
M  V30 55 1 27 52
M  V30 56 1 28 53
M  V30 57 1 29 54
M  V30 END BOND
M  V30 END CTAB
M  END
>  <Dataset>  (527) 
ChEMBL_Kinases

>  <Ligand_Instance>  (527) 
nan

>  <PDB_ID>  (527) 
nan

>  <Standardized_SMILES>  (527) 
O=C(CNC(=O)c1ccc(Oc2ccccc2)cc1)NC1CCCc2ccccc21

>  <Name>  (527) 
nan

>  <Pocket>  (527) 
nan

>  <ATP_Site>  (527) 
nan

>  <Peripheral>  (527) 
nan

>  <Num_H_Atoms_ProtBoundConf>  (527) 
nan

>  <Num_Resolved_Atoms>  (527) 
nan

>  <Num_Not_Resolved_Atoms>  (527) 
nan

$$$$
CHEMBL3717484
     RDKit          3D

  0  0  0  0  0  0  0  0  0  0999 V3000
M  V30 BEGIN CTAB
M  V30 COUNTS 56 58 0 0 0
M  V30 BEGIN ATOM
M  V30 1 C 3.692579 -4.042957 3.686395 0
M  V30 2 C 4.556672 -2.771968 3.648919 0
M  V30 3 C 5.818859 -3.160010 2.905977 0
M  V30 4 C 3.862466 -1.732371 2.834161 0
M  V30 5 C 3.535214 -0.547012 3.470069 0
M  V30 6 C 2.888279 0.406417 2.689557 0
M  V30 7 C 2.608986 0.140528 1.359075 0
M  V30 8 N 1.935714 1.155106 0.584025 0
M  V30 9 C 0.533855 0.917869 0.715604 0
M  V30 10 O 0.276361 -0.063569 1.436434 0
M  V30 11 N -0.462820 1.740568 0.072760 0
M  V30 12 C -0.278959 2.908647 -0.788607 0
M  V30 13 C -1.640289 3.571656 -0.751736 0
M  V30 14 C -2.395827 2.903442 0.372873 0
M  V30 15 C -1.880026 1.464672 0.230094 0 CFG=2
M  V30 16 N -2.139594 0.723042 1.423308 0
M  V30 17 C -2.449419 0.816824 -0.978476 0
M  V30 18 O -1.659301 0.617558 -1.922181 0
M  V30 19 N -3.818237 0.451623 -1.039103 0
M  V30 20 C -4.454344 -0.183953 -2.177226 0
M  V30 21 C -4.103562 -1.626506 -2.243334 0
M  V30 22 C -4.925159 -2.514573 -1.555823 0
M  V30 23 C -4.682096 -3.868334 -1.559446 0
M  V30 24 C -3.601181 -4.393614 -2.254615 0
M  V30 25 Cl -3.186369 -6.097205 -2.335576 0
M  V30 26 C -2.763788 -3.517728 -2.951833 0
M  V30 27 Cl -1.372879 -4.119476 -3.855453 0
M  V30 28 C -3.043245 -2.184313 -2.920288 0
M  V30 29 C 2.942344 -1.043859 0.744846 0
M  V30 30 C 3.594353 -2.019027 1.510739 0
M  V30 31 H 3.415606 -4.311315 2.641797 0
M  V30 32 H 4.169527 -4.835504 4.255416 0
M  V30 33 H 2.725070 -3.676095 4.140640 0
M  V30 34 H 4.741715 -2.428614 4.677952 0
M  V30 35 H 6.409732 -2.283957 2.570303 0
M  V30 36 H 5.536462 -3.838873 2.078232 0
M  V30 37 H 6.451691 -3.753498 3.605986 0
M  V30 38 H 3.778579 -0.395321 4.511577 0
M  V30 39 H 2.609538 1.361818 3.152170 0
M  V30 40 H 2.261526 1.973736 -0.013538 0
M  V30 41 H 0.535676 3.556510 -0.443862 0
M  V30 42 H -0.057444 2.552749 -1.829156 0
M  V30 43 H -1.564220 4.671679 -0.644731 0
M  V30 44 H -2.208968 3.344753 -1.694138 0
M  V30 45 H -3.481432 2.975288 0.276686 0
M  V30 46 H -2.068823 3.267967 1.362274 0
M  V30 47 H -2.979055 1.055292 1.944973 0
M  V30 48 H -2.086875 -0.284202 1.252312 0
M  V30 49 H -4.379847 0.678983 -0.164644 0
M  V30 50 H -4.129627 0.274326 -3.136542 0
M  V30 51 H -5.553024 -0.095597 -2.037460 0
M  V30 52 H -5.789548 -2.258716 -0.979237 0
M  V30 53 H -5.251252 -4.637639 -1.064070 0
M  V30 54 H -2.406436 -1.522767 -3.451943 0
M  V30 55 H 2.693024 -1.174843 -0.286507 0
M  V30 56 H 3.863323 -2.953499 1.047214 0
M  V30 END ATOM
M  V30 BEGIN BOND
M  V30 1 1 1 2
M  V30 2 1 2 3
M  V30 3 1 2 4
M  V30 4 2 4 5
M  V30 5 1 5 6
M  V30 6 2 6 7
M  V30 7 1 7 8
M  V30 8 1 8 9
M  V30 9 2 9 10
M  V30 10 1 9 11
M  V30 11 1 11 12
M  V30 12 1 12 13
M  V30 13 1 13 14
M  V30 14 1 14 15
M  V30 15 1 15 16 CFG=1
M  V30 16 1 15 17
M  V30 17 2 17 18
M  V30 18 1 17 19
M  V30 19 1 19 20
M  V30 20 1 20 21
M  V30 21 2 21 22
M  V30 22 1 22 23
M  V30 23 2 23 24
M  V30 24 1 24 25
M  V30 25 1 24 26
M  V30 26 1 26 27
M  V30 27 2 26 28
M  V30 28 1 7 29
M  V30 29 2 29 30
M  V30 30 1 30 4
M  V30 31 1 15 11
M  V30 32 1 28 21
M  V30 33 1 1 31
M  V30 34 1 1 32
M  V30 35 1 1 33
M  V30 36 1 2 34
M  V30 37 1 3 35
M  V30 38 1 3 36
M  V30 39 1 3 37
M  V30 40 1 5 38
M  V30 41 1 6 39
M  V30 42 1 8 40
M  V30 43 1 12 41
M  V30 44 1 12 42
M  V30 45 1 13 43
M  V30 46 1 13 44
M  V30 47 1 14 45
M  V30 48 1 14 46
M  V30 49 1 16 47
M  V30 50 1 16 48
M  V30 51 1 19 49
M  V30 52 1 20 50
M  V30 53 1 20 51
M  V30 54 1 22 52
M  V30 55 1 23 53
M  V30 56 1 28 54
M  V30 57 1 29 55
M  V30 58 1 30 56
M  V30 END BOND
M  V30 END CTAB
M  END
>  <Dataset>  (528) 
ChEMBL_Kinases

>  <Ligand_Instance>  (528) 
nan

>  <PDB_ID>  (528) 
nan

>  <Standardized_SMILES>  (528) 
CC(C)c1ccc(NC(=O)N2CCC[C@@]2(N)C(=O)NCc2ccc(Cl)c(Cl)c2)cc1

>  <Name>  (528) 
nan

>  <Pocket>  (528) 
nan

>  <ATP_Site>  (528) 
nan

>  <Peripheral>  (528) 
nan

>  <Num_H_Atoms_ProtBoundConf>  (528) 
nan

>  <Num_Resolved_Atoms>  (528) 
nan

>  <Num_Not_Resolved_Atoms>  (528) 
nan

$$$$
CHEMBL4448325
     RDKit          3D

  0  0  0  0  0  0  0  0  0  0999 V3000
M  V30 BEGIN CTAB
M  V30 COUNTS 43 45 0 0 0
M  V30 BEGIN ATOM
M  V30 1 N 2.001310 -5.446135 2.673941 0
M  V30 2 C 2.601750 -5.431801 1.383284 0
M  V30 3 O 3.279212 -6.399285 0.949191 0
M  V30 4 C 2.353243 -4.204804 0.636310 0
M  V30 5 C 2.910078 -4.126154 -0.628495 0
M  V30 6 C 2.748831 -3.012180 -1.443416 0
M  V30 7 Cl 3.461627 -2.929945 -3.043311 0
M  V30 8 C 2.004797 -1.948586 -0.967761 0
M  V30 9 C 1.664663 -0.731076 -1.510194 0
M  V30 10 Cl 2.112785 -0.120292 -3.096973 0
M  V30 11 C 0.902336 -0.107023 -0.538955 0
M  V30 12 C 0.354621 1.205287 -0.738834 0
M  V30 13 C -0.088851 2.315068 -0.902823 0
M  V30 14 C -0.639196 3.658742 -1.086693 0
M  V30 15 C -2.166198 3.597977 -1.220161 0
M  V30 16 O -2.426995 2.802848 -2.334787 0
M  V30 17 N 0.779661 -0.904833 0.550676 0
M  V30 18 C 0.065433 -0.604053 1.755657 0 CFG=1
M  V30 19 C 0.937172 0.075115 2.802746 0
M  V30 20 C 0.031472 0.911235 3.682012 0
M  V30 21 C -1.241488 0.154976 3.954107 0
M  V30 22 N -2.022856 -0.131944 2.788346 0
M  V30 23 C -1.220707 0.126017 1.578525 0
M  V30 24 C 1.465985 -2.057179 0.289869 0
M  V30 25 N 1.639769 -3.140488 1.046286 0
M  V30 26 H 2.125790 -5.218490 3.690570 0
M  V30 27 H 1.068714 -5.862747 2.424618 0
M  V30 28 H 3.495382 -4.946752 -1.019384 0
M  V30 29 H -0.464577 4.318725 -0.211422 0
M  V30 30 H -0.227645 4.046227 -2.032879 0
M  V30 31 H -2.583740 3.064847 -0.332949 0
M  V30 32 H -2.549638 4.615611 -1.332917 0
M  V30 33 H -1.672383 2.908487 -2.988458 0
M  V30 34 H -0.211216 -1.590248 2.235954 0
M  V30 35 H 1.690175 0.668592 2.278762 0
M  V30 36 H 1.452914 -0.648291 3.451391 0
M  V30 37 H 0.543705 1.028573 4.659653 0
M  V30 38 H -0.129957 1.906761 3.250641 0
M  V30 39 H -1.793322 0.721460 4.731577 0
M  V30 40 H -0.950382 -0.801023 4.438079 0
M  V30 41 H -2.439888 -1.087685 2.763435 0
M  V30 42 H -1.117006 1.229002 1.581602 0
M  V30 43 H -1.770412 -0.283921 0.721970 0
M  V30 END ATOM
M  V30 BEGIN BOND
M  V30 1 1 1 2
M  V30 2 2 2 3
M  V30 3 1 2 4
M  V30 4 2 4 5
M  V30 5 1 5 6
M  V30 6 1 6 7
M  V30 7 2 6 8
M  V30 8 1 8 9
M  V30 9 1 9 10
M  V30 10 2 9 11
M  V30 11 1 11 12
M  V30 12 3 12 13
M  V30 13 1 13 14
M  V30 14 1 14 15
M  V30 15 1 15 16
M  V30 16 1 11 17
M  V30 17 1 17 18
M  V30 18 1 18 19
M  V30 19 1 19 20
M  V30 20 1 20 21
M  V30 21 1 21 22
M  V30 22 1 22 23
M  V30 23 1 17 24
M  V30 24 2 24 25
M  V30 25 1 25 4
M  V30 26 1 24 8
M  V30 27 1 23 18
M  V30 28 1 1 26
M  V30 29 1 1 27
M  V30 30 1 5 28
M  V30 31 1 14 29
M  V30 32 1 14 30
M  V30 33 1 15 31
M  V30 34 1 15 32
M  V30 35 1 16 33
M  V30 36 1 18 34 CFG=1
M  V30 37 1 19 35
M  V30 38 1 19 36
M  V30 39 1 20 37
M  V30 40 1 20 38
M  V30 41 1 21 39
M  V30 42 1 21 40
M  V30 43 1 22 41
M  V30 44 1 23 42
M  V30 45 1 23 43
M  V30 END BOND
M  V30 END CTAB
M  END
>  <Dataset>  (529) 
ChEMBL_Kinases

>  <Ligand_Instance>  (529) 
nan

>  <PDB_ID>  (529) 
nan

>  <Standardized_SMILES>  (529) 
NC(=O)c1cc(Cl)c2c(Cl)c(C#CCCO)n([C@H]3CCCNC3)c2n1

>  <Name>  (529) 
nan

>  <Pocket>  (529) 
nan

>  <ATP_Site>  (529) 
nan

>  <Peripheral>  (529) 
nan

>  <Num_H_Atoms_ProtBoundConf>  (529) 
nan

>  <Num_Resolved_Atoms>  (529) 
nan

>  <Num_Not_Resolved_Atoms>  (529) 
nan

$$$$
CHEMBL3717584
     RDKit          3D

  0  0  0  0  0  0  0  0  0  0999 V3000
M  V30 BEGIN CTAB
M  V30 COUNTS 75 78 0 0 0
M  V30 BEGIN ATOM
M  V30 1 C 7.951085 -4.451461 -0.107047 0
M  V30 2 O 7.798825 -3.299532 0.671005 0
M  V30 3 C 6.627030 -2.618063 0.880342 0
M  V30 4 C 5.525008 -3.172307 0.225829 0
M  V30 5 C 4.342839 -2.501072 0.428209 0
M  V30 6 C 4.151367 -1.383413 1.181561 0
M  V30 7 C 2.931424 -0.650012 1.469329 0
M  V30 8 C 1.700131 -0.927197 1.115414 0
M  V30 9 C 0.561588 -0.136654 1.450475 0
M  V30 10 O 0.486280 0.903477 2.111297 0
M  V30 11 N -0.747980 -0.409872 1.078326 0
M  V30 12 C -2.147921 -0.312810 0.948280 0 CFG=1
M  V30 13 C -2.556171 1.208292 0.876073 0
M  V30 14 O -2.403425 1.867694 1.962378 0
M  V30 15 C -2.168178 2.462448 2.999464 0
M  V30 16 C -1.915716 1.716543 4.291307 0
M  V30 17 C -3.145445 1.345938 4.853633 0
M  V30 18 C -3.303401 0.657599 6.056971 0
M  V30 19 C -2.169141 0.302030 6.770181 0
M  V30 20 C -0.971078 0.663241 6.222428 0
M  V30 21 C -0.812463 1.338346 5.045833 0
M  V30 22 C -2.803565 -0.892743 -0.210095 0
M  V30 23 O -4.012280 -1.092871 0.050569 0
M  V30 24 N -2.176891 -1.181129 -1.430399 0
M  V30 25 C -2.820662 -1.795502 -2.605917 0
M  V30 26 C -4.202072 -1.112453 -2.685647 0
M  V30 27 C -4.399773 0.236235 -2.570757 0
M  V30 28 C -5.622386 0.863423 -2.618572 0
M  V30 29 C -6.740186 0.028066 -2.800918 0
M  V30 30 C -6.610174 -1.320131 -2.921544 0
M  V30 31 C -5.346710 -1.917519 -2.867980 0
M  V30 32 C -2.088435 -1.598035 -3.826854 0
M  V30 33 C -0.725201 -1.707633 -3.992087 0
M  V30 34 C -0.130725 -1.455687 -5.230848 0
M  V30 35 C -0.827970 -1.090364 -6.354496 0
M  V30 36 C -2.186731 -0.994605 -6.144677 0
M  V30 37 C -2.814657 -1.226771 -4.967327 0
M  V30 38 C 5.289742 -0.850184 1.828833 0
M  V30 39 C 6.521022 -1.482165 1.666414 0
M  V30 40 O 7.684496 -1.051736 2.252808 0
M  V30 41 C 7.644865 0.084996 3.076716 0
M  V30 42 H 7.541446 -4.221192 -1.133184 0
M  V30 43 H 7.390939 -5.274559 0.359143 0
M  V30 44 H 9.035513 -4.669836 -0.261695 0
M  V30 45 H 5.510083 -4.046278 -0.403672 0
M  V30 46 H 3.358739 -2.777434 0.004178 0
M  V30 47 H 2.942747 0.263933 2.046388 0
M  V30 48 H 1.614593 -1.847644 0.520199 0
M  V30 49 H -0.705632 -1.322969 0.504675 0
M  V30 50 H -2.594027 -0.552274 1.937197 0
M  V30 51 H -2.105070 1.610440 -0.074831 0
M  V30 52 H -3.660867 1.130476 0.607975 0
M  V30 53 H -1.267265 3.214665 2.986451 0
M  V30 54 H -2.982002 3.233294 3.279244 0
M  V30 55 H -4.146686 1.536268 4.443878 0
M  V30 56 H -4.191004 0.328934 6.570023 0
M  V30 57 H -1.972679 -0.224525 7.702909 0
M  V30 58 H 0.052557 0.487471 6.602778 0
M  V30 59 H 0.064849 1.680893 4.555991 0
M  V30 60 H -1.143767 -0.964724 -1.587987 0
M  V30 61 H -3.116994 -2.809806 -2.302439 0
M  V30 62 H -3.532907 0.843963 -2.432989 0
M  V30 63 H -5.765383 1.927593 -2.524162 0
M  V30 64 H -7.762233 0.410116 -2.853055 0
M  V30 65 H -7.501868 -1.959836 -3.064555 0
M  V30 66 H -5.287209 -2.998367 -2.973624 0
M  V30 67 H -0.114332 -1.999030 -3.121148 0
M  V30 68 H 0.956585 -1.554847 -5.297418 0
M  V30 69 H -0.303192 -0.912786 -7.272996 0
M  V30 70 H -2.804161 -0.712559 -7.010724 0
M  V30 71 H -3.903385 -1.143440 -4.866043 0
M  V30 72 H 5.253335 0.029769 2.452918 0
M  V30 73 H 7.509708 0.977284 2.443847 0
M  V30 74 H 6.824921 0.021501 3.841377 0
M  V30 75 H 8.594403 0.167986 3.643684 0
M  V30 END ATOM
M  V30 BEGIN BOND
M  V30 1 1 1 2
M  V30 2 1 2 3
M  V30 3 2 3 4
M  V30 4 1 4 5
M  V30 5 2 5 6
M  V30 6 1 6 7
M  V30 7 2 7 8
M  V30 8 1 8 9
M  V30 9 2 9 10
M  V30 10 1 9 11
M  V30 11 1 11 12
M  V30 12 1 12 13
M  V30 13 1 13 14
M  V30 14 1 14 15
M  V30 15 1 15 16
M  V30 16 2 16 17
M  V30 17 1 17 18
M  V30 18 2 18 19
M  V30 19 1 19 20
M  V30 20 2 20 21
M  V30 21 1 12 22
M  V30 22 2 22 23
M  V30 23 1 22 24
M  V30 24 1 24 25
M  V30 25 1 25 26
M  V30 26 2 26 27
M  V30 27 1 27 28
M  V30 28 2 28 29
M  V30 29 1 29 30
M  V30 30 2 30 31
M  V30 31 1 25 32
M  V30 32 2 32 33
M  V30 33 1 33 34
M  V30 34 2 34 35
M  V30 35 1 35 36
M  V30 36 2 36 37
M  V30 37 1 6 38
M  V30 38 2 38 39
M  V30 39 1 39 40
M  V30 40 1 40 41
M  V30 41 1 39 3
M  V30 42 1 21 16
M  V30 43 1 31 26
M  V30 44 1 37 32
M  V30 45 1 1 42
M  V30 46 1 1 43
M  V30 47 1 1 44
M  V30 48 1 4 45
M  V30 49 1 5 46
M  V30 50 1 7 47
M  V30 51 1 8 48
M  V30 52 1 11 49
M  V30 53 1 12 50 CFG=1
M  V30 54 1 13 51
M  V30 55 1 13 52
M  V30 56 1 15 53
M  V30 57 1 15 54
M  V30 58 1 17 55
M  V30 59 1 18 56
M  V30 60 1 19 57
M  V30 61 1 20 58
M  V30 62 1 21 59
M  V30 63 1 24 60
M  V30 64 1 25 61
M  V30 65 1 27 62
M  V30 66 1 28 63
M  V30 67 1 29 64
M  V30 68 1 30 65
M  V30 69 1 31 66
M  V30 70 1 33 67
M  V30 71 1 34 68
M  V30 72 1 35 69
M  V30 73 1 36 70
M  V30 74 1 37 71
M  V30 75 1 38 72
M  V30 76 1 41 73
M  V30 77 1 41 74
M  V30 78 1 41 75
M  V30 END BOND
M  V30 END CTAB
M  END
>  <Dataset>  (530) 
ChEMBL_Kinases

>  <Ligand_Instance>  (530) 
nan

>  <PDB_ID>  (530) 
nan

>  <Standardized_SMILES>  (530) 
COc1ccc(/C=C/C(=O)N[C@@H](COCc2ccccc2)C(=O)NC(c2ccccc2)c2ccccc2)cc1OC

>  <Name>  (530) 
nan

>  <Pocket>  (530) 
nan

>  <ATP_Site>  (530) 
nan

>  <Peripheral>  (530) 
nan

>  <Num_H_Atoms_ProtBoundConf>  (530) 
nan

>  <Num_Resolved_Atoms>  (530) 
nan

>  <Num_Not_Resolved_Atoms>  (530) 
nan

$$$$
CHEMBL4447850
     RDKit          3D

  0  0  0  0  0  0  0  0  0  0999 V3000
M  V30 BEGIN CTAB
M  V30 COUNTS 50 53 0 0 0
M  V30 BEGIN ATOM
M  V30 1 C 3.251192 -2.761084 3.504957 0
M  V30 2 C 4.717450 -2.858428 3.270613 0
M  V30 3 C 5.511483 -3.647328 4.098314 0
M  V30 4 C 6.881213 -3.761437 3.910849 0
M  V30 5 C 7.419148 -3.046016 2.851937 0
M  V30 6 C 6.694291 -2.253593 2.002581 0
M  V30 7 C 5.317237 -2.159837 2.218275 0
M  V30 8 N 4.515471 -1.345790 1.358000 0
M  V30 9 C 3.517960 -1.795956 0.540830 0
M  V30 10 C 2.981997 -0.714226 -0.127286 0
M  V30 11 C 1.890218 -0.817303 -1.088244 0
M  V30 12 O 1.426109 -1.965866 -1.287909 0
M  V30 13 N 1.361860 0.305247 -1.775060 0
M  V30 14 C 0.290054 0.307392 -2.738361 0
M  V30 15 C -1.021081 0.173621 -2.097603 0
M  V30 16 C -1.650840 1.352999 -1.741477 0
M  V30 17 C -2.888001 1.397329 -1.132506 0
M  V30 18 C -3.549380 0.194288 -0.855592 0
M  V30 19 C -4.871901 0.095610 -0.214241 0
M  V30 20 O -5.415195 -1.031137 0.038865 0
M  V30 21 N -5.637950 1.210704 0.168270 0
M  V30 22 C -6.938620 1.076598 0.800106 0
M  V30 23 C -7.372295 2.068147 1.852044 0
M  V30 24 C -8.023868 2.038674 0.497858 0
M  V30 25 C -2.934026 -0.994798 -1.204913 0
M  V30 26 C -1.693992 -0.994375 -1.813718 0
M  V30 27 C 3.684976 0.387683 0.312713 0
M  V30 28 N 4.605046 -0.015334 1.208177 0
M  V30 29 H 3.035671 -2.838253 4.611362 0
M  V30 30 H 2.706577 -3.613086 3.049739 0
M  V30 31 H 2.836171 -1.778560 3.195116 0
M  V30 32 H 5.047621 -4.200852 4.928234 0
M  V30 33 H 7.426417 -4.389420 4.590260 0
M  V30 34 H 8.495853 -3.147946 2.719594 0
M  V30 35 H 7.163088 -1.710711 1.184627 0
M  V30 36 H 3.254978 -2.845396 0.485775 0
M  V30 37 H 1.840254 1.215158 -1.517190 0
M  V30 38 H 0.432510 -0.546926 -3.448812 0
M  V30 39 H 0.372664 1.241379 -3.346256 0
M  V30 40 H -1.240404 2.363043 -1.901964 0
M  V30 41 H -3.394997 2.299837 -0.847813 0
M  V30 42 H -5.249978 2.175679 -0.012099 0
M  V30 43 H -7.259645 0.045912 0.974922 0
M  V30 44 H -7.951211 1.725737 2.742820 0
M  V30 45 H -6.637782 2.875006 2.079337 0
M  V30 46 H -9.071466 1.674267 0.518305 0
M  V30 47 H -7.898911 2.863199 -0.225462 0
M  V30 48 H -3.364817 -1.994423 -1.033225 0
M  V30 49 H -1.197705 -1.912814 -2.094731 0
M  V30 50 H 3.488077 1.411950 -0.040755 0
M  V30 END ATOM
M  V30 BEGIN BOND
M  V30 1 1 1 2
M  V30 2 2 2 3
M  V30 3 1 3 4
M  V30 4 2 4 5
M  V30 5 1 5 6
M  V30 6 2 6 7
M  V30 7 1 7 8
M  V30 8 1 8 9
M  V30 9 2 9 10
M  V30 10 1 10 11
M  V30 11 2 11 12
M  V30 12 1 11 13
M  V30 13 1 13 14
M  V30 14 1 14 15
M  V30 15 2 15 16
M  V30 16 1 16 17
M  V30 17 2 17 18
M  V30 18 1 18 19
M  V30 19 2 19 20
M  V30 20 1 19 21
M  V30 21 1 21 22
M  V30 22 1 22 23
M  V30 23 1 23 24
M  V30 24 1 18 25
M  V30 25 2 25 26
M  V30 26 1 10 27
M  V30 27 2 27 28
M  V30 28 1 7 2
M  V30 29 1 28 8
M  V30 30 1 26 15
M  V30 31 1 24 22
M  V30 32 1 1 29
M  V30 33 1 1 30
M  V30 34 1 1 31
M  V30 35 1 3 32
M  V30 36 1 4 33
M  V30 37 1 5 34
M  V30 38 1 6 35
M  V30 39 1 9 36
M  V30 40 1 13 37
M  V30 41 1 14 38
M  V30 42 1 14 39
M  V30 43 1 16 40
M  V30 44 1 17 41
M  V30 45 1 21 42
M  V30 46 1 22 43
M  V30 47 1 23 44
M  V30 48 1 23 45
M  V30 49 1 24 46
M  V30 50 1 24 47
M  V30 51 1 25 48
M  V30 52 1 26 49
M  V30 53 1 27 50
M  V30 END BOND
M  V30 END CTAB
M  END
>  <Dataset>  (531) 
ChEMBL_Kinases

>  <Ligand_Instance>  (531) 
nan

>  <PDB_ID>  (531) 
nan

>  <Standardized_SMILES>  (531) 
Cc1ccccc1-n1cc(C(=O)NCc2ccc(C(=O)NC3CC3)cc2)cn1

>  <Name>  (531) 
nan

>  <Pocket>  (531) 
nan

>  <ATP_Site>  (531) 
nan

>  <Peripheral>  (531) 
nan

>  <Num_H_Atoms_ProtBoundConf>  (531) 
nan

>  <Num_Resolved_Atoms>  (531) 
nan

>  <Num_Not_Resolved_Atoms>  (531) 
nan

$$$$
CHEMBL4447770
     RDKit          3D

  0  0  0  0  0  0  0  0  0  0999 V3000
M  V30 BEGIN CTAB
M  V30 COUNTS 57 59 0 0 0
M  V30 BEGIN ATOM
M  V30 1 C 4.703312 -3.925326 1.630162 0
M  V30 2 C 5.653871 -2.832991 1.857496 0
M  V30 3 O 6.671273 -2.977398 2.612748 0
M  V30 4 C 5.484049 -1.521151 1.229973 0
M  V30 5 C 6.364586 -0.493002 1.425732 0
M  V30 6 C 6.131013 0.732101 0.788024 0
M  V30 7 C 5.041635 0.934274 -0.031263 0
M  V30 8 O 5.049850 2.217299 -0.530000 0
M  V30 9 C 4.125013 2.804986 -1.382642 0
M  V30 10 C 2.745854 2.898943 -0.876420 0
M  V30 11 O 1.970477 3.449628 -1.735066 0
M  V30 12 N 2.106156 2.513567 0.344773 0
M  V30 13 C 0.713485 2.779511 0.455506 0
M  V30 14 C 0.171339 3.959695 0.971003 0
M  V30 15 C -1.194314 4.143974 1.046707 0
M  V30 16 C -2.056727 3.137838 0.602026 0
M  V30 17 C -1.509657 1.968676 0.091397 0
M  V30 18 N -2.341750 0.887946 -0.384799 0
M  V30 19 C -2.642691 -0.039063 0.627723 0
M  V30 20 O -2.149571 0.211864 1.771088 0
M  V30 21 C -3.468909 -1.216451 0.384172 0
M  V30 22 C -4.039629 -1.524304 -0.824661 0
M  V30 23 C -4.797532 -2.661070 -0.936761 0
M  V30 24 C -5.046750 -3.551665 0.085452 0
M  V30 25 N -5.829892 -4.728989 -0.020733 0
M  V30 26 C -6.018835 -5.596390 1.136482 0
M  V30 27 C -6.496643 -5.181309 -1.215791 0
M  V30 28 C -4.469319 -3.234045 1.296091 0
M  V30 29 C -3.689245 -2.087521 1.459914 0
M  V30 30 C -0.138385 1.789112 0.017920 0
M  V30 31 C 4.151938 -0.131003 -0.218915 0
M  V30 32 C 4.394287 -1.326849 0.413687 0
M  V30 33 F 3.459784 -2.279658 0.151773 0
M  V30 34 H 4.662359 -4.192983 0.535117 0
M  V30 35 H 5.083988 -4.834912 2.147927 0
M  V30 36 H 3.663080 -3.719673 1.942678 0
M  V30 37 H 7.201695 -0.697531 2.074660 0
M  V30 38 H 6.924546 1.451357 1.044526 0
M  V30 39 H 4.470931 3.862379 -1.577904 0
M  V30 40 H 4.109273 2.339653 -2.403535 0
M  V30 41 H 2.805709 2.079941 0.992115 0
M  V30 42 H 0.903381 4.711626 1.303408 0
M  V30 43 H -1.585723 5.070894 1.451829 0
M  V30 44 H -3.114399 3.254097 0.648157 0
M  V30 45 H -2.698661 0.774279 -1.361966 0
M  V30 46 H -3.877605 -0.862216 -1.661296 0
M  V30 47 H -5.218427 -2.852116 -1.898424 0
M  V30 48 H -6.337432 -6.606333 0.873292 0
M  V30 49 H -6.785165 -5.170427 1.829218 0
M  V30 50 H -5.064245 -5.728626 1.720332 0
M  V30 51 H -7.564823 -4.896902 -1.123291 0
M  V30 52 H -6.360933 -6.275707 -1.348668 0
M  V30 53 H -6.003835 -4.708338 -2.084263 0
M  V30 54 H -4.560163 -3.812677 2.188812 0
M  V30 55 H -3.228779 -1.833811 2.424098 0
M  V30 56 H 0.243329 0.857012 -0.389607 0
M  V30 57 H 3.345839 0.156032 -0.878924 0
M  V30 END ATOM
M  V30 BEGIN BOND
M  V30 1 1 1 2
M  V30 2 2 2 3
M  V30 3 1 2 4
M  V30 4 2 4 5
M  V30 5 1 5 6
M  V30 6 2 6 7
M  V30 7 1 7 8
M  V30 8 1 8 9
M  V30 9 1 9 10
M  V30 10 2 10 11
M  V30 11 1 10 12
M  V30 12 1 12 13
M  V30 13 2 13 14
M  V30 14 1 14 15
M  V30 15 2 15 16
M  V30 16 1 16 17
M  V30 17 1 17 18
M  V30 18 1 18 19
M  V30 19 2 19 20
M  V30 20 1 19 21
M  V30 21 2 21 22
M  V30 22 1 22 23
M  V30 23 2 23 24
M  V30 24 1 24 25
M  V30 25 1 25 26
M  V30 26 1 25 27
M  V30 27 1 24 28
M  V30 28 2 28 29
M  V30 29 2 17 30
M  V30 30 1 7 31
M  V30 31 2 31 32
M  V30 32 1 32 33
M  V30 33 1 32 4
M  V30 34 1 30 13
M  V30 35 1 29 21
M  V30 36 1 1 34
M  V30 37 1 1 35
M  V30 38 1 1 36
M  V30 39 1 5 37
M  V30 40 1 6 38
M  V30 41 1 9 39
M  V30 42 1 9 40
M  V30 43 1 12 41
M  V30 44 1 14 42
M  V30 45 1 15 43
M  V30 46 1 16 44
M  V30 47 1 18 45
M  V30 48 1 22 46
M  V30 49 1 23 47
M  V30 50 1 26 48
M  V30 51 1 26 49
M  V30 52 1 26 50
M  V30 53 1 27 51
M  V30 54 1 27 52
M  V30 55 1 27 53
M  V30 56 1 28 54
M  V30 57 1 29 55
M  V30 58 1 30 56
M  V30 59 1 31 57
M  V30 END BOND
M  V30 END CTAB
M  END
>  <Dataset>  (532) 
ChEMBL_Kinases

>  <Ligand_Instance>  (532) 
nan

>  <PDB_ID>  (532) 
nan

>  <Standardized_SMILES>  (532) 
CC(=O)c1ccc(OCC(=O)Nc2cccc(NC(=O)c3ccc(N(C)C)cc3)c2)cc1F

>  <Name>  (532) 
nan

>  <Pocket>  (532) 
nan

>  <ATP_Site>  (532) 
nan

>  <Peripheral>  (532) 
nan

>  <Num_H_Atoms_ProtBoundConf>  (532) 
nan

>  <Num_Resolved_Atoms>  (532) 
nan

>  <Num_Not_Resolved_Atoms>  (532) 
nan

$$$$
CHEMBL3717691
     RDKit          3D

  0  0  0  0  0  0  0  0  0  0999 V3000
M  V30 BEGIN CTAB
M  V30 COUNTS 50 53 0 0 0
M  V30 BEGIN ATOM
M  V30 1 C 0.380330 0.566787 4.097262 0
M  V30 2 C -0.108967 1.312268 2.898290 0
M  V30 3 C -1.141638 2.326174 3.389757 0
M  V30 4 N 0.983665 2.049783 2.323523 0
M  V30 5 C 2.151676 1.421145 1.809942 0
M  V30 6 C 2.351233 0.059321 1.800768 0
M  V30 7 C 3.471992 -0.568284 1.312353 0
M  V30 8 C 4.496122 0.222503 0.781035 0
M  V30 9 C 4.356884 1.586052 0.761603 0
M  V30 10 S 5.629536 2.571519 0.101778 0
M  V30 11 N 5.371787 2.817776 -1.607125 0
M  V30 12 O 5.666731 3.903721 0.807794 0
M  V30 13 O 6.925944 1.854581 0.269517 0
M  V30 14 C 3.200966 2.135918 1.271446 0
M  V30 15 C -0.700396 0.437682 1.845283 0
M  V30 16 O -0.485402 0.194420 0.608095 0
M  V30 17 N -1.798592 -0.365361 2.259830 0
M  V30 18 C -2.278612 -1.180276 1.103213 0
M  V30 19 N -1.954065 -2.242005 0.752565 0
M  V30 20 C -2.365898 -2.966337 -0.257803 0
M  V30 21 C -2.032497 -4.229113 -0.739186 0
M  V30 22 C -0.995071 -5.040863 -0.045664 0
M  V30 23 F 0.208655 -4.365505 -0.042110 0
M  V30 24 F -0.819431 -6.216380 -0.705287 0
M  V30 25 F -1.389202 -5.353062 1.249069 0
M  V30 26 C -2.655290 -4.734392 -1.852842 0
M  V30 27 C -3.628658 -4.107915 -2.598081 0
M  V30 28 N -4.409994 -4.285575 -3.674798 0
M  V30 29 N -5.194520 -3.245430 -3.899445 0
M  V30 30 C -4.977628 -2.280856 -2.957234 0
M  V30 31 C -4.011212 -2.855206 -2.183613 0
M  V30 32 C -3.378591 -2.345699 -1.055058 0
M  V30 33 S -3.577522 -0.702678 -0.143136 0
M  V30 34 H 0.165853 -0.525896 4.082113 0
M  V30 35 H -0.083999 0.927602 5.047377 0
M  V30 36 H 1.488857 0.667051 4.205293 0
M  V30 37 H -0.703325 2.745347 4.336050 0
M  V30 38 H -2.103004 1.839343 3.547397 0
M  V30 39 H -1.160455 3.146599 2.639477 0
M  V30 40 H 0.963252 3.093514 2.258763 0
M  V30 41 H 1.616233 -0.601858 2.185588 0
M  V30 42 H 3.609046 -1.640800 1.314630 0
M  V30 43 H 5.380895 -0.269105 0.395139 0
M  V30 44 H 4.388493 3.193769 -1.674829 0
M  V30 45 H 5.285664 1.837764 -2.013790 0
M  V30 46 H 3.155005 3.219669 1.225453 0
M  V30 47 H -2.247555 -0.427533 3.196383 0
M  V30 48 H -2.383637 -5.735991 -2.226135 0
M  V30 49 H -4.354934 -5.182886 -4.238307 0
M  V30 50 H -5.407204 -1.302738 -2.793080 0
M  V30 END ATOM
M  V30 BEGIN BOND
M  V30 1 1 1 2
M  V30 2 1 2 3
M  V30 3 1 2 4
M  V30 4 1 4 5
M  V30 5 2 5 6
M  V30 6 1 6 7
M  V30 7 2 7 8
M  V30 8 1 8 9
M  V30 9 1 9 10
M  V30 10 1 10 11
M  V30 11 2 10 12
M  V30 12 2 10 13
M  V30 13 2 9 14
M  V30 14 1 2 15
M  V30 15 2 15 16
M  V30 16 1 15 17
M  V30 17 1 17 18
M  V30 18 2 18 19
M  V30 19 1 19 20
M  V30 20 2 20 21
M  V30 21 1 21 22
M  V30 22 1 22 23
M  V30 23 1 22 24
M  V30 24 1 22 25
M  V30 25 1 21 26
M  V30 26 2 26 27
M  V30 27 1 27 28
M  V30 28 1 28 29
M  V30 29 2 29 30
M  V30 30 1 30 31
M  V30 31 2 31 32
M  V30 32 1 32 33
M  V30 33 1 14 5
M  V30 34 1 33 18
M  V30 35 1 32 20
M  V30 36 1 31 27
M  V30 37 1 1 34
M  V30 38 1 1 35
M  V30 39 1 1 36
M  V30 40 1 3 37
M  V30 41 1 3 38
M  V30 42 1 3 39
M  V30 43 1 4 40
M  V30 44 1 6 41
M  V30 45 1 7 42
M  V30 46 1 8 43
M  V30 47 1 11 44
M  V30 48 1 11 45
M  V30 49 1 14 46
M  V30 50 1 17 47
M  V30 51 1 26 48
M  V30 52 1 28 49
M  V30 53 1 30 50
M  V30 END BOND
M  V30 END CTAB
M  END
>  <Dataset>  (533) 
ChEMBL_Kinases

>  <Ligand_Instance>  (533) 
nan

>  <PDB_ID>  (533) 
nan

>  <Standardized_SMILES>  (533) 
CC(C)(Nc1cccc(S(N)(=O)=O)c1)C(=O)Nc1nc2c(C(F)(F)F)cc3[nH]ncc3c2s1

>  <Name>  (533) 
nan

>  <Pocket>  (533) 
nan

>  <ATP_Site>  (533) 
nan

>  <Peripheral>  (533) 
nan

>  <Num_H_Atoms_ProtBoundConf>  (533) 
nan

>  <Num_Resolved_Atoms>  (533) 
nan

>  <Num_Not_Resolved_Atoms>  (533) 
nan

$$$$
CHEMBL3717335
     RDKit          3D

  0  0  0  0  0  0  0  0  0  0999 V3000
M  V30 BEGIN CTAB
M  V30 COUNTS 58 61 0 0 0
M  V30 BEGIN ATOM
M  V30 1 C 1.053534 1.441775 8.544468 0
M  V30 2 C 2.266907 0.734305 7.976998 0
M  V30 3 C 2.258777 0.665569 6.499648 0
M  V30 4 C 2.797886 1.601293 5.643865 0
M  V30 5 C 2.786775 1.523500 4.267062 0
M  V30 6 C 2.178704 0.402444 3.694101 0
M  V30 7 C 2.087952 0.178512 2.254022 0
M  V30 8 C 1.980019 1.183991 1.315997 0
M  V30 9 C 1.894607 0.913378 -0.033712 0
M  V30 10 C 1.914878 -0.383471 -0.488764 0
M  V30 11 C 1.833572 -0.821686 -1.902248 0
M  V30 12 O 1.854362 -2.055543 -2.243541 0
M  V30 13 N 1.724629 0.082172 -3.026423 0
M  V30 14 C 1.664028 -0.814368 -4.172454 0
M  V30 15 C 0.465049 -1.689796 -4.156913 0
M  V30 16 O 0.443052 -2.491708 -5.117967 0
M  V30 17 N -0.611340 -1.724305 -3.229029 0
M  V30 18 C -1.689513 -2.674946 -3.399681 0
M  V30 19 C -1.846464 -3.590346 -2.200059 0
M  V30 20 N -2.192604 -2.907748 -0.993710 0
M  V30 21 C -3.386633 -2.116913 -1.044976 0
M  V30 22 C -3.716139 -1.778106 -2.450934 0
M  V30 23 C -4.944377 -1.150013 -2.556757 0
M  V30 24 C -5.464956 -0.737173 -3.773086 0
M  V30 25 C -4.715421 -0.969930 -4.913069 0
M  V30 26 C -3.482200 -1.597896 -4.831997 0
M  V30 27 C -2.994074 -1.995517 -3.605445 0
M  V30 28 C 2.022103 -1.406427 0.429782 0
M  V30 29 C 2.106324 -1.116114 1.775886 0
M  V30 30 C 1.612760 -0.583716 4.513245 0
M  V30 31 C 1.661445 -0.437714 5.883859 0
M  V30 32 H 0.176070 1.251760 7.862903 0
M  V30 33 H 1.285686 2.519352 8.617414 0
M  V30 34 H 0.797151 0.979475 9.519015 0
M  V30 35 H 2.304082 -0.301237 8.377431 0
M  V30 36 H 3.164826 1.323211 8.294503 0
M  V30 37 H 3.272586 2.477152 6.104158 0
M  V30 38 H 3.209286 2.256474 3.628340 0
M  V30 39 H 1.963969 2.195911 1.668574 0
M  V30 40 H 1.809899 1.669046 -0.791245 0
M  V30 41 H 1.713216 1.113749 -2.795277 0
M  V30 42 H 2.610304 -1.379221 -4.294297 0
M  V30 43 H 1.567463 -0.170435 -5.069571 0
M  V30 44 H -0.588923 -1.038261 -2.448856 0
M  V30 45 H -1.487753 -3.292007 -4.280626 0
M  V30 46 H -2.645168 -4.320038 -2.449086 0
M  V30 47 H -0.854309 -4.065424 -2.036203 0
M  V30 48 H -1.382916 -2.419318 -0.549519 0
M  V30 49 H -3.170063 -1.139980 -0.526933 0
M  V30 50 H -4.248115 -2.631301 -0.566543 0
M  V30 51 H -5.633179 -0.907861 -1.736395 0
M  V30 52 H -6.422234 -0.242300 -3.907530 0
M  V30 53 H -4.995380 -0.702117 -5.929086 0
M  V30 54 H -2.849946 -1.806392 -5.693140 0
M  V30 55 H 2.042301 -2.463843 0.115917 0
M  V30 56 H 2.189577 -1.959589 2.457017 0
M  V30 57 H 1.126649 -1.474648 4.130932 0
M  V30 58 H 1.225885 -1.193513 6.527200 0
M  V30 END ATOM
M  V30 BEGIN BOND
M  V30 1 1 1 2
M  V30 2 1 2 3
M  V30 3 2 3 4
M  V30 4 1 4 5
M  V30 5 2 5 6
M  V30 6 1 6 7
M  V30 7 2 7 8
M  V30 8 1 8 9
M  V30 9 2 9 10
M  V30 10 1 10 11
M  V30 11 2 11 12
M  V30 12 1 11 13
M  V30 13 1 13 14
M  V30 14 1 14 15
M  V30 15 2 15 16
M  V30 16 1 15 17
M  V30 17 1 17 18
M  V30 18 1 18 19
M  V30 19 1 19 20
M  V30 20 1 20 21
M  V30 21 1 21 22
M  V30 22 2 22 23
M  V30 23 1 23 24
M  V30 24 2 24 25
M  V30 25 1 25 26
M  V30 26 2 26 27
M  V30 27 1 10 28
M  V30 28 2 28 29
M  V30 29 1 6 30
M  V30 30 2 30 31
M  V30 31 1 31 3
M  V30 32 1 29 7
M  V30 33 1 27 18
M  V30 34 1 27 22
M  V30 35 1 1 32
M  V30 36 1 1 33
M  V30 37 1 1 34
M  V30 38 1 2 35
M  V30 39 1 2 36
M  V30 40 1 4 37
M  V30 41 1 5 38
M  V30 42 1 8 39
M  V30 43 1 9 40
M  V30 44 1 13 41
M  V30 45 1 14 42
M  V30 46 1 14 43
M  V30 47 1 17 44
M  V30 48 1 18 45
M  V30 49 1 19 46
M  V30 50 1 19 47
M  V30 51 1 20 48
M  V30 52 1 21 49
M  V30 53 1 21 50
M  V30 54 1 23 51
M  V30 55 1 24 52
M  V30 56 1 25 53
M  V30 57 1 26 54
M  V30 58 1 28 55
M  V30 59 1 29 56
M  V30 60 1 30 57
M  V30 61 1 31 58
M  V30 END BOND
M  V30 END CTAB
M  END
>  <Dataset>  (534) 
ChEMBL_Kinases

>  <Ligand_Instance>  (534) 
nan

>  <PDB_ID>  (534) 
nan

>  <Standardized_SMILES>  (534) 
CCc1ccc(-c2ccc(C(=O)NCC(=O)NC3CNCc4ccccc43)cc2)cc1

>  <Name>  (534) 
nan

>  <Pocket>  (534) 
nan

>  <ATP_Site>  (534) 
nan

>  <Peripheral>  (534) 
nan

>  <Num_H_Atoms_ProtBoundConf>  (534) 
nan

>  <Num_Resolved_Atoms>  (534) 
nan

>  <Num_Not_Resolved_Atoms>  (534) 
nan

$$$$
CHEMBL3719241
     RDKit          3D

  0  0  0  0  0  0  0  0  0  0999 V3000
M  V30 BEGIN CTAB
M  V30 COUNTS 46 49 0 0 0
M  V30 BEGIN ATOM
M  V30 1 C 0.211842 2.216677 3.294848 0
M  V30 2 C 1.261934 1.322334 2.673146 0
M  V30 3 C 1.807171 0.371550 3.727256 0
M  V30 4 N 2.352726 2.115025 2.149025 0
M  V30 5 C 3.499157 1.586552 1.499727 0
M  V30 6 C 3.722298 0.246599 1.283123 0
M  V30 7 C 4.830542 -0.272312 0.655012 0
M  V30 8 C 5.798314 0.587963 0.202403 0
M  V30 9 Cl 7.223027 -0.049163 -0.603009 0
M  V30 10 C 5.624786 1.935703 0.393139 0
M  V30 11 O 6.591937 2.841125 -0.055956 0
M  V30 12 C 4.497603 2.409896 1.028056 0
M  V30 13 C 0.664235 0.504351 1.556150 0
M  V30 14 O 0.687225 0.190913 0.315376 0
M  V30 15 N -0.393279 -0.267289 2.095496 0
M  V30 16 C -1.173534 -1.166174 1.267991 0
M  V30 17 N -2.129707 -1.038326 0.653132 0
M  V30 18 C -2.829332 -1.851877 -0.092203 0
M  V30 19 C -3.988689 -1.679421 -0.832079 0
M  V30 20 C -4.707152 -0.354820 -0.893915 0
M  V30 21 F -3.861380 0.606955 -1.417364 0
M  V30 22 F -5.205039 -0.045353 0.334848 0
M  V30 23 F -5.767162 -0.441630 -1.772585 0
M  V30 24 C -4.512176 -2.727478 -1.532901 0
M  V30 25 C -4.012051 -4.007191 -1.606319 0
M  V30 26 N -4.219169 -5.217070 -2.142732 0
M  V30 27 N -3.290651 -6.088884 -1.789238 0
M  V30 28 C -2.399908 -5.488732 -0.982044 0
M  V30 29 C -2.840296 -4.189505 -0.861162 0
M  V30 30 C -2.297542 -3.104580 -0.135055 0
M  V30 31 S -0.892181 -2.991541 0.866606 0
M  V30 32 H 0.091488 3.100240 2.630306 0
M  V30 33 H -0.719462 1.655536 3.465324 0
M  V30 34 H 0.653438 2.609889 4.235411 0
M  V30 35 H 1.308581 0.575906 4.717777 0
M  V30 36 H 1.560617 -0.688082 3.508665 0
M  V30 37 H 2.911300 0.430036 3.823933 0
M  V30 38 H 2.299223 3.158181 2.252937 0
M  V30 39 H 3.004340 -0.477214 1.612733 0
M  V30 40 H 4.957303 -1.340418 0.509523 0
M  V30 41 H 6.979654 2.651763 -0.985784 0
M  V30 42 H 4.410325 3.486859 1.153150 0
M  V30 43 H -0.801985 -0.358142 3.074350 0
M  V30 44 H -5.434737 -2.598985 -2.124549 0
M  V30 45 H -5.069463 -5.345852 -2.768458 0
M  V30 46 H -1.515877 -5.860483 -0.496191 0
M  V30 END ATOM
M  V30 BEGIN BOND
M  V30 1 1 1 2
M  V30 2 1 2 3
M  V30 3 1 2 4
M  V30 4 1 4 5
M  V30 5 2 5 6
M  V30 6 1 6 7
M  V30 7 2 7 8
M  V30 8 1 8 9
M  V30 9 1 8 10
M  V30 10 1 10 11
M  V30 11 2 10 12
M  V30 12 1 2 13
M  V30 13 2 13 14
M  V30 14 1 13 15
M  V30 15 1 15 16
M  V30 16 2 16 17
M  V30 17 1 17 18
M  V30 18 2 18 19
M  V30 19 1 19 20
M  V30 20 1 20 21
M  V30 21 1 20 22
M  V30 22 1 20 23
M  V30 23 1 19 24
M  V30 24 2 24 25
M  V30 25 1 25 26
M  V30 26 1 26 27
M  V30 27 2 27 28
M  V30 28 1 28 29
M  V30 29 2 29 30
M  V30 30 1 30 31
M  V30 31 1 12 5
M  V30 32 1 31 16
M  V30 33 1 30 18
M  V30 34 1 29 25
M  V30 35 1 1 32
M  V30 36 1 1 33
M  V30 37 1 1 34
M  V30 38 1 3 35
M  V30 39 1 3 36
M  V30 40 1 3 37
M  V30 41 1 4 38
M  V30 42 1 6 39
M  V30 43 1 7 40
M  V30 44 1 11 41
M  V30 45 1 12 42
M  V30 46 1 15 43
M  V30 47 1 24 44
M  V30 48 1 26 45
M  V30 49 1 28 46
M  V30 END BOND
M  V30 END CTAB
M  END
>  <Dataset>  (535) 
ChEMBL_Kinases

>  <Ligand_Instance>  (535) 
nan

>  <PDB_ID>  (535) 
nan

>  <Standardized_SMILES>  (535) 
CC(C)(Nc1ccc(Cl)c(O)c1)C(=O)Nc1nc2c(C(F)(F)F)cc3[nH]ncc3c2s1

>  <Name>  (535) 
nan

>  <Pocket>  (535) 
nan

>  <ATP_Site>  (535) 
nan

>  <Peripheral>  (535) 
nan

>  <Num_H_Atoms_ProtBoundConf>  (535) 
nan

>  <Num_Resolved_Atoms>  (535) 
nan

>  <Num_Not_Resolved_Atoms>  (535) 
nan

$$$$
CHEMBL2442304
     RDKit          3D

  0  0  0  0  0  0  0  0  0  0999 V3000
M  V30 BEGIN CTAB
M  V30 COUNTS 38 41 0 0 0
M  V30 BEGIN ATOM
M  V30 1 N 0.266839 -4.816613 2.522612 0
M  V30 2 C 0.784530 -4.720295 1.160143 0
M  V30 3 C 0.775629 -3.300984 0.673630 0
M  V30 4 N 1.293885 -3.220405 -0.684636 0
M  V30 5 C 1.369830 -1.948239 -1.335980 0
M  V30 6 C 1.857927 -1.837425 -2.627669 0
M  V30 7 C 1.897586 -0.569065 -3.184588 0
M  V30 8 N 1.479066 0.533947 -2.506981 0
M  V30 9 N 1.409464 1.830207 -2.793671 0
M  V30 10 C 0.901947 2.504277 -1.733858 0
M  V30 11 C 0.630223 1.590806 -0.709082 0
M  V30 12 C 0.074873 1.849614 0.622437 0
M  V30 13 C 0.485180 2.881775 1.448107 0
M  V30 14 C -0.133558 2.996080 2.674171 0
M  V30 15 C -1.117191 2.134585 3.080348 0
M  V30 16 N -1.866844 2.021054 4.193074 0
M  V30 17 C -2.726273 0.968647 4.104701 0
M  V30 18 O -3.547468 0.628591 5.004600 0
M  V30 19 N -2.493455 0.410476 2.881422 0
M  V30 20 C -1.525736 1.104619 2.254917 0
M  V30 21 C -0.917835 0.963226 1.007301 0
M  V30 22 C 1.011385 0.381320 -1.252652 0
M  V30 23 N 0.963082 -0.838244 -0.691073 0
M  V30 24 H 0.847734 -5.497765 3.089500 0
M  V30 25 H 0.319292 -3.892312 3.001108 0
M  V30 26 H 0.130370 -5.317423 0.470646 0
M  V30 27 H 1.813745 -5.123917 1.178543 0
M  V30 28 H 1.527351 -2.759597 1.319124 0
M  V30 29 H -0.198075 -2.830888 0.811286 0
M  V30 30 H 1.615967 -4.063667 -1.208176 0
M  V30 31 H 2.196254 -2.715115 -3.180472 0
M  V30 32 H 2.273397 -0.425637 -4.199974 0
M  V30 33 H 0.709874 3.570570 -1.623876 0
M  V30 34 H 1.260337 3.508720 1.051153 0
M  V30 35 H 0.194163 3.807978 3.315124 0
M  V30 36 H -1.817523 2.651228 5.040855 0
M  V30 37 H -3.016695 -0.422801 2.542830 0
M  V30 38 H -1.254559 0.141541 0.367235 0
M  V30 END ATOM
M  V30 BEGIN BOND
M  V30 1 1 1 2
M  V30 2 1 2 3
M  V30 3 1 3 4
M  V30 4 1 4 5
M  V30 5 1 5 6
M  V30 6 2 6 7
M  V30 7 1 7 8
M  V30 8 1 8 9
M  V30 9 2 9 10
M  V30 10 1 10 11
M  V30 11 1 11 12
M  V30 12 2 12 13
M  V30 13 1 13 14
M  V30 14 2 14 15
M  V30 15 1 15 16
M  V30 16 1 16 17
M  V30 17 2 17 18
M  V30 18 1 17 19
M  V30 19 1 19 20
M  V30 20 2 20 21
M  V30 21 2 11 22
M  V30 22 1 22 23
M  V30 23 2 23 5
M  V30 24 1 22 8
M  V30 25 1 21 12
M  V30 26 1 20 15
M  V30 27 1 1 24
M  V30 28 1 1 25
M  V30 29 1 2 26
M  V30 30 1 2 27
M  V30 31 1 3 28
M  V30 32 1 3 29
M  V30 33 1 4 30
M  V30 34 1 6 31
M  V30 35 1 7 32
M  V30 36 1 10 33
M  V30 37 1 13 34
M  V30 38 1 14 35
M  V30 39 1 16 36
M  V30 40 1 19 37
M  V30 41 1 21 38
M  V30 END BOND
M  V30 END CTAB
M  END
>  <Dataset>  (536) 
ChEMBL_Kinases

>  <Ligand_Instance>  (536) 
nan

>  <PDB_ID>  (536) 
nan

>  <Standardized_SMILES>  (536) 
NCCNc1ccn2ncc(-c3ccc4[nH]c(=O)[nH]c4c3)c2n1

>  <Name>  (536) 
nan

>  <Pocket>  (536) 
nan

>  <ATP_Site>  (536) 
nan

>  <Peripheral>  (536) 
nan

>  <Num_H_Atoms_ProtBoundConf>  (536) 
nan

>  <Num_Resolved_Atoms>  (536) 
nan

>  <Num_Not_Resolved_Atoms>  (536) 
nan

$$$$
CHEMBL2442305
     RDKit          3D

  0  0  0  0  0  0  0  0  0  0999 V3000
M  V30 BEGIN CTAB
M  V30 COUNTS 37 40 0 0 0
M  V30 BEGIN ATOM
M  V30 1 N -0.025158 -3.776497 -0.596254 0
M  V30 2 C 1.065872 -4.360371 0.203053 0
M  V30 3 C 2.382133 -4.145237 -0.513094 0
M  V30 4 N 2.707267 -2.763672 -0.718828 0
M  V30 5 C 1.846044 -1.841730 -1.321721 0
M  V30 6 C 1.492836 -1.612295 -2.616092 0
M  V30 7 C 0.640792 -0.657411 -3.070359 0
M  V30 8 N 0.096676 0.145041 -2.089288 0
M  V30 9 N -0.746676 1.140328 -2.245765 0
M  V30 10 C -1.058058 1.703380 -1.030907 0
M  V30 11 C -0.303462 0.925798 -0.153542 0
M  V30 12 C -0.350448 1.214515 1.274046 0
M  V30 13 C 0.787098 1.238914 2.063359 0
M  V30 14 C 0.807777 1.523747 3.425306 0
M  V30 15 C -0.478168 1.789962 3.924996 0
M  V30 16 C -0.803170 2.110460 5.237144 0
M  V30 17 N -2.126400 2.284211 5.275760 0
M  V30 18 N -2.675842 2.095139 4.064488 0
M  V30 19 C -1.646267 1.787725 3.223199 0
M  V30 20 C -1.568271 1.490912 1.864665 0
M  V30 21 C 0.418438 -0.045932 -0.793348 0
M  V30 22 N 1.262147 -1.007811 -0.442047 0
M  V30 23 H -0.888822 -4.008612 -0.051945 0
M  V30 24 H -0.074643 -4.367251 -1.479781 0
M  V30 25 H 1.049748 -3.976140 1.221655 0
M  V30 26 H 0.888978 -5.453647 0.216387 0
M  V30 27 H 3.213419 -4.623132 0.014744 0
M  V30 28 H 2.276189 -4.595772 -1.528179 0
M  V30 29 H 3.609691 -2.301142 -0.441316 0
M  V30 30 H 1.977225 -2.298085 -3.309815 0
M  V30 31 H 0.389267 -0.510997 -4.106190 0
M  V30 32 H -1.719821 2.533644 -0.836365 0
M  V30 33 H 1.720414 1.020276 1.587494 0
M  V30 34 H 1.693221 1.541145 4.032779 0
M  V30 35 H -0.080760 2.194815 6.067847 0
M  V30 36 H -3.685110 2.155562 3.771528 0
M  V30 37 H -2.496507 1.493736 1.319358 0
M  V30 END ATOM
M  V30 BEGIN BOND
M  V30 1 1 1 2
M  V30 2 1 2 3
M  V30 3 1 3 4
M  V30 4 1 4 5
M  V30 5 1 5 6
M  V30 6 2 6 7
M  V30 7 1 7 8
M  V30 8 1 8 9
M  V30 9 2 9 10
M  V30 10 1 10 11
M  V30 11 1 11 12
M  V30 12 2 12 13
M  V30 13 1 13 14
M  V30 14 2 14 15
M  V30 15 1 15 16
M  V30 16 2 16 17
M  V30 17 1 17 18
M  V30 18 1 18 19
M  V30 19 2 19 20
M  V30 20 2 11 21
M  V30 21 1 21 22
M  V30 22 2 22 5
M  V30 23 1 21 8
M  V30 24 1 20 12
M  V30 25 1 19 15
M  V30 26 1 1 23
M  V30 27 1 1 24
M  V30 28 1 2 25
M  V30 29 1 2 26
M  V30 30 1 3 27
M  V30 31 1 3 28
M  V30 32 1 4 29
M  V30 33 1 6 30
M  V30 34 1 7 31
M  V30 35 1 10 32
M  V30 36 1 13 33
M  V30 37 1 14 34
M  V30 38 1 16 35
M  V30 39 1 18 36
M  V30 40 1 20 37
M  V30 END BOND
M  V30 END CTAB
M  END
>  <Dataset>  (537) 
ChEMBL_Kinases

>  <Ligand_Instance>  (537) 
nan

>  <PDB_ID>  (537) 
nan

>  <Standardized_SMILES>  (537) 
NCCNc1ccn2ncc(-c3ccc4cn[nH]c4c3)c2n1

>  <Name>  (537) 
nan

>  <Pocket>  (537) 
nan

>  <ATP_Site>  (537) 
nan

>  <Peripheral>  (537) 
nan

>  <Num_H_Atoms_ProtBoundConf>  (537) 
nan

>  <Num_Resolved_Atoms>  (537) 
nan

>  <Num_Not_Resolved_Atoms>  (537) 
nan

$$$$
CHEMBL2442307
     RDKit          3D

  0  0  0  0  0  0  0  0  0  0999 V3000
M  V30 BEGIN CTAB
M  V30 COUNTS 44 47 0 0 0
M  V30 BEGIN ATOM
M  V30 1 N -0.226142 -5.486119 0.989595 0
M  V30 2 C 0.357130 -4.746136 -0.118759 0
M  V30 3 C -0.554266 -3.578923 -0.437635 0
M  V30 4 N -0.059908 -2.779961 -1.528295 0
M  V30 5 C 1.212083 -2.185953 -1.327896 0
M  V30 6 C 2.419628 -2.772202 -1.636844 0
M  V30 7 C 3.654333 -2.198005 -1.445330 0
M  V30 8 N 3.643429 -0.949662 -0.904817 0
M  V30 9 N 4.664914 -0.140337 -0.601045 0
M  V30 10 C 4.205259 0.998070 -0.086841 0
M  V30 11 C 2.842491 0.919190 -0.058785 0
M  V30 12 C 1.807422 1.861638 0.393672 0
M  V30 13 C 1.826013 3.208775 0.092202 0
M  V30 14 C 0.809420 4.036328 0.556247 0
M  V30 15 C -0.215257 3.514188 1.315802 0
M  V30 16 C -0.261830 2.174581 1.633391 0
M  V30 17 C -1.306456 1.534007 2.429521 0
M  V30 18 C -1.181824 0.442021 3.264467 0
M  V30 19 C -2.299661 0.009387 3.913111 0
M  V30 20 C -3.508880 0.615938 3.759835 0
M  V30 21 C -3.686702 1.717253 2.931759 0
M  V30 22 C -2.534402 2.156111 2.268998 0
M  V30 23 C 0.763866 1.386928 1.154758 0
M  V30 24 C 2.501058 -0.329999 -0.584321 0
M  V30 25 N 1.299591 -0.936558 -0.791624 0
M  V30 26 H -0.909772 -4.933924 1.530833 0
M  V30 27 H 0.498946 -5.955947 1.538794 0
M  V30 28 H 0.422972 -5.415546 -0.981975 0
M  V30 29 H 1.347617 -4.368688 0.216634 0
M  V30 30 H -1.547188 -3.993929 -0.696483 0
M  V30 31 H -0.712479 -2.993139 0.494273 0
M  V30 32 H -0.591736 -2.636645 -2.418483 0
M  V30 33 H 2.331927 -3.776336 -2.066673 0
M  V30 34 H 4.561649 -2.724954 -1.715564 0
M  V30 35 H 4.729648 1.866349 0.265839 0
M  V30 36 H 2.622398 3.601396 -0.495335 0
M  V30 37 H 0.830520 5.097872 0.315239 0
M  V30 38 H -1.026707 4.148163 1.692586 0
M  V30 39 H -0.177138 0.041466 3.309866 0
M  V30 40 H -2.175470 -0.841982 4.556051 0
M  V30 41 H -4.358203 0.226145 4.301528 0
M  V30 42 H -4.648244 2.180418 2.824476 0
M  V30 43 H -2.728089 3.020952 1.633783 0
M  V30 44 H 0.755922 0.316953 1.391030 0
M  V30 END ATOM
M  V30 BEGIN BOND
M  V30 1 1 1 2
M  V30 2 1 2 3
M  V30 3 1 3 4
M  V30 4 1 4 5
M  V30 5 1 5 6
M  V30 6 2 6 7
M  V30 7 1 7 8
M  V30 8 1 8 9
M  V30 9 2 9 10
M  V30 10 1 10 11
M  V30 11 1 11 12
M  V30 12 2 12 13
M  V30 13 1 13 14
M  V30 14 2 14 15
M  V30 15 1 15 16
M  V30 16 1 16 17
M  V30 17 2 17 18
M  V30 18 1 18 19
M  V30 19 2 19 20
M  V30 20 1 20 21
M  V30 21 2 21 22
M  V30 22 2 16 23
M  V30 23 2 11 24
M  V30 24 1 24 25
M  V30 25 2 25 5
M  V30 26 1 24 8
M  V30 27 1 23 12
M  V30 28 1 22 17
M  V30 29 1 1 26
M  V30 30 1 1 27
M  V30 31 1 2 28
M  V30 32 1 2 29
M  V30 33 1 3 30
M  V30 34 1 3 31
M  V30 35 1 4 32
M  V30 36 1 6 33
M  V30 37 1 7 34
M  V30 38 1 10 35
M  V30 39 1 13 36
M  V30 40 1 14 37
M  V30 41 1 15 38
M  V30 42 1 18 39
M  V30 43 1 19 40
M  V30 44 1 20 41
M  V30 45 1 21 42
M  V30 46 1 22 43
M  V30 47 1 23 44
M  V30 END BOND
M  V30 END CTAB
M  END
>  <Dataset>  (538) 
ChEMBL_Kinases

>  <Ligand_Instance>  (538) 
nan

>  <PDB_ID>  (538) 
nan

>  <Standardized_SMILES>  (538) 
NCCNc1ccn2ncc(-c3cccc(-c4ccccc4)c3)c2n1

>  <Name>  (538) 
nan

>  <Pocket>  (538) 
nan

>  <ATP_Site>  (538) 
nan

>  <Peripheral>  (538) 
nan

>  <Num_H_Atoms_ProtBoundConf>  (538) 
nan

>  <Num_Resolved_Atoms>  (538) 
nan

>  <Num_Not_Resolved_Atoms>  (538) 
nan

$$$$
CHEMBL444636
     RDKit          3D

  0  0  0  0  0  0  0  0  0  0999 V3000
M  V30 BEGIN CTAB
M  V30 COUNTS 56 60 0 0 0
M  V30 BEGIN ATOM
M  V30 1 C 4.227894 -2.869058 2.931880 0
M  V30 2 C 3.680090 -2.816899 1.509068 0
M  V30 3 C 2.207612 -3.129883 1.550192 0
M  V30 4 C 3.982581 -1.493921 0.854766 0
M  V30 5 N 3.373492 -0.447710 1.625823 0
M  V30 6 C 3.952157 0.202322 2.654073 0
M  V30 7 N 5.242187 0.053799 3.232580 0
M  V30 8 N 3.104968 1.123017 3.149203 0
M  V30 9 C 1.951015 1.095328 2.454890 0
M  V30 10 C 0.791130 1.829173 2.569570 0
M  V30 11 C -0.202686 1.524293 1.667495 0
M  V30 12 C -0.099165 0.541173 0.675009 0
M  V30 13 C -1.199784 0.269369 -0.238860 0
M  V30 14 N -1.289257 0.622718 -1.531060 0
M  V30 15 C -2.447266 0.220763 -2.079100 0
M  V30 16 C -2.965372 0.386190 -3.430266 0
M  V30 17 C -2.273834 1.044635 -4.423125 0
M  V30 18 F -1.054324 1.580482 -4.182506 0
M  V30 19 C -2.725795 1.221116 -5.704512 0
M  V30 20 C -3.955175 0.717781 -6.059967 0
M  V30 21 C -4.676951 0.045771 -5.071913 0
M  V30 22 C -4.184845 -0.114341 -3.778163 0
M  V30 23 F -4.925569 -0.767953 -2.876940 0
M  V30 24 N -3.081202 -0.399929 -1.078336 0
M  V30 25 C -2.355705 -0.390611 0.053429 0
M  V30 26 C -2.737633 -0.978578 1.331291 0
M  V30 27 C -2.974591 -0.395431 2.556057 0
M  V30 28 C -3.323515 -1.164252 3.646089 0
M  V30 29 C -3.434655 -2.548770 3.494047 0
M  V30 30 C -3.205440 -3.168075 2.283252 0
M  V30 31 C -2.857068 -2.365906 1.209891 0
M  V30 32 C 1.100869 -0.131983 0.649206 0
M  V30 33 C 2.152828 0.102517 1.509610 0
M  V30 34 H 3.671475 -2.224417 3.612936 0
M  V30 35 H 4.087477 -3.918126 3.312314 0
M  V30 36 H 5.317959 -2.717152 2.909856 0
M  V30 37 H 4.164035 -3.646465 0.943042 0
M  V30 38 H 1.761225 -3.116934 0.544441 0
M  V30 39 H 2.083980 -4.201501 1.893889 0
M  V30 40 H 1.668616 -2.461635 2.251331 0
M  V30 41 H 5.082968 -1.400295 0.760968 0
M  V30 42 H 3.488445 -1.523072 -0.138134 0
M  V30 43 H 5.568616 -0.126389 4.184066 0
M  V30 44 H 5.982975 0.158506 2.506579 0
M  V30 45 H 0.660503 2.597443 3.316307 0
M  V30 46 H -1.111309 2.121854 1.774033 0
M  V30 47 H -0.529693 1.144272 -2.012415 0
M  V30 48 H -2.152647 1.749521 -6.471591 0
M  V30 49 H -4.393577 0.808789 -7.047484 0
M  V30 50 H -5.650775 -0.356884 -5.335263 0
M  V30 51 H -2.855067 0.675480 2.527657 0
M  V30 52 H -3.493305 -0.632320 4.580460 0
M  V30 53 H -3.713692 -3.041419 4.427156 0
M  V30 54 H -3.311302 -4.240946 2.245307 0
M  V30 55 H -2.696402 -2.958391 0.297930 0
M  V30 56 H 1.196005 -0.892927 -0.113214 0
M  V30 END ATOM
M  V30 BEGIN BOND
M  V30 1 1 1 2
M  V30 2 1 2 3
M  V30 3 1 2 4
M  V30 4 1 4 5
M  V30 5 1 5 6
M  V30 6 1 6 7
M  V30 7 2 6 8
M  V30 8 1 8 9
M  V30 9 2 9 10
M  V30 10 1 10 11
M  V30 11 2 11 12
M  V30 12 1 12 13
M  V30 13 1 13 14
M  V30 14 1 14 15
M  V30 15 1 15 16
M  V30 16 2 16 17
M  V30 17 1 17 18
M  V30 18 1 17 19
M  V30 19 2 19 20
M  V30 20 1 20 21
M  V30 21 2 21 22
M  V30 22 1 22 23
M  V30 23 2 15 24
M  V30 24 1 24 25
M  V30 25 1 25 26
M  V30 26 2 26 27
M  V30 27 1 27 28
M  V30 28 2 28 29
M  V30 29 1 29 30
M  V30 30 2 30 31
M  V30 31 1 12 32
M  V30 32 2 32 33
M  V30 33 1 33 5
M  V30 34 1 33 9
M  V30 35 2 25 13
M  V30 36 1 31 26
M  V30 37 1 22 16
M  V30 38 1 1 34
M  V30 39 1 1 35
M  V30 40 1 1 36
M  V30 41 1 2 37
M  V30 42 1 3 38
M  V30 43 1 3 39
M  V30 44 1 3 40
M  V30 45 1 4 41
M  V30 46 1 4 42
M  V30 47 1 7 43
M  V30 48 1 7 44
M  V30 49 1 10 45
M  V30 50 1 11 46
M  V30 51 1 14 47
M  V30 52 1 19 48
M  V30 53 1 20 49
M  V30 54 1 21 50
M  V30 55 1 27 51
M  V30 56 1 28 52
M  V30 57 1 29 53
M  V30 58 1 30 54
M  V30 59 1 31 55
M  V30 60 1 32 56
M  V30 END BOND
M  V30 END CTAB
M  END
>  <Dataset>  (539) 
ChEMBL_Kinases

>  <Ligand_Instance>  (539) 
nan

>  <PDB_ID>  (539) 
nan

>  <Standardized_SMILES>  (539) 
CC(C)Cn1c(N)nc2ccc(-c3[nH]c(-c4c(F)cccc4F)nc3-c3ccccc3)cc21

>  <Name>  (539) 
nan

>  <Pocket>  (539) 
nan

>  <ATP_Site>  (539) 
nan

>  <Peripheral>  (539) 
nan

>  <Num_H_Atoms_ProtBoundConf>  (539) 
nan

>  <Num_Resolved_Atoms>  (539) 
nan

>  <Num_Not_Resolved_Atoms>  (539) 
nan

$$$$
CHEMBL3719286
     RDKit          3D

  0  0  0  0  0  0  0  0  0  0999 V3000
M  V30 BEGIN CTAB
M  V30 COUNTS 59 62 0 0 0
M  V30 BEGIN ATOM
M  V30 1 O -3.053545 -4.882767 1.845957 0
M  V30 2 C -2.233107 -3.945459 1.646679 0
M  V30 3 C -1.626332 -3.625344 2.940003 0
M  V30 4 N -0.697079 -2.528547 2.807796 0
M  V30 5 C -1.255439 -1.267786 2.375300 0
M  V30 6 O -2.506007 -1.133687 2.132307 0
M  V30 7 C -0.396672 -0.099308 2.201933 0
M  V30 8 C 0.981991 -0.077346 2.434169 0
M  V30 9 C 1.716494 1.073299 2.242571 0
M  V30 10 C 1.161175 2.244586 1.822249 0
M  V30 11 C 2.009628 3.437866 1.638623 0
M  V30 12 C 2.527661 3.865544 2.986405 0
M  V30 13 C 3.546810 4.958468 2.938197 0
M  V30 14 C 4.642249 4.725569 1.950808 0
M  V30 15 C 4.488790 3.303697 1.423851 0
M  V30 16 C 3.152744 3.240332 0.711803 0
M  V30 17 C -0.197523 2.246333 1.586890 0
M  V30 18 C -0.934836 1.097395 1.777609 0
M  V30 19 N -2.087984 -3.452646 0.339197 0
M  V30 20 C -2.867362 -4.001456 -0.754215 0
M  V30 21 C -3.670030 -2.853670 -1.318509 0
M  V30 22 C -3.700784 -2.802325 -2.812826 0
M  V30 23 C -2.347505 -2.870640 -3.446523 0
M  V30 24 C -1.686936 -4.110702 -3.012311 0
M  V30 25 C -0.810850 -4.763585 -3.864271 0
M  V30 26 C -0.195644 -5.926354 -3.450113 0
M  V30 27 C -0.469501 -6.408625 -2.197191 0
M  V30 28 C -1.355955 -5.739750 -1.347193 0
M  V30 29 C -1.958028 -4.589320 -1.770336 0
M  V30 30 H -1.018155 -4.530022 3.237090 0
M  V30 31 H -2.379569 -3.437772 3.738381 0
M  V30 32 H 0.320527 -2.635475 3.011451 0
M  V30 33 H 1.443565 -0.972902 2.762034 0
M  V30 34 H 2.771106 1.014000 2.441176 0
M  V30 35 H 1.336368 4.258172 1.279222 0
M  V30 36 H 1.637320 4.302175 3.523304 0
M  V30 37 H 2.844910 3.023573 3.636835 0
M  V30 38 H 3.057204 5.957996 2.812722 0
M  V30 39 H 4.013532 5.001077 3.956415 0
M  V30 40 H 4.466802 5.399001 1.076798 0
M  V30 41 H 5.656811 4.909908 2.361776 0
M  V30 42 H 4.602461 2.555330 2.207536 0
M  V30 43 H 5.267297 3.169107 0.627228 0
M  V30 44 H 3.072431 2.346014 0.068572 0
M  V30 45 H 3.172247 4.098412 -0.009196 0
M  V30 46 H -0.650972 3.185985 1.248327 0
M  V30 47 H -2.001234 1.134817 1.583112 0
M  V30 48 H -1.379913 -2.697630 0.276179 0
M  V30 49 H -3.511460 -4.794656 -0.323019 0
M  V30 50 H -3.292040 -1.857029 -0.967526 0
M  V30 51 H -4.699255 -2.952511 -0.943553 0
M  V30 52 H -4.341367 -3.575803 -3.254458 0
M  V30 53 H -4.129926 -1.810501 -3.087686 0
M  V30 54 H -2.482052 -2.907087 -4.545262 0
M  V30 55 H -1.727244 -1.966990 -3.239352 0
M  V30 56 H -0.616012 -4.348402 -4.859657 0
M  V30 57 H 0.489738 -6.436130 -4.117344 0
M  V30 58 H 0.045970 -7.332350 -1.923367 0
M  V30 59 H -1.476643 -6.229016 -0.397054 0
M  V30 END ATOM
M  V30 BEGIN BOND
M  V30 1 2 1 2
M  V30 2 1 2 3
M  V30 3 1 3 4
M  V30 4 1 4 5
M  V30 5 2 5 6
M  V30 6 1 5 7
M  V30 7 2 7 8
M  V30 8 1 8 9
M  V30 9 2 9 10
M  V30 10 1 10 11
M  V30 11 1 11 12
M  V30 12 1 12 13
M  V30 13 1 13 14
M  V30 14 1 14 15
M  V30 15 1 15 16
M  V30 16 1 10 17
M  V30 17 2 17 18
M  V30 18 1 2 19
M  V30 19 1 19 20
M  V30 20 1 20 21
M  V30 21 1 21 22
M  V30 22 1 22 23
M  V30 23 1 23 24
M  V30 24 2 24 25
M  V30 25 1 25 26
M  V30 26 2 26 27
M  V30 27 1 27 28
M  V30 28 2 28 29
M  V30 29 1 18 7
M  V30 30 1 29 20
M  V30 31 1 16 11
M  V30 32 1 29 24
M  V30 33 1 3 30
M  V30 34 1 3 31
M  V30 35 1 4 32
M  V30 36 1 8 33
M  V30 37 1 9 34
M  V30 38 1 11 35
M  V30 39 1 12 36
M  V30 40 1 12 37
M  V30 41 1 13 38
M  V30 42 1 13 39
M  V30 43 1 14 40
M  V30 44 1 14 41
M  V30 45 1 15 42
M  V30 46 1 15 43
M  V30 47 1 16 44
M  V30 48 1 16 45
M  V30 49 1 17 46
M  V30 50 1 18 47
M  V30 51 1 19 48
M  V30 52 1 20 49
M  V30 53 1 21 50
M  V30 54 1 21 51
M  V30 55 1 22 52
M  V30 56 1 22 53
M  V30 57 1 23 54
M  V30 58 1 23 55
M  V30 59 1 25 56
M  V30 60 1 26 57
M  V30 61 1 27 58
M  V30 62 1 28 59
M  V30 END BOND
M  V30 END CTAB
M  END
>  <Dataset>  (540) 
ChEMBL_Kinases

>  <Ligand_Instance>  (540) 
nan

>  <PDB_ID>  (540) 
nan

>  <Standardized_SMILES>  (540) 
O=C(CNC(=O)c1ccc(C2CCCCC2)cc1)NC1CCCc2ccccc21

>  <Name>  (540) 
nan

>  <Pocket>  (540) 
nan

>  <ATP_Site>  (540) 
nan

>  <Peripheral>  (540) 
nan

>  <Num_H_Atoms_ProtBoundConf>  (540) 
nan

>  <Num_Resolved_Atoms>  (540) 
nan

>  <Num_Not_Resolved_Atoms>  (540) 
nan

$$$$
CHEMBL3719326
     RDKit          3D

  0  0  0  0  0  0  0  0  0  0999 V3000
M  V30 BEGIN CTAB
M  V30 COUNTS 59 61 0 0 0
M  V30 BEGIN ATOM
M  V30 1 C 1.739298 -3.067234 5.266050 0
M  V30 2 C 2.565544 -2.072434 4.452885 0
M  V30 3 C 3.485723 -2.879146 3.562767 0
M  V30 4 C 4.356059 -1.987846 2.709822 0
M  V30 5 C 3.571964 -1.102644 1.816425 0
M  V30 6 C 3.214325 -1.497207 0.536346 0
M  V30 7 C 2.483967 -0.636208 -0.254495 0
M  V30 8 C 2.113501 0.619824 0.241013 0
M  V30 9 N 1.346964 1.557007 -0.550612 0
M  V30 10 C -0.032512 1.267208 -0.273638 0
M  V30 11 O -0.126299 0.302030 0.559725 0
M  V30 12 N -1.125582 1.992471 -0.877030 0
M  V30 13 C -1.246456 3.078605 -1.808923 0
M  V30 14 C -2.392658 3.868693 -1.184898 0
M  V30 15 C -3.375873 2.751760 -0.908841 0
M  V30 16 C -2.479873 1.609654 -0.523429 0 CFG=2
M  V30 17 N -2.524147 1.494382 0.927160 0
M  V30 18 C -2.876894 0.334221 -1.171328 0
M  V30 19 O -3.984264 -0.243606 -1.017407 0
M  V30 20 N -1.971946 -0.328218 -2.043723 0
M  V30 21 C -2.188711 -1.577153 -2.758227 0
M  V30 22 C -2.068009 -2.768615 -1.890227 0
M  V30 23 C -0.754027 -3.234407 -1.846332 0
M  V30 24 C -0.389696 -4.350272 -1.093286 0
M  V30 25 C -1.395969 -4.984992 -0.382654 0
M  V30 26 Cl -0.997424 -6.397347 0.584821 0
M  V30 27 C -2.706529 -4.519217 -0.427438 0
M  V30 28 Cl -3.994663 -5.313023 0.468327 0
M  V30 29 C -3.056939 -3.410332 -1.178377 0
M  V30 30 C 2.493222 0.966623 1.521021 0
M  V30 31 C 3.223491 0.134558 2.343184 0
M  V30 32 H 0.999287 -3.551226 4.598528 0
M  V30 33 H 2.400365 -3.840885 5.671830 0
M  V30 34 H 1.153069 -2.541968 6.048675 0
M  V30 35 H 3.121884 -1.416990 5.153366 0
M  V30 36 H 1.844496 -1.453817 3.917449 0
M  V30 37 H 2.871334 -3.591217 2.998473 0
M  V30 38 H 4.165348 -3.437191 4.235215 0
M  V30 39 H 5.052952 -1.463382 3.369559 0
M  V30 40 H 4.953491 -2.673720 2.063083 0
M  V30 41 H 3.512634 -2.475494 0.174115 0
M  V30 42 H 2.185097 -0.908238 -1.260973 0
M  V30 43 H 1.568828 2.331768 -1.221838 0
M  V30 44 H -1.549156 2.723322 -2.815922 0
M  V30 45 H -0.325119 3.699091 -1.874041 0
M  V30 46 H -2.796943 4.616696 -1.891654 0
M  V30 47 H -2.056218 4.302696 -0.223782 0
M  V30 48 H -3.988385 2.513611 -1.806930 0
M  V30 49 H -4.007032 3.090257 -0.065436 0
M  V30 50 H -2.682256 0.519555 1.253484 0
M  V30 51 H -3.202199 2.149563 1.373233 0
M  V30 52 H -1.040417 0.123735 -2.197614 0
M  V30 53 H -3.245769 -1.601548 -3.160870 0
M  V30 54 H -1.546194 -1.626985 -3.657696 0
M  V30 55 H 0.099496 -2.803734 -2.368334 0
M  V30 56 H 0.617159 -4.732804 -1.040178 0
M  V30 57 H -4.027913 -2.978204 -1.277350 0
M  V30 58 H 2.190279 1.946551 1.874294 0
M  V30 59 H 3.495163 0.458488 3.342183 0
M  V30 END ATOM
M  V30 BEGIN BOND
M  V30 1 1 1 2
M  V30 2 1 2 3
M  V30 3 1 3 4
M  V30 4 1 4 5
M  V30 5 2 5 6
M  V30 6 1 6 7
M  V30 7 2 7 8
M  V30 8 1 8 9
M  V30 9 1 9 10
M  V30 10 2 10 11
M  V30 11 1 10 12
M  V30 12 1 12 13
M  V30 13 1 13 14
M  V30 14 1 14 15
M  V30 15 1 15 16
M  V30 16 1 16 17 CFG=1
M  V30 17 1 16 18
M  V30 18 2 18 19
M  V30 19 1 18 20
M  V30 20 1 20 21
M  V30 21 1 21 22
M  V30 22 2 22 23
M  V30 23 1 23 24
M  V30 24 2 24 25
M  V30 25 1 25 26
M  V30 26 1 25 27
M  V30 27 1 27 28
M  V30 28 2 27 29
M  V30 29 1 8 30
M  V30 30 2 30 31
M  V30 31 1 31 5
M  V30 32 1 16 12
M  V30 33 1 29 22
M  V30 34 1 1 32
M  V30 35 1 1 33
M  V30 36 1 1 34
M  V30 37 1 2 35
M  V30 38 1 2 36
M  V30 39 1 3 37
M  V30 40 1 3 38
M  V30 41 1 4 39
M  V30 42 1 4 40
M  V30 43 1 6 41
M  V30 44 1 7 42
M  V30 45 1 9 43
M  V30 46 1 13 44
M  V30 47 1 13 45
M  V30 48 1 14 46
M  V30 49 1 14 47
M  V30 50 1 15 48
M  V30 51 1 15 49
M  V30 52 1 17 50
M  V30 53 1 17 51
M  V30 54 1 20 52
M  V30 55 1 21 53
M  V30 56 1 21 54
M  V30 57 1 23 55
M  V30 58 1 24 56
M  V30 59 1 29 57
M  V30 60 1 30 58
M  V30 61 1 31 59
M  V30 END BOND
M  V30 END CTAB
M  END
>  <Dataset>  (541) 
ChEMBL_Kinases

>  <Ligand_Instance>  (541) 
nan

>  <PDB_ID>  (541) 
nan

>  <Standardized_SMILES>  (541) 
CCCCc1ccc(NC(=O)N2CCC[C@@]2(N)C(=O)NCc2ccc(Cl)c(Cl)c2)cc1

>  <Name>  (541) 
nan

>  <Pocket>  (541) 
nan

>  <ATP_Site>  (541) 
nan

>  <Peripheral>  (541) 
nan

>  <Num_H_Atoms_ProtBoundConf>  (541) 
nan

>  <Num_Resolved_Atoms>  (541) 
nan

>  <Num_Not_Resolved_Atoms>  (541) 
nan

$$$$
CHEMBL371967
     RDKit          3D

  0  0  0  0  0  0  0  0  0  0999 V3000
M  V30 BEGIN CTAB
M  V30 COUNTS 57 61 0 0 0
M  V30 BEGIN ATOM
M  V30 1 O 0.887400 2.094192 4.388288 0
M  V30 2 C 0.807847 1.210458 3.491602 0
M  V30 3 N 1.937508 0.350258 3.353971 0
M  V30 4 C 2.915635 0.754706 4.338441 0
M  V30 5 C 4.169537 -0.041176 4.341595 0
M  V30 6 N 4.954875 -0.068426 3.183400 0
M  V30 7 C 5.596551 1.137681 2.770595 0
M  V30 8 C 5.046899 1.478395 1.398382 0
M  V30 9 C 4.347011 0.221592 0.926444 0
M  V30 10 C 4.539656 -0.787406 2.045733 0
M  V30 11 C -0.413157 1.157907 2.697530 0
M  V30 12 C -1.391500 2.085103 2.971379 0
M  V30 13 C -2.580759 2.118034 2.278907 0
M  V30 14 C -2.862845 1.222178 1.268195 0
M  V30 15 N -4.098434 1.288117 0.579837 0
M  V30 16 C -4.559349 0.457807 -0.473451 0
M  V30 17 N -5.759980 0.649048 -1.016316 0
M  V30 18 C -6.313907 -0.052473 -2.004833 0
M  V30 19 C -5.581251 -1.091340 -2.536125 0
M  V30 20 C -4.332507 -1.337571 -2.016160 0
M  V30 21 C -3.506489 -2.405029 -2.519399 0
M  V30 22 C -3.692463 -3.316500 -3.486110 0
M  V30 23 C -2.716822 -4.236865 -3.762894 0
M  V30 24 C -2.732498 -5.241023 -4.714526 0
M  V30 25 C -1.640826 -6.059300 -4.825947 0
M  V30 26 C -0.489311 -5.995783 -4.074244 0
M  V30 27 C -0.462419 -5.000687 -3.124636 0
M  V30 28 C -1.562614 -4.159076 -2.996114 0
M  V30 29 S -1.859902 -2.771842 -1.873702 0
M  V30 30 N -3.903979 -0.566730 -1.037898 0
M  V30 31 C -1.861242 0.310125 1.022890 0
M  V30 32 C -0.660023 0.249122 1.696024 0
M  V30 33 H 1.756744 -0.331657 2.587734 0
M  V30 34 H 2.415869 0.553577 5.332810 0
M  V30 35 H 3.087381 1.853339 4.324439 0
M  V30 36 H 3.862719 -1.107858 4.572342 0
M  V30 37 H 4.747192 0.256247 5.248153 0
M  V30 38 H 6.683348 0.902593 2.632613 0
M  V30 39 H 5.544032 1.972935 3.470397 0
M  V30 40 H 4.341316 2.334200 1.434117 0
M  V30 41 H 5.854091 1.755920 0.691330 0
M  V30 42 H 4.783648 -0.123599 -0.037348 0
M  V30 43 H 3.258139 0.363326 0.752114 0
M  V30 44 H 5.437846 -1.396182 1.705672 0
M  V30 45 H 3.737584 -1.506286 2.139923 0
M  V30 46 H -1.276476 2.845909 3.753928 0
M  V30 47 H -3.328668 2.870795 2.529260 0
M  V30 48 H -4.760289 2.041960 0.880193 0
M  V30 49 H -7.299574 0.177044 -2.383140 0
M  V30 50 H -5.934938 -1.720899 -3.337076 0
M  V30 51 H -4.650116 -3.260245 -4.009858 0
M  V30 52 H -3.569207 -5.413310 -5.380276 0
M  V30 53 H -1.666115 -6.856312 -5.587420 0
M  V30 54 H 0.355540 -6.654205 -4.185263 0
M  V30 55 H 0.365223 -4.817605 -2.456664 0
M  V30 56 H -1.983010 -0.429630 0.256511 0
M  V30 57 H 0.079092 -0.477306 1.465740 0
M  V30 END ATOM
M  V30 BEGIN BOND
M  V30 1 2 1 2
M  V30 2 1 2 3
M  V30 3 1 3 4
M  V30 4 1 4 5
M  V30 5 1 5 6
M  V30 6 1 6 7
M  V30 7 1 7 8
M  V30 8 1 8 9
M  V30 9 1 9 10
M  V30 10 1 2 11
M  V30 11 2 11 12
M  V30 12 1 12 13
M  V30 13 2 13 14
M  V30 14 1 14 15
M  V30 15 1 15 16
M  V30 16 2 16 17
M  V30 17 1 17 18
M  V30 18 2 18 19
M  V30 19 1 19 20
M  V30 20 1 20 21
M  V30 21 2 21 22
M  V30 22 1 22 23
M  V30 23 2 23 24
M  V30 24 1 24 25
M  V30 25 2 25 26
M  V30 26 1 26 27
M  V30 27 2 27 28
M  V30 28 1 28 29
M  V30 29 2 20 30
M  V30 30 1 14 31
M  V30 31 2 31 32
M  V30 32 1 10 6
M  V30 33 1 32 11
M  V30 34 1 30 16
M  V30 35 1 29 21
M  V30 36 1 28 23
M  V30 37 1 3 33
M  V30 38 1 4 34
M  V30 39 1 4 35
M  V30 40 1 5 36
M  V30 41 1 5 37
M  V30 42 1 7 38
M  V30 43 1 7 39
M  V30 44 1 8 40
M  V30 45 1 8 41
M  V30 46 1 9 42
M  V30 47 1 9 43
M  V30 48 1 10 44
M  V30 49 1 10 45
M  V30 50 1 12 46
M  V30 51 1 13 47
M  V30 52 1 15 48
M  V30 53 1 18 49
M  V30 54 1 19 50
M  V30 55 1 22 51
M  V30 56 1 24 52
M  V30 57 1 25 53
M  V30 58 1 26 54
M  V30 59 1 27 55
M  V30 60 1 31 56
M  V30 61 1 32 57
M  V30 END BOND
M  V30 END CTAB
M  END
>  <Dataset>  (542) 
ChEMBL_Kinases

>  <Ligand_Instance>  (542) 
nan

>  <PDB_ID>  (542) 
nan

>  <Standardized_SMILES>  (542) 
O=C(NCCN1CCCC1)c1ccc(Nc2nccc(-c3cc4ccccc4s3)n2)cc1

>  <Name>  (542) 
nan

>  <Pocket>  (542) 
nan

>  <ATP_Site>  (542) 
nan

>  <Peripheral>  (542) 
nan

>  <Num_H_Atoms_ProtBoundConf>  (542) 
nan

>  <Num_Resolved_Atoms>  (542) 
nan

>  <Num_Not_Resolved_Atoms>  (542) 
nan

$$$$
CHEMBL2442290
     RDKit          3D

  0  0  0  0  0  0  0  0  0  0999 V3000
M  V30 BEGIN CTAB
M  V30 COUNTS 41 44 0 0 0
M  V30 BEGIN ATOM
M  V30 1 N -1.429593 -4.088692 2.521352 0
M  V30 2 C -1.158857 -4.328582 1.116863 0
M  V30 3 C -0.373390 -3.153937 0.580029 0
M  V30 4 N -0.065890 -3.334470 -0.839582 0
M  V30 5 C 0.673754 -2.303191 -1.486980 0
M  V30 6 C 1.026962 -2.357197 -2.827987 0
M  V30 7 C 1.754476 -1.318785 -3.419477 0
M  V30 8 N 2.128999 -0.235729 -2.688384 0
M  V30 9 N 2.806076 0.872912 -2.970315 0
M  V30 10 C 2.894170 1.631479 -1.847087 0
M  V30 11 C 2.244288 0.967573 -0.820840 0
M  V30 12 C 2.056356 1.366570 0.591773 0
M  V30 13 C 3.049257 1.889092 1.398953 0
M  V30 14 C 2.736312 2.221795 2.708339 0
M  V30 15 C 1.448341 2.032001 3.195578 0
M  V30 16 C 0.460462 1.509291 2.383573 0
M  V30 17 C -0.906568 1.299372 2.874060 0
M  V30 18 C -1.334162 1.593191 4.157808 0
M  V30 19 C -2.682603 1.249152 4.210949 0
M  V30 20 C -2.997072 0.765105 2.953620 0
M  V30 21 O -1.936491 0.805529 2.188087 0
M  V30 22 C 0.770457 1.177267 1.078811 0
M  V30 23 C 1.774092 -0.204610 -1.384626 0
M  V30 24 N 1.083707 -1.197833 -0.838066 0
M  V30 25 H -1.453418 -4.976953 3.032296 0
M  V30 26 H -2.290893 -3.510240 2.617899 0
M  V30 27 H -0.638701 -5.287381 0.953955 0
M  V30 28 H -2.153209 -4.311675 0.588905 0
M  V30 29 H -0.970515 -2.222387 0.626913 0
M  V30 30 H 0.545938 -3.008401 1.161470 0
M  V30 31 H -0.336778 -4.153611 -1.436015 0
M  V30 32 H 0.723605 -3.223589 -3.399614 0
M  V30 33 H 2.028974 -1.361911 -4.463840 0
M  V30 34 H 3.377650 2.606693 -1.701808 0
M  V30 35 H 4.030091 2.009727 0.952814 0
M  V30 36 H 3.516290 2.631663 3.340548 0
M  V30 37 H 1.186392 2.285138 4.211856 0
M  V30 38 H -0.711615 2.013064 4.954054 0
M  V30 39 H -3.295377 1.371039 5.109975 0
M  V30 40 H -3.997085 0.422096 2.716733 0
M  V30 41 H -0.031598 0.763375 0.452489 0
M  V30 END ATOM
M  V30 BEGIN BOND
M  V30 1 1 1 2
M  V30 2 1 2 3
M  V30 3 1 3 4
M  V30 4 1 4 5
M  V30 5 1 5 6
M  V30 6 2 6 7
M  V30 7 1 7 8
M  V30 8 1 8 9
M  V30 9 2 9 10
M  V30 10 1 10 11
M  V30 11 1 11 12
M  V30 12 2 12 13
M  V30 13 1 13 14
M  V30 14 2 14 15
M  V30 15 1 15 16
M  V30 16 1 16 17
M  V30 17 2 17 18
M  V30 18 1 18 19
M  V30 19 2 19 20
M  V30 20 1 20 21
M  V30 21 2 16 22
M  V30 22 2 11 23
M  V30 23 1 23 24
M  V30 24 2 24 5
M  V30 25 1 23 8
M  V30 26 1 22 12
M  V30 27 1 21 17
M  V30 28 1 1 25
M  V30 29 1 1 26
M  V30 30 1 2 27
M  V30 31 1 2 28
M  V30 32 1 3 29
M  V30 33 1 3 30
M  V30 34 1 4 31
M  V30 35 1 6 32
M  V30 36 1 7 33
M  V30 37 1 10 34
M  V30 38 1 13 35
M  V30 39 1 14 36
M  V30 40 1 15 37
M  V30 41 1 18 38
M  V30 42 1 19 39
M  V30 43 1 20 40
M  V30 44 1 22 41
M  V30 END BOND
M  V30 END CTAB
M  END
>  <Dataset>  (543) 
ChEMBL_Kinases

>  <Ligand_Instance>  (543) 
nan

>  <PDB_ID>  (543) 
nan

>  <Standardized_SMILES>  (543) 
NCCNc1ccn2ncc(-c3cccc(-c4ccco4)c3)c2n1

>  <Name>  (543) 
nan

>  <Pocket>  (543) 
nan

>  <ATP_Site>  (543) 
nan

>  <Peripheral>  (543) 
nan

>  <Num_H_Atoms_ProtBoundConf>  (543) 
nan

>  <Num_Resolved_Atoms>  (543) 
nan

>  <Num_Not_Resolved_Atoms>  (543) 
nan

$$$$
CHEMBL4446355
     RDKit          3D

  0  0  0  0  0  0  0  0  0  0999 V3000
M  V30 BEGIN CTAB
M  V30 COUNTS 46 49 0 0 0
M  V30 BEGIN ATOM
M  V30 1 C 3.283531 -5.260742 3.629887 0
M  V30 2 S 4.424629 -4.125123 2.835781 0
M  V30 3 C 3.586493 -2.609792 2.329659 0
M  V30 4 N 4.216137 -1.597988 1.712476 0
M  V30 5 C 3.301468 -0.634341 1.479900 0
M  V30 6 C 3.428964 0.684316 0.837873 0
M  V30 7 C 2.656595 0.753475 -0.313020 0
M  V30 8 C 2.660671 1.939432 -1.048249 0
M  V30 9 C 3.431590 2.982015 -0.594031 0
M  V30 10 F 3.486161 4.162875 -1.253491 0
M  V30 11 C 4.198868 2.917215 0.546839 0
M  V30 12 C 4.197336 1.744848 1.277144 0
M  V30 13 C 2.115977 -1.118283 1.982594 0
M  V30 14 C 0.828294 -0.430456 1.965773 0
M  V30 15 C 0.852381 0.744309 2.700917 0
M  V30 16 C -0.286076 1.525629 2.793004 0
M  V30 17 N -1.392774 1.093765 2.145327 0
M  V30 18 C -1.422689 -0.045952 1.429831 0
M  V30 19 N -2.608209 -0.484885 0.750295 0
M  V30 20 C -2.632394 0.044044 -0.575974 0
M  V30 21 O -1.622873 0.774033 -0.867009 0
M  V30 22 C -3.713271 -0.211139 -1.548873 0 CFG=1
M  V30 23 C -3.951147 -1.659741 -1.919748 0
M  V30 24 C -5.406289 -1.574945 -1.533834 0 CFG=1
M  V30 25 Cl -5.924707 -2.735884 -0.284179 0
M  V30 26 C -5.112044 -0.182018 -1.006102 0
M  V30 27 C -0.308736 -0.857594 1.310578 0
M  V30 28 N 2.277020 -2.345378 2.514167 0
M  V30 29 H 3.794220 -5.874145 4.371179 0
M  V30 30 H 2.473033 -4.693406 4.125440 0
M  V30 31 H 2.854071 -5.974576 2.874503 0
M  V30 32 H 2.037848 -0.017762 -0.718584 0
M  V30 33 H 2.090346 2.057995 -1.940500 0
M  V30 34 H 4.811700 3.704316 0.933820 0
M  V30 35 H 4.740211 1.527193 2.191909 0
M  V30 36 H 1.705305 1.136262 3.236572 0
M  V30 37 H -0.325696 2.451296 3.352104 0
M  V30 38 H -3.453684 -1.086973 0.970674 0
M  V30 39 H -3.561776 0.388704 -2.453121 0
M  V30 40 H -3.762431 -1.909108 -2.978524 0
M  V30 41 H -3.405211 -2.296933 -1.186600 0
M  V30 42 H -6.026697 -1.607516 -2.437474 0
M  V30 43 H -5.236120 -0.156376 0.086388 0
M  V30 44 H -5.731298 0.552927 -1.566552 0
M  V30 45 H -0.233033 -1.785524 0.762538 0
M  V30 46 H 1.552601 -2.954535 2.966597 0
M  V30 END ATOM
M  V30 BEGIN BOND
M  V30 1 1 1 2
M  V30 2 1 2 3
M  V30 3 2 3 4
M  V30 4 1 4 5
M  V30 5 1 5 6
M  V30 6 2 6 7
M  V30 7 1 7 8
M  V30 8 2 8 9
M  V30 9 1 9 10
M  V30 10 1 9 11
M  V30 11 2 11 12
M  V30 12 2 5 13
M  V30 13 1 13 14
M  V30 14 2 14 15
M  V30 15 1 15 16
M  V30 16 2 16 17
M  V30 17 1 17 18
M  V30 18 1 18 19
M  V30 19 1 19 20
M  V30 20 2 20 21
M  V30 21 1 20 22
M  V30 22 1 22 23
M  V30 23 1 23 24
M  V30 24 1 24 25
M  V30 25 1 24 26
M  V30 26 2 18 27
M  V30 27 1 13 28
M  V30 28 1 28 3
M  V30 29 1 12 6
M  V30 30 1 27 14
M  V30 31 1 26 22
M  V30 32 1 1 29
M  V30 33 1 1 30
M  V30 34 1 1 31
M  V30 35 1 7 32
M  V30 36 1 8 33
M  V30 37 1 11 34
M  V30 38 1 12 35
M  V30 39 1 15 36
M  V30 40 1 16 37
M  V30 41 1 19 38
M  V30 42 1 22 39 CFG=3
M  V30 43 1 23 40
M  V30 44 1 23 41
M  V30 45 1 24 42 CFG=3
M  V30 46 1 26 43
M  V30 47 1 26 44
M  V30 48 1 27 45
M  V30 49 1 28 46
M  V30 END BOND
M  V30 END CTAB
M  END
>  <Dataset>  (544) 
ChEMBL_Kinases

>  <Ligand_Instance>  (544) 
nan

>  <PDB_ID>  (544) 
nan

>  <Standardized_SMILES>  (544) 
CSc1nc(-c2ccc(F)cc2)c(-c2ccnc(NC(=O)[C@H]3C[C@@H](Cl)C3)c2)[nH]1

>  <Name>  (544) 
nan

>  <Pocket>  (544) 
nan

>  <ATP_Site>  (544) 
nan

>  <Peripheral>  (544) 
nan

>  <Num_H_Atoms_ProtBoundConf>  (544) 
nan

>  <Num_Resolved_Atoms>  (544) 
nan

>  <Num_Not_Resolved_Atoms>  (544) 
nan

$$$$
CHEMBL372082
     RDKit          3D

  0  0  0  0  0  0  0  0  0  0999 V3000
M  V30 BEGIN CTAB
M  V30 COUNTS 57 61 0 0 0
M  V30 BEGIN ATOM
M  V30 1 C 3.553807 -5.122945 3.600353 0
M  V30 2 O 4.266193 -4.448337 2.580417 0
M  V30 3 C 3.874595 -3.160070 2.254993 0
M  V30 4 C 2.804793 -2.567973 2.929881 0
M  V30 5 C 2.465855 -1.272816 2.551709 0
M  V30 6 C 3.150245 -0.581054 1.547560 0
M  V30 7 C 2.705157 0.796321 1.224595 0
M  V30 8 O 1.741340 0.790471 0.237775 0
M  V30 9 C 1.311220 2.046696 -0.081111 0
M  V30 10 C 0.257676 2.079089 -1.156715 0 CFG=2
M  V30 11 C -0.114883 3.519684 -1.397430 0
M  V30 12 C -1.333965 3.752126 -0.542771 0
M  V30 13 C -1.865864 2.374073 -0.358995 0
M  V30 14 N -2.986321 1.711955 0.052828 0
M  V30 15 C -2.769842 0.367034 -0.042492 0
M  V30 16 C -3.865035 -0.508619 0.360413 0
M  V30 17 C -3.948991 -1.392296 1.400380 0
M  V30 18 C -5.090497 -2.133183 1.602564 0
M  V30 19 C -6.191696 -2.023931 0.779118 0
M  V30 20 F -7.282759 -2.801545 1.060060 0
M  V30 21 C -6.121210 -1.136320 -0.274241 0
M  V30 22 C -4.978901 -0.390631 -0.481907 0
M  V30 23 C -1.484636 0.243363 -0.524495 0
M  V30 24 C -0.942310 -1.089392 -0.743131 0
M  V30 25 C -0.653182 -2.117526 0.129382 0
M  V30 26 C -0.140998 -3.297909 -0.344362 0
M  V30 27 N 0.086881 -3.467130 -1.676824 0
M  V30 28 C -0.197570 -2.460350 -2.520443 0
M  V30 29 N 0.077578 -2.743333 -3.883562 0
M  V30 30 N -0.707666 -1.277315 -2.072342 0
M  V30 31 N -0.955881 1.455751 -0.709192 0
M  V30 32 C 4.200857 -1.193649 0.901449 0
M  V30 33 C 4.546081 -2.476157 1.267323 0
M  V30 34 H 2.467961 -5.082229 3.415968 0
M  V30 35 H 3.919817 -6.177776 3.578420 0
M  V30 36 H 3.844210 -4.729031 4.602716 0
M  V30 37 H 2.255788 -3.074039 3.709014 0
M  V30 38 H 1.633538 -0.765448 3.051790 0
M  V30 39 H 3.552569 1.411935 0.843543 0
M  V30 40 H 2.278741 1.262230 2.125658 0
M  V30 41 H 0.987665 2.588097 0.830793 0
M  V30 42 H 2.206454 2.617495 -0.445693 0
M  V30 43 H 0.652926 1.635898 -2.093337 0
M  V30 44 H -0.382240 3.681564 -2.467797 0
M  V30 45 H 0.697104 4.203054 -1.063198 0
M  V30 46 H -2.023093 4.421891 -1.062080 0
M  V30 47 H -1.094192 4.181364 0.443138 0
M  V30 48 H -3.073115 -1.432761 2.000823 0
M  V30 49 H -5.013228 -2.788452 2.461500 0
M  V30 50 H -7.006758 -1.083849 -0.892172 0
M  V30 51 H -5.045451 0.269781 -1.339495 0
M  V30 52 H -0.882598 -1.839487 1.145655 0
M  V30 53 H 0.040639 -4.019215 0.438481 0
M  V30 54 H -0.316489 -3.295879 -4.669759 0
M  V30 55 H 0.855824 -2.397314 -4.461941 0
M  V30 56 H 4.725719 -0.650308 0.124017 0
M  V30 57 H 5.370152 -2.925351 0.744262 0
M  V30 END ATOM
M  V30 BEGIN BOND
M  V30 1 1 1 2
M  V30 2 1 2 3
M  V30 3 2 3 4
M  V30 4 1 4 5
M  V30 5 2 5 6
M  V30 6 1 6 7
M  V30 7 1 7 8
M  V30 8 1 8 9
M  V30 9 1 9 10
M  V30 10 1 10 11
M  V30 11 1 11 12
M  V30 12 1 12 13
M  V30 13 2 13 14
M  V30 14 1 14 15
M  V30 15 1 15 16
M  V30 16 2 16 17
M  V30 17 1 17 18
M  V30 18 2 18 19
M  V30 19 1 19 20
M  V30 20 1 19 21
M  V30 21 2 21 22
M  V30 22 2 15 23
M  V30 23 1 23 24
M  V30 24 2 24 25
M  V30 25 1 25 26
M  V30 26 2 26 27
M  V30 27 1 27 28
M  V30 28 1 28 29
M  V30 29 2 28 30
M  V30 30 1 23 31
M  V30 31 1 6 32
M  V30 32 2 32 33
M  V30 33 1 33 3
M  V30 34 1 31 10
M  V30 35 1 31 13
M  V30 36 1 22 16
M  V30 37 1 30 24
M  V30 38 1 1 34
M  V30 39 1 1 35
M  V30 40 1 1 36
M  V30 41 1 4 37
M  V30 42 1 5 38
M  V30 43 1 7 39
M  V30 44 1 7 40
M  V30 45 1 9 41
M  V30 46 1 9 42
M  V30 47 1 10 43 CFG=3
M  V30 48 1 11 44
M  V30 49 1 11 45
M  V30 50 1 12 46
M  V30 51 1 12 47
M  V30 52 1 17 48
M  V30 53 1 18 49
M  V30 54 1 21 50
M  V30 55 1 22 51
M  V30 56 1 25 52
M  V30 57 1 26 53
M  V30 58 1 29 54
M  V30 59 1 29 55
M  V30 60 1 32 56
M  V30 61 1 33 57
M  V30 END BOND
M  V30 END CTAB
M  END
>  <Dataset>  (545) 
ChEMBL_Kinases

>  <Ligand_Instance>  (545) 
nan

>  <PDB_ID>  (545) 
nan

>  <Standardized_SMILES>  (545) 
COc1ccc(COC[C@@H]2CCc3nc(-c4ccc(F)cc4)c(-c4ccnc(N)n4)n32)cc1

>  <Name>  (545) 
nan

>  <Pocket>  (545) 
nan

>  <ATP_Site>  (545) 
nan

>  <Peripheral>  (545) 
nan

>  <Num_H_Atoms_ProtBoundConf>  (545) 
nan

>  <Num_Resolved_Atoms>  (545) 
nan

>  <Num_Not_Resolved_Atoms>  (545) 
nan

$$$$
CHEMBL4446212
     RDKit          3D

  0  0  0  0  0  0  0  0  0  0999 V3000
M  V30 BEGIN CTAB
M  V30 COUNTS 54 56 0 0 0
M  V30 BEGIN ATOM
M  V30 1 C 2.848165 -4.547983 4.615534 0
M  V30 2 O 2.775941 -3.679233 3.479197 0
M  V30 3 C 3.511142 -2.486012 3.502418 0
M  V30 4 C 4.275298 -2.166858 4.585781 0
M  V30 5 C 4.998304 -0.982350 4.595191 0
M  V30 6 C 4.905264 -0.166500 3.480053 0
M  V30 7 C 4.149573 -0.434239 2.353803 0
M  V30 8 C 4.090600 0.478171 1.192552 0 CFG=1
M  V30 9 C 5.083406 0.146929 0.122227 0
M  V30 10 N 2.743879 0.642223 0.745153 0
M  V30 11 C 1.808670 1.712314 0.718482 0
M  V30 12 O 2.057418 2.857332 1.149895 0
M  V30 13 C 0.483107 1.477919 0.161005 0
M  V30 14 C -0.394087 2.541261 0.142597 0
M  V30 15 C -1.692507 2.420997 -0.369857 0
M  V30 16 C -2.129275 1.214788 -0.875688 0
M  V30 17 C -3.457468 0.989461 -1.429365 0
M  V30 18 C -4.102700 2.021184 -2.073118 0
M  V30 19 C -5.355844 1.753289 -2.576798 0
M  V30 20 N -5.969945 0.567149 -2.477258 0
M  V30 21 C -5.374133 -0.489942 -1.848706 0
M  V30 22 N -6.014548 -1.742988 -1.712008 0
M  V30 23 C -5.574584 -3.025255 -1.256581 0
M  V30 24 C -4.666742 -3.759317 -2.208506 0
M  V30 25 O -3.531293 -3.044913 -2.460051 0
M  V30 26 C -4.129859 -0.213647 -1.351382 0
M  V30 27 C -1.254702 0.146837 -0.859618 0
M  V30 28 C 0.022045 0.283756 -0.350567 0
M  V30 29 C 3.455788 -1.637580 2.421294 0
M  V30 30 H 3.875312 -4.790899 4.895091 0
M  V30 31 H 2.269975 -5.469009 4.387484 0
M  V30 32 H 2.383636 -4.009880 5.467766 0
M  V30 33 H 4.323175 -2.825226 5.434644 0
M  V30 34 H 5.596566 -0.740063 5.451993 0
M  V30 35 H 5.466532 0.776401 3.461179 0
M  V30 36 H 4.397476 1.485043 1.604915 0
M  V30 37 H 6.010321 -0.188148 0.628712 0
M  V30 38 H 5.360862 1.092600 -0.391302 0
M  V30 39 H 4.720977 -0.627788 -0.582915 0
M  V30 40 H 2.573174 -0.324574 0.393581 0
M  V30 41 H -0.145248 3.513808 0.512836 0
M  V30 42 H -2.360449 3.252935 -0.377962 0
M  V30 43 H -3.692678 2.998840 -2.200792 0
M  V30 44 H -5.973330 2.468652 -3.103489 0
M  V30 45 H -7.032533 -1.717466 -2.012974 0
M  V30 46 H -6.426263 -3.692614 -1.059723 0
M  V30 47 H -5.054431 -2.936511 -0.258043 0
M  V30 48 H -5.201128 -3.938762 -3.185709 0
M  V30 49 H -4.440957 -4.753239 -1.736738 0
M  V30 50 H -2.771667 -3.685921 -2.532467 0
M  V30 51 H -3.549339 -0.956727 -0.814352 0
M  V30 52 H -1.540953 -0.835821 -1.246140 0
M  V30 53 H 0.700065 -0.557759 -0.342582 0
M  V30 54 H 2.840953 -1.938119 1.600007 0
M  V30 END ATOM
M  V30 BEGIN BOND
M  V30 1 1 1 2
M  V30 2 1 2 3
M  V30 3 2 3 4
M  V30 4 1 4 5
M  V30 5 2 5 6
M  V30 6 1 6 7
M  V30 7 1 7 8
M  V30 8 1 8 9
M  V30 9 1 8 10
M  V30 10 1 10 11
M  V30 11 2 11 12
M  V30 12 1 11 13
M  V30 13 2 13 14
M  V30 14 1 14 15
M  V30 15 2 15 16
M  V30 16 1 16 17
M  V30 17 2 17 18
M  V30 18 1 18 19
M  V30 19 2 19 20
M  V30 20 1 20 21
M  V30 21 1 21 22
M  V30 22 1 22 23
M  V30 23 1 23 24
M  V30 24 1 24 25
M  V30 25 2 21 26
M  V30 26 1 16 27
M  V30 27 2 27 28
M  V30 28 2 7 29
M  V30 29 1 29 3
M  V30 30 1 28 13
M  V30 31 1 26 17
M  V30 32 1 1 30
M  V30 33 1 1 31
M  V30 34 1 1 32
M  V30 35 1 4 33
M  V30 36 1 5 34
M  V30 37 1 6 35
M  V30 38 1 8 36 CFG=1
M  V30 39 1 9 37
M  V30 40 1 9 38
M  V30 41 1 9 39
M  V30 42 1 10 40
M  V30 43 1 14 41
M  V30 44 1 15 42
M  V30 45 1 18 43
M  V30 46 1 19 44
M  V30 47 1 22 45
M  V30 48 1 23 46
M  V30 49 1 23 47
M  V30 50 1 24 48
M  V30 51 1 24 49
M  V30 52 1 25 50
M  V30 53 1 26 51
M  V30 54 1 27 52
M  V30 55 1 28 53
M  V30 56 1 29 54
M  V30 END BOND
M  V30 END CTAB
M  END
>  <Dataset>  (546) 
ChEMBL_Kinases

>  <Ligand_Instance>  (546) 
nan

>  <PDB_ID>  (546) 
nan

>  <Standardized_SMILES>  (546) 
COc1cccc([C@@H](C)NC(=O)c2ccc(-c3ccnc(NCCO)c3)cc2)c1

>  <Name>  (546) 
nan

>  <Pocket>  (546) 
nan

>  <ATP_Site>  (546) 
nan

>  <Peripheral>  (546) 
nan

>  <Num_H_Atoms_ProtBoundConf>  (546) 
nan

>  <Num_Resolved_Atoms>  (546) 
nan

>  <Num_Not_Resolved_Atoms>  (546) 
nan

$$$$
CHEMBL2442316
     RDKit          3D

  0  0  0  0  0  0  0  0  0  0999 V3000
M  V30 BEGIN CTAB
M  V30 COUNTS 50 54 0 0 0
M  V30 BEGIN ATOM
M  V30 1 N 0.595508 -4.669242 2.463188 0
M  V30 2 C 0.490500 -4.591103 1.010824 0 CFG=1
M  V30 3 C -0.205788 -3.349984 0.656675 0
M  V30 4 C 0.324909 -2.549174 -0.492363 0
M  V30 5 C 1.829634 -2.480356 -0.484377 0 CFG=2
M  V30 6 N 2.284866 -1.734414 -1.640896 0
M  V30 7 C 1.942577 -0.379876 -1.901768 0
M  V30 8 C 2.387160 0.320867 -3.017896 0
M  V30 9 C 2.040034 1.635811 -3.245784 0
M  V30 10 N 1.247512 2.304769 -2.388583 0
M  V30 11 N 0.735554 3.521525 -2.298090 0
M  V30 12 C -0.014306 3.628530 -1.176530 0
M  V30 13 C 0.025667 2.414186 -0.522749 0
M  V30 14 C -0.640139 2.046984 0.745921 0
M  V30 15 C 0.198759 1.349817 1.614386 0
M  V30 16 C -0.232786 0.916471 2.852003 0
M  V30 17 C -1.549220 1.211829 3.187755 0
M  V30 18 C -1.987255 0.777724 4.431678 0
M  V30 19 C -3.294644 1.069835 4.767660 0
M  V30 20 C -4.135844 1.758748 3.918444 0
M  V30 21 C -3.685020 2.187095 2.677403 0
M  V30 22 C -2.376097 1.900279 2.329032 0
M  V30 23 C -1.944476 2.333794 1.091009 0
M  V30 24 C 0.835892 1.597436 -1.320645 0
M  V30 25 N 1.155335 0.331399 -1.077895 0
M  V30 26 C 2.258144 -3.926019 -0.658734 0
M  V30 27 C 1.856931 -4.803343 0.464614 0
M  V30 28 H 1.515340 -5.071092 2.771469 0
M  V30 29 H 0.597504 -3.677283 2.837652 0
M  V30 30 H -0.161867 -5.462539 0.740288 0
M  V30 31 H -0.262946 -2.640427 1.534848 0
M  V30 32 H -1.292787 -3.528748 0.429219 0
M  V30 33 H 0.018006 -2.992278 -1.457498 0
M  V30 34 H -0.145551 -1.547623 -0.435305 0
M  V30 35 H 2.225517 -2.051385 0.463211 0
M  V30 36 H 2.916673 -2.186478 -2.368038 0
M  V30 37 H 3.026197 -0.181502 -3.730958 0
M  V30 38 H 2.403316 2.155012 -4.126276 0
M  V30 39 H -0.549805 4.489100 -0.838547 0
M  V30 40 H 1.236612 1.101326 1.382928 0
M  V30 41 H 0.409650 0.379000 3.524655 0
M  V30 42 H -1.310876 0.233927 5.092924 0
M  V30 43 H -3.607068 0.715451 5.750053 0
M  V30 44 H -5.144693 1.945308 4.260321 0
M  V30 45 H -4.347251 2.731928 2.003541 0
M  V30 46 H -2.509706 2.868621 0.367432 0
M  V30 47 H 1.772377 -4.274743 -1.593554 0
M  V30 48 H 3.350505 -3.910023 -0.772212 0
M  V30 49 H 2.652262 -4.707280 1.244241 0
M  V30 50 H 1.966707 -5.853300 0.104590 0
M  V30 END ATOM
M  V30 BEGIN BOND
M  V30 1 1 1 2
M  V30 2 1 2 3
M  V30 3 1 3 4
M  V30 4 1 4 5
M  V30 5 1 5 6
M  V30 6 1 6 7
M  V30 7 1 7 8
M  V30 8 2 8 9
M  V30 9 1 9 10
M  V30 10 1 10 11
M  V30 11 2 11 12
M  V30 12 1 12 13
M  V30 13 1 13 14
M  V30 14 2 14 15
M  V30 15 1 15 16
M  V30 16 2 16 17
M  V30 17 1 17 18
M  V30 18 2 18 19
M  V30 19 1 19 20
M  V30 20 2 20 21
M  V30 21 1 21 22
M  V30 22 2 22 23
M  V30 23 2 13 24
M  V30 24 1 24 25
M  V30 25 1 5 26
M  V30 26 1 26 27
M  V30 27 1 27 2
M  V30 28 2 25 7
M  V30 29 1 24 10
M  V30 30 1 23 14
M  V30 31 1 22 17
M  V30 32 1 1 28
M  V30 33 1 1 29
M  V30 34 1 2 30 CFG=3
M  V30 35 1 3 31
M  V30 36 1 3 32
M  V30 37 1 4 33
M  V30 38 1 4 34
M  V30 39 1 5 35 CFG=1
M  V30 40 1 6 36
M  V30 41 1 8 37
M  V30 42 1 9 38
M  V30 43 1 12 39
M  V30 44 1 15 40
M  V30 45 1 16 41
M  V30 46 1 18 42
M  V30 47 1 19 43
M  V30 48 1 20 44
M  V30 49 1 21 45
M  V30 50 1 23 46
M  V30 51 1 26 47
M  V30 52 1 26 48
M  V30 53 1 27 49
M  V30 54 1 27 50
M  V30 END BOND
M  V30 END CTAB
M  END
>  <Dataset>  (547) 
ChEMBL_Kinases

>  <Ligand_Instance>  (547) 
nan

>  <PDB_ID>  (547) 
nan

>  <Standardized_SMILES>  (547) 
N[C@H]1CC[C@H](Nc2ccn3ncc(-c4ccc5ccccc5c4)c3n2)CC1

>  <Name>  (547) 
nan

>  <Pocket>  (547) 
nan

>  <ATP_Site>  (547) 
nan

>  <Peripheral>  (547) 
nan

>  <Num_H_Atoms_ProtBoundConf>  (547) 
nan

>  <Num_Resolved_Atoms>  (547) 
nan

>  <Num_Not_Resolved_Atoms>  (547) 
nan

$$$$
CHEMBL2442317
     RDKit          3D

  0  0  0  0  0  0  0  0  0  0999 V3000
M  V30 BEGIN CTAB
M  V30 COUNTS 50 54 0 0 0
M  V30 BEGIN ATOM
M  V30 1 N 3.458644 -2.897785 3.647675 0
M  V30 2 C 2.507155 -1.842245 3.820151 0 CFG=2
M  V30 3 C 1.239870 -2.415074 4.413067 0
M  V30 4 C 0.078777 -1.470512 4.425224 0
M  V30 5 C -0.034095 -0.567904 3.240720 0
M  V30 6 C 1.296576 -0.063664 2.748596 0
M  V30 7 C 2.128342 -1.307520 2.458116 0 CFG=1
M  V30 8 N 3.229319 -1.035462 1.591801 0
M  V30 9 C 3.063441 -0.527640 0.271333 0
M  V30 10 C 4.141289 -0.270820 -0.551652 0
M  V30 11 C 3.972045 0.219662 -1.825945 0
M  V30 12 N 2.745092 0.469161 -2.321814 0
M  V30 13 N 2.289968 0.931205 -3.482750 0
M  V30 14 C 0.945654 0.983991 -3.442816 0
M  V30 15 C 0.505623 0.535327 -2.197731 0
M  V30 16 C -0.868074 0.406863 -1.674533 0
M  V30 17 C -1.217369 0.834426 -0.391474 0
M  V30 18 C -2.490116 0.714442 0.090641 0
M  V30 19 C -3.476890 0.161008 -0.686112 0
M  V30 20 C -4.777916 0.028957 -0.216900 0
M  V30 21 C -5.762025 -0.527443 -1.002839 0
M  V30 22 C -5.486337 -0.971281 -2.281353 0
M  V30 23 C -4.179686 -0.832746 -2.737799 0
M  V30 24 C -3.181937 -0.280029 -1.969454 0
M  V30 25 C -1.890123 -0.150616 -2.439712 0
M  V30 26 C 1.689880 0.219162 -1.519892 0
M  V30 27 N 1.878682 -0.260809 -0.276001 0
M  V30 28 H 4.416941 -2.519714 3.499544 0
M  V30 29 H 3.440940 -3.494988 4.502555 0
M  V30 30 H 2.851297 -1.018742 4.487329 0
M  V30 31 H 0.985122 -3.386341 3.902395 0
M  V30 32 H 1.468020 -2.687538 5.464951 0
M  V30 33 H -0.856403 -2.103792 4.450196 0
M  V30 34 H 0.028011 -0.864317 5.363550 0
M  V30 35 H -0.642575 0.321402 3.522108 0
M  V30 36 H -0.570097 -1.032905 2.372869 0
M  V30 37 H 1.162733 0.536772 1.852017 0
M  V30 38 H 1.807516 0.466716 3.575119 0
M  V30 39 H 1.432621 -2.044703 2.005906 0
M  V30 40 H 4.195831 -1.210879 1.926589 0
M  V30 41 H 5.159417 -0.452956 -0.206051 0
M  V30 42 H 4.806949 0.427995 -2.488294 0
M  V30 43 H 0.252818 1.316313 -4.228997 0
M  V30 44 H -0.446064 1.271891 0.227858 0
M  V30 45 H -2.769772 1.044097 1.086281 0
M  V30 46 H -5.003473 0.377802 0.793413 0
M  V30 47 H -6.753706 -0.598938 -0.572330 0
M  V30 48 H -6.286324 -1.406462 -2.877470 0
M  V30 49 H -3.965077 -1.182327 -3.743252 0
M  V30 50 H -1.618993 -0.482479 -3.435568 0
M  V30 END ATOM
M  V30 BEGIN BOND
M  V30 1 1 1 2
M  V30 2 1 2 3
M  V30 3 1 3 4
M  V30 4 1 4 5
M  V30 5 1 5 6
M  V30 6 1 6 7
M  V30 7 1 7 8
M  V30 8 1 8 9
M  V30 9 1 9 10
M  V30 10 2 10 11
M  V30 11 1 11 12
M  V30 12 1 12 13
M  V30 13 2 13 14
M  V30 14 1 14 15
M  V30 15 1 15 16
M  V30 16 2 16 17
M  V30 17 1 17 18
M  V30 18 2 18 19
M  V30 19 1 19 20
M  V30 20 2 20 21
M  V30 21 1 21 22
M  V30 22 2 22 23
M  V30 23 1 23 24
M  V30 24 2 24 25
M  V30 25 2 15 26
M  V30 26 1 26 27
M  V30 27 1 7 2
M  V30 28 2 27 9
M  V30 29 1 26 12
M  V30 30 1 25 16
M  V30 31 1 24 19
M  V30 32 1 1 28
M  V30 33 1 1 29
M  V30 34 1 2 30 CFG=1
M  V30 35 1 3 31
M  V30 36 1 3 32
M  V30 37 1 4 33
M  V30 38 1 4 34
M  V30 39 1 5 35
M  V30 40 1 5 36
M  V30 41 1 6 37
M  V30 42 1 6 38
M  V30 43 1 7 39 CFG=3
M  V30 44 1 8 40
M  V30 45 1 10 41
M  V30 46 1 11 42
M  V30 47 1 14 43
M  V30 48 1 17 44
M  V30 49 1 18 45
M  V30 50 1 20 46
M  V30 51 1 21 47
M  V30 52 1 22 48
M  V30 53 1 23 49
M  V30 54 1 25 50
M  V30 END BOND
M  V30 END CTAB
M  END
>  <Dataset>  (548) 
ChEMBL_Kinases

>  <Ligand_Instance>  (548) 
nan

>  <PDB_ID>  (548) 
nan

>  <Standardized_SMILES>  (548) 
N[C@@H]1CCCC[C@H]1Nc1ccn2ncc(-c3ccc4ccccc4c3)c2n1

>  <Name>  (548) 
nan

>  <Pocket>  (548) 
nan

>  <ATP_Site>  (548) 
nan

>  <Peripheral>  (548) 
nan

>  <Num_H_Atoms_ProtBoundConf>  (548) 
nan

>  <Num_Resolved_Atoms>  (548) 
nan

>  <Num_Not_Resolved_Atoms>  (548) 
nan

$$$$
CHEMBL4446188
     RDKit          3D

  0  0  0  0  0  0  0  0  0  0999 V3000
M  V30 BEGIN CTAB
M  V30 COUNTS 27 28 0 0 0
M  V30 BEGIN ATOM
M  V30 1 N 0.200377 -5.029052 3.206905 0
M  V30 2 C -0.741500 -3.995387 2.962521 0
M  V30 3 O -1.879346 -4.156553 3.480152 0
M  V30 4 C -0.395925 -2.829829 2.161570 0
M  V30 5 C -1.389391 -1.887425 1.992057 0
M  V30 6 C -1.084462 -0.768090 1.230458 0
M  V30 7 C 0.175863 -0.641564 0.681711 0
M  V30 8 C 0.392643 0.570345 -0.098382 0
M  V30 9 C -0.263261 1.737597 0.246981 0
M  V30 10 C -0.048788 2.890461 -0.502693 0
M  V30 11 C 0.838743 2.764014 -1.573395 0
M  V30 12 N 1.118172 3.883377 -2.391777 0
M  V30 13 N 1.475325 1.615372 -1.902111 0
M  V30 14 C 1.267824 0.482786 -1.169463 0
M  V30 15 C 1.153175 -1.613139 0.874255 0
M  V30 16 C 0.875165 -2.748042 1.634827 0
M  V30 17 H 0.889560 -5.703967 2.759104 0
M  V30 18 H 0.653305 -5.606453 3.946462 0
M  V30 19 H -2.375059 -2.036063 2.449606 0
M  V30 20 H -1.872924 -0.026349 1.099287 0
M  V30 21 H -0.952169 1.796210 1.093687 0
M  V30 22 H -0.519784 3.834689 -0.296934 0
M  V30 23 H 0.799962 4.433264 -3.223290 0
M  V30 24 H 1.989650 4.291584 -1.963514 0
M  V30 25 H 1.768971 -0.444514 -1.416697 0
M  V30 26 H 2.135730 -1.452300 0.409838 0
M  V30 27 H 1.633805 -3.505334 1.787068 0
M  V30 END ATOM
M  V30 BEGIN BOND
M  V30 1 1 1 2
M  V30 2 2 2 3
M  V30 3 1 2 4
M  V30 4 2 4 5
M  V30 5 1 5 6
M  V30 6 2 6 7
M  V30 7 1 7 8
M  V30 8 2 8 9
M  V30 9 1 9 10
M  V30 10 2 10 11
M  V30 11 1 11 12
M  V30 12 1 11 13
M  V30 13 2 13 14
M  V30 14 1 7 15
M  V30 15 2 15 16
M  V30 16 1 16 4
M  V30 17 1 14 8
M  V30 18 1 1 17
M  V30 19 1 1 18
M  V30 20 1 5 19
M  V30 21 1 6 20
M  V30 22 1 9 21
M  V30 23 1 10 22
M  V30 24 1 12 23
M  V30 25 1 12 24
M  V30 26 1 14 25
M  V30 27 1 15 26
M  V30 28 1 16 27
M  V30 END BOND
M  V30 END CTAB
M  END
>  <Dataset>  (549) 
ChEMBL_Kinases

>  <Ligand_Instance>  (549) 
nan

>  <PDB_ID>  (549) 
nan

>  <Standardized_SMILES>  (549) 
NC(=O)c1ccc(-c2ccc(N)nc2)cc1

>  <Name>  (549) 
nan

>  <Pocket>  (549) 
nan

>  <ATP_Site>  (549) 
nan

>  <Peripheral>  (549) 
nan

>  <Num_H_Atoms_ProtBoundConf>  (549) 
nan

>  <Num_Resolved_Atoms>  (549) 
nan

>  <Num_Not_Resolved_Atoms>  (549) 
nan

$$$$
CHEMBL372247
     RDKit          3D

  0  0  0  0  0  0  0  0  0  0999 V3000
M  V30 BEGIN CTAB
M  V30 COUNTS 47 50 0 0 0
M  V30 BEGIN ATOM
M  V30 1 O 0.598378 -3.871836 2.624844 0
M  V30 2 C 0.465414 -4.838388 1.625447 0
M  V30 3 C -0.174510 -4.125337 0.429238 0
M  V30 4 O -0.373656 -4.951432 -0.648748 0
M  V30 5 C 0.806367 -3.044250 0.041078 0
M  V30 6 N 0.349894 -2.227986 -1.067504 0
M  V30 7 C 1.381676 -1.269701 -1.304286 0
M  V30 8 N 2.355975 -1.653812 -2.175996 0
M  V30 9 C 3.345048 -0.755100 -2.412991 0
M  V30 10 N 3.437303 0.467490 -1.862528 0
M  V30 11 C 2.516140 0.921261 -0.992970 0
M  V30 12 N 2.208788 1.999006 -0.237858 0
M  V30 13 C 1.065168 1.782812 0.449272 0
M  V30 14 C 0.436551 2.744146 1.369942 0
M  V30 15 C -0.821745 3.239118 1.096108 0
M  V30 16 C -1.544140 4.138929 1.851743 0
M  V30 17 C -0.901642 4.573660 3.010953 0
M  V30 18 C 0.365304 4.114736 3.345098 0
M  V30 19 C 1.023282 3.221522 2.547427 0
M  V30 20 C 0.531329 0.515307 0.184203 0
M  V30 21 C -0.679296 -0.006112 0.763049 0
M  V30 22 C -1.842560 -0.400357 0.136801 0
M  V30 23 C -2.911802 -0.879567 0.866927 0
M  V30 24 C -2.871789 -0.987091 2.242351 0
M  V30 25 C -1.709755 -0.592809 2.863225 0
M  V30 26 C -0.627725 -0.109630 2.143862 0
M  V30 27 C 1.434832 -0.021614 -0.714037 0
M  V30 28 H 1.289669 -4.067508 3.287471 0
M  V30 29 H -0.171080 -5.686000 1.952796 0
M  V30 30 H 1.503121 -5.164885 1.392680 0
M  V30 31 H -1.095382 -3.675996 0.833412 0
M  V30 32 H -0.244347 -5.885185 -0.342829 0
M  V30 33 H 1.812806 -3.491035 -0.152510 0
M  V30 34 H 0.935128 -2.404035 0.938067 0
M  V30 35 H -0.583734 -2.476605 -1.458424 0
M  V30 36 H 2.354594 -2.588333 -2.644733 0
M  V30 37 H 4.124150 -1.058876 -3.107767 0
M  V30 38 H -1.327632 2.895729 0.181792 0
M  V30 39 H -2.528110 4.463939 1.545324 0
M  V30 40 H -1.429357 5.288661 3.649530 0
M  V30 41 H 0.868434 4.453059 4.249727 0
M  V30 42 H 2.025205 2.819968 2.754174 0
M  V30 43 H -1.817936 -0.294486 -0.940184 0
M  V30 44 H -3.799598 -1.176056 0.341340 0
M  V30 45 H -3.726669 -1.365780 2.775819 0
M  V30 46 H -1.685784 -0.679879 3.940445 0
M  V30 47 H 0.223776 0.166066 2.750818 0
M  V30 END ATOM
M  V30 BEGIN BOND
M  V30 1 1 1 2
M  V30 2 1 2 3
M  V30 3 1 3 4
M  V30 4 1 3 5
M  V30 5 1 5 6
M  V30 6 1 6 7
M  V30 7 1 7 8
M  V30 8 1 8 9
M  V30 9 2 9 10
M  V30 10 1 10 11
M  V30 11 2 11 12
M  V30 12 1 12 13
M  V30 13 1 13 14
M  V30 14 2 14 15
M  V30 15 1 15 16
M  V30 16 2 16 17
M  V30 17 1 17 18
M  V30 18 2 18 19
M  V30 19 2 13 20
M  V30 20 1 20 21
M  V30 21 2 21 22
M  V30 22 1 22 23
M  V30 23 2 23 24
M  V30 24 1 24 25
M  V30 25 2 25 26
M  V30 26 1 20 27
M  V30 27 2 27 7
M  V30 28 1 27 11
M  V30 29 1 19 14
M  V30 30 1 26 21
M  V30 31 1 1 28
M  V30 32 1 2 29
M  V30 33 1 2 30
M  V30 34 1 3 31
M  V30 35 1 4 32
M  V30 36 1 5 33
M  V30 37 1 5 34
M  V30 38 1 6 35
M  V30 39 1 8 36
M  V30 40 1 9 37
M  V30 41 1 15 38
M  V30 42 1 16 39
M  V30 43 1 17 40
M  V30 44 1 18 41
M  V30 45 1 19 42
M  V30 46 1 22 43
M  V30 47 1 23 44
M  V30 48 1 24 45
M  V30 49 1 25 46
M  V30 50 1 26 47
M  V30 END BOND
M  V30 END CTAB
M  END
>  <Dataset>  (550) 
ChEMBL_Kinases

>  <Ligand_Instance>  (550) 
nan

>  <PDB_ID>  (550) 
nan

>  <Standardized_SMILES>  (550) 
OCC(O)CNc1[nH]cnc2nc(-c3ccccc3)c(-c3ccccc3)c1-2

>  <Name>  (550) 
nan

>  <Pocket>  (550) 
nan

>  <ATP_Site>  (550) 
nan

>  <Peripheral>  (550) 
nan

>  <Num_H_Atoms_ProtBoundConf>  (550) 
nan

>  <Num_Resolved_Atoms>  (550) 
nan

>  <Num_Not_Resolved_Atoms>  (550) 
nan

$$$$
CHEMBL4575832
     RDKit          3D

  0  0  0  0  0  0  0  0  0  0999 V3000
M  V30 BEGIN CTAB
M  V30 COUNTS 51 55 0 0 0
M  V30 BEGIN ATOM
M  V30 1 C 1.114416 -5.873061 4.620416 0
M  V30 2 C 2.211039 -4.977533 4.176580 0
M  V30 3 N 3.441149 -4.712385 4.629398 0
M  V30 4 O 4.031706 -3.831870 3.882378 0
M  V30 5 C 3.185079 -3.506255 2.918973 0
M  V30 6 C 3.383978 -2.543134 1.813536 0
M  V30 7 C 4.538263 -1.806047 1.665120 0
M  V30 8 C 4.693151 -0.919855 0.618917 0
M  V30 9 C 3.703030 -0.733722 -0.320429 0
M  V30 10 N 3.547902 0.034002 -1.436819 0
M  V30 11 C 2.328824 -0.218716 -1.971425 0
M  V30 12 N 1.549381 0.217367 -3.080742 0
M  V30 13 C 0.366405 0.979754 -2.843174 0
M  V30 14 C -0.099333 1.352752 -1.601138 0
M  V30 15 C -1.254266 2.067275 -1.363858 0
M  V30 16 C -1.656184 2.417105 0.024350 0
M  V30 17 N -2.427301 1.446217 0.691385 0
M  V30 18 C -1.836103 0.169844 0.884223 0
M  V30 19 C -2.744386 -0.759725 1.604355 0
M  V30 20 N -4.128328 -0.409986 1.580178 0
M  V30 21 C -4.430175 0.950794 1.850750 0
M  V30 22 C -3.243226 1.876677 1.763618 0
M  V30 23 C -2.012880 2.444700 -2.462622 0
M  V30 24 C -1.548915 2.073787 -3.707058 0
M  V30 25 N -0.421729 1.380082 -3.885839 0
M  V30 26 N 1.690564 -1.153234 -1.198466 0
M  V30 27 C 2.549583 -1.467381 -0.176501 0
M  V30 28 C 2.355697 -2.378499 0.875275 0
M  V30 29 N 2.051728 -4.210483 3.090848 0
M  V30 30 H 0.434043 -5.362931 5.346994 0
M  V30 31 H 0.461015 -6.182632 3.784160 0
M  V30 32 H 1.504479 -6.771241 5.139298 0
M  V30 33 H 5.346296 -1.930058 2.396826 0
M  V30 34 H 5.580278 -0.326425 0.463915 0
M  V30 35 H 1.802487 0.008402 -4.053325 0
M  V30 36 H 0.510605 1.049479 -0.751353 0
M  V30 37 H -0.748834 2.663317 0.591520 0
M  V30 38 H -2.250272 3.354937 -0.077030 0
M  V30 39 H -0.946585 0.348055 1.554301 0
M  V30 40 H -1.389415 -0.228114 -0.047323 0
M  V30 41 H -2.471372 -0.934237 2.678280 0
M  V30 42 H -2.642518 -1.751423 1.108073 0
M  V30 43 H -4.684589 -0.847998 0.815519 0
M  V30 44 H -4.959631 1.112852 2.813250 0
M  V30 45 H -5.145343 1.283740 1.049440 0
M  V30 46 H -2.646165 1.730588 2.703460 0
M  V30 47 H -3.553993 2.920578 1.678968 0
M  V30 48 H -2.933412 3.013616 -2.285302 0
M  V30 49 H -2.159691 2.378759 -4.551306 0
M  V30 50 H 0.745968 -1.611196 -1.270169 0
M  V30 51 H 1.455282 -2.953248 0.994231 0
M  V30 END ATOM
M  V30 BEGIN BOND
M  V30 1 1 1 2
M  V30 2 2 2 3
M  V30 3 1 3 4
M  V30 4 1 4 5
M  V30 5 1 5 6
M  V30 6 2 6 7
M  V30 7 1 7 8
M  V30 8 2 8 9
M  V30 9 1 9 10
M  V30 10 2 10 11
M  V30 11 1 11 12
M  V30 12 1 12 13
M  V30 13 2 13 14
M  V30 14 1 14 15
M  V30 15 1 15 16
M  V30 16 1 16 17
M  V30 17 1 17 18
M  V30 18 1 18 19
M  V30 19 1 19 20
M  V30 20 1 20 21
M  V30 21 1 21 22
M  V30 22 2 15 23
M  V30 23 1 23 24
M  V30 24 2 24 25
M  V30 25 1 11 26
M  V30 26 1 26 27
M  V30 27 2 27 28
M  V30 28 2 5 29
M  V30 29 1 29 2
M  V30 30 1 28 6
M  V30 31 1 27 9
M  V30 32 1 25 13
M  V30 33 1 22 17
M  V30 34 1 1 30
M  V30 35 1 1 31
M  V30 36 1 1 32
M  V30 37 1 7 33
M  V30 38 1 8 34
M  V30 39 1 12 35
M  V30 40 1 14 36
M  V30 41 1 16 37
M  V30 42 1 16 38
M  V30 43 1 18 39
M  V30 44 1 18 40
M  V30 45 1 19 41
M  V30 46 1 19 42
M  V30 47 1 20 43
M  V30 48 1 21 44
M  V30 49 1 21 45
M  V30 50 1 22 46
M  V30 51 1 22 47
M  V30 52 1 23 48
M  V30 53 1 24 49
M  V30 54 1 26 50
M  V30 55 1 28 51
M  V30 END BOND
M  V30 END CTAB
M  END
>  <Dataset>  (551) 
ChEMBL_Kinases

>  <Ligand_Instance>  (551) 
nan

>  <PDB_ID>  (551) 
nan

>  <Standardized_SMILES>  (551) 
Cc1noc(-c2ccc3nc(Nc4cc(CN5CCNCC5)ccn4)[nH]c3c2)n1

>  <Name>  (551) 
nan

>  <Pocket>  (551) 
nan

>  <ATP_Site>  (551) 
nan

>  <Peripheral>  (551) 
nan

>  <Num_H_Atoms_ProtBoundConf>  (551) 
nan

>  <Num_Resolved_Atoms>  (551) 
nan

>  <Num_Not_Resolved_Atoms>  (551) 
nan

$$$$
CHEMBL372464
     RDKit          3D

  0  0  0  0  0  0  0  0  0  0999 V3000
M  V30 BEGIN CTAB
M  V30 COUNTS 44 47 0 0 0
M  V30 BEGIN ATOM
M  V30 1 C -3.705725 -1.721813 3.066656 0
M  V30 2 O -2.531297 -2.172613 3.663744 0
M  V30 3 C -1.312306 -2.276168 3.018789 0
M  V30 4 C -1.163887 -1.928359 1.673747 0
M  V30 5 C 0.096738 -2.072420 1.143110 0
M  V30 6 C 1.237282 -2.525649 1.794629 0
M  V30 7 N 2.519943 -2.615373 1.169004 0
M  V30 8 C 2.506898 -1.974924 -0.121365 0
M  V30 9 N 2.610471 -0.614982 -0.155080 0
M  V30 10 C 2.605033 0.099521 -1.307351 0
M  V30 11 N 2.740969 1.477010 -0.970562 0
M  V30 12 C 1.631684 2.185209 -0.428940 0
M  V30 13 C 1.775505 3.493282 0.017448 0
M  V30 14 C 0.742244 4.231385 0.577073 0
M  V30 15 C -0.483586 3.611794 0.683608 0
M  V30 16 N -1.653151 4.092634 1.191285 0
M  V30 17 C -2.550098 3.082905 1.065287 0
M  V30 18 N -1.954107 1.998393 0.492095 0
M  V30 19 C -0.665017 2.297215 0.242455 0
M  V30 20 C 0.392869 1.575123 -0.316827 0
M  V30 21 N 2.490708 -0.584471 -2.487413 0
M  V30 22 C 2.388098 -1.929779 -2.461150 0
M  V30 23 C 2.389336 -2.687681 -1.314881 0
M  V30 24 C 2.271724 -4.159503 -1.238500 0
M  V30 25 F 1.155520 -4.592599 -0.553309 0
M  V30 26 F 2.262613 -4.685872 -2.507100 0
M  V30 27 F 3.374181 -4.702442 -0.556235 0
M  V30 28 C 1.049643 -2.861133 3.122122 0
M  V30 29 C -0.193285 -2.732713 3.698195 0
M  V30 30 H -3.712202 -0.597430 2.997125 0
M  V30 31 H -3.881468 -2.131013 2.055005 0
M  V30 32 H -4.564908 -2.081820 3.706654 0
M  V30 33 H -1.995856 -1.570039 1.092611 0
M  V30 34 H 0.166316 -1.794211 0.081235 0
M  V30 35 H 3.259585 -3.106684 1.695555 0
M  V30 36 H 3.640969 1.988958 -1.105702 0
M  V30 37 H 2.758852 3.922561 -0.092342 0
M  V30 38 H 0.903725 5.249375 0.912483 0
M  V30 39 H -1.820596 5.048994 1.595751 0
M  V30 40 H -3.571289 3.206211 1.397758 0
M  V30 41 H 0.210003 0.562646 -0.648779 0
M  V30 42 H 2.296070 -2.439369 -3.406886 0
M  V30 43 H 1.942152 -3.216731 3.633903 0
M  V30 44 H -0.262464 -3.018241 4.762682 0
M  V30 END ATOM
M  V30 BEGIN BOND
M  V30 1 1 1 2
M  V30 2 1 2 3
M  V30 3 2 3 4
M  V30 4 1 4 5
M  V30 5 2 5 6
M  V30 6 1 6 7
M  V30 7 1 7 8
M  V30 8 2 8 9
M  V30 9 1 9 10
M  V30 10 1 10 11
M  V30 11 1 11 12
M  V30 12 2 12 13
M  V30 13 1 13 14
M  V30 14 2 14 15
M  V30 15 1 15 16
M  V30 16 1 16 17
M  V30 17 2 17 18
M  V30 18 1 18 19
M  V30 19 2 19 20
M  V30 20 2 10 21
M  V30 21 1 21 22
M  V30 22 2 22 23
M  V30 23 1 23 24
M  V30 24 1 24 25
M  V30 25 1 24 26
M  V30 26 1 24 27
M  V30 27 1 6 28
M  V30 28 2 28 29
M  V30 29 1 29 3
M  V30 30 1 23 8
M  V30 31 1 20 12
M  V30 32 1 19 15
M  V30 33 1 1 30
M  V30 34 1 1 31
M  V30 35 1 1 32
M  V30 36 1 4 33
M  V30 37 1 5 34
M  V30 38 1 7 35
M  V30 39 1 11 36
M  V30 40 1 13 37
M  V30 41 1 14 38
M  V30 42 1 16 39
M  V30 43 1 17 40
M  V30 44 1 20 41
M  V30 45 1 22 42
M  V30 46 1 28 43
M  V30 47 1 29 44
M  V30 END BOND
M  V30 END CTAB
M  END
>  <Dataset>  (552) 
ChEMBL_Kinases

>  <Ligand_Instance>  (552) 
nan

>  <PDB_ID>  (552) 
nan

>  <Standardized_SMILES>  (552) 
COc1ccc(Nc2nc(Nc3ccc4[nH]cnc4c3)ncc2C(F)(F)F)cc1

>  <Name>  (552) 
nan

>  <Pocket>  (552) 
nan

>  <ATP_Site>  (552) 
nan

>  <Peripheral>  (552) 
nan

>  <Num_H_Atoms_ProtBoundConf>  (552) 
nan

>  <Num_Resolved_Atoms>  (552) 
nan

>  <Num_Not_Resolved_Atoms>  (552) 
nan

$$$$
CHEMBL4575118
     RDKit          3D

  0  0  0  0  0  0  0  0  0  0999 V3000
M  V30 BEGIN CTAB
M  V30 COUNTS 50 53 0 0 0
M  V30 BEGIN ATOM
M  V30 1 C -2.659016 -1.483078 -4.154075 0
M  V30 2 C -1.693776 -1.055954 -3.100803 0
M  V30 3 C -1.568177 0.231703 -2.615900 0
M  V30 4 C -0.644779 0.526683 -1.640950 0
M  V30 5 C 0.202073 -0.429673 -1.092906 0
M  V30 6 C 1.123051 0.059215 -0.074120 0
M  V30 7 N 1.854334 1.187394 -0.189036 0
M  V30 8 N 2.590392 1.382493 0.876273 0
M  V30 9 C 3.475232 2.508900 1.032116 0
M  V30 10 C 4.562070 2.602370 0.157318 0
M  V30 11 C 5.444254 3.660047 0.259962 0
M  V30 12 C 5.232149 4.623257 1.243127 0
M  V30 13 C 4.164621 4.551358 2.118057 0
M  V30 14 C 3.297272 3.484772 1.995117 0
M  V30 15 C 2.379860 0.376087 1.765709 0
M  V30 16 C 1.444146 -0.464130 1.155352 0
M  V30 17 C 0.945858 -1.657015 1.769586 0
M  V30 18 O 1.020401 -2.913734 1.527197 0
M  V30 19 N 0.160892 -1.540397 2.946408 0
M  V30 20 O -0.571659 -1.768955 4.011106 0
M  V30 21 C -1.933506 -1.831563 3.872816 0
M  V30 22 C -2.430923 -2.885125 2.963464 0
M  V30 23 C -2.895236 -4.072570 3.546398 0
M  V30 24 C -3.377999 -5.169761 2.862463 0
M  V30 25 C -3.406095 -5.088938 1.490144 0
M  V30 26 C -2.964505 -3.944282 0.819946 0
M  V30 27 C -2.501304 -2.906318 1.591899 0
M  V30 28 F -2.086777 -1.778836 0.974049 0
M  V30 29 C 0.062960 -1.709244 -1.588247 0
M  V30 30 C -0.858688 -2.020766 -2.566308 0
M  V30 31 H -3.413338 -2.125127 -3.670733 0
M  V30 32 H -2.069004 -2.097648 -4.893592 0
M  V30 33 H -3.085568 -0.661816 -4.733510 0
M  V30 34 H -2.234368 0.978294 -3.052831 0
M  V30 35 H -0.646317 1.575523 -1.341799 0
M  V30 36 H 4.737102 1.863810 -0.600243 0
M  V30 37 H 6.288383 3.732472 -0.416054 0
M  V30 38 H 5.919007 5.470447 1.343650 0
M  V30 39 H 3.984000 5.297820 2.890706 0
M  V30 40 H 2.429226 3.326513 2.623489 0
M  V30 41 H 2.857475 0.290869 2.724491 0
M  V30 42 H -0.030008 -0.562969 3.335930 0
M  V30 43 H -2.459441 -1.937048 4.841049 0
M  V30 44 H -2.282557 -0.822786 3.482911 0
M  V30 45 H -2.878462 -4.152955 4.632752 0
M  V30 46 H -3.713243 -6.036691 3.408983 0
M  V30 47 H -3.776090 -5.919417 0.906368 0
M  V30 48 H -2.964316 -3.832194 -0.256299 0
M  V30 49 H 0.734488 -2.431602 -1.145405 0
M  V30 50 H -0.862571 -3.070875 -2.866761 0
M  V30 END ATOM
M  V30 BEGIN BOND
M  V30 1 1 1 2
M  V30 2 2 2 3
M  V30 3 1 3 4
M  V30 4 2 4 5
M  V30 5 1 5 6
M  V30 6 2 6 7
M  V30 7 1 7 8
M  V30 8 1 8 9
M  V30 9 2 9 10
M  V30 10 1 10 11
M  V30 11 2 11 12
M  V30 12 1 12 13
M  V30 13 2 13 14
M  V30 14 1 8 15
M  V30 15 2 15 16
M  V30 16 1 16 17
M  V30 17 2 17 18
M  V30 18 1 17 19
M  V30 19 1 19 20
M  V30 20 1 20 21
M  V30 21 1 21 22
M  V30 22 2 22 23
M  V30 23 1 23 24
M  V30 24 2 24 25
M  V30 25 1 25 26
M  V30 26 2 26 27
M  V30 27 1 27 28
M  V30 28 1 5 29
M  V30 29 2 29 30
M  V30 30 1 30 2
M  V30 31 1 16 6
M  V30 32 1 27 22
M  V30 33 1 14 9
M  V30 34 1 1 31
M  V30 35 1 1 32
M  V30 36 1 1 33
M  V30 37 1 3 34
M  V30 38 1 4 35
M  V30 39 1 10 36
M  V30 40 1 11 37
M  V30 41 1 12 38
M  V30 42 1 13 39
M  V30 43 1 14 40
M  V30 44 1 15 41
M  V30 45 1 19 42
M  V30 46 1 21 43
M  V30 47 1 21 44
M  V30 48 1 23 45
M  V30 49 1 24 46
M  V30 50 1 25 47
M  V30 51 1 26 48
M  V30 52 1 29 49
M  V30 53 1 30 50
M  V30 END BOND
M  V30 END CTAB
M  END
>  <Dataset>  (553) 
ChEMBL_Kinases

>  <Ligand_Instance>  (553) 
nan

>  <PDB_ID>  (553) 
nan

>  <Standardized_SMILES>  (553) 
Cc1ccc(-c2nn(-c3ccccc3)cc2C(=O)NOCc2ccccc2F)cc1

>  <Name>  (553) 
nan

>  <Pocket>  (553) 
nan

>  <ATP_Site>  (553) 
nan

>  <Peripheral>  (553) 
nan

>  <Num_H_Atoms_ProtBoundConf>  (553) 
nan

>  <Num_Resolved_Atoms>  (553) 
nan

>  <Num_Not_Resolved_Atoms>  (553) 
nan

$$$$
CHEMBL3718984
     RDKit          3D

  0  0  0  0  0  0  0  0  0  0999 V3000
M  V30 BEGIN CTAB
M  V30 COUNTS 40 44 0 0 0
M  V30 BEGIN ATOM
M  V30 1 O -0.351884 0.032344 3.106639 0
M  V30 2 C -0.622703 -0.891471 2.278307 0
M  V30 3 N 0.177968 -1.115279 1.143760 0
M  V30 4 C 1.353990 -0.327140 0.828421 0
M  V30 5 N 2.210340 -0.236169 0.014703 0
M  V30 6 C 3.200517 0.625519 -0.011263 0
M  V30 7 C 4.212722 0.759583 -0.940956 0
M  V30 8 C 5.161004 1.723286 -0.798335 0
M  V30 9 C 5.233656 2.638954 0.230710 0
M  V30 10 N 5.965103 3.669010 0.687439 0
M  V30 11 N 5.473202 4.160205 1.812079 0
M  V30 12 C 4.371899 3.479337 2.176591 0
M  V30 13 C 4.239780 2.537498 1.180070 0
M  V30 14 C 3.266362 1.541312 1.025274 0
M  V30 15 S 1.812977 1.058623 2.009267 0
M  V30 16 C -1.816968 -1.736167 2.542860 0
M  V30 17 N -2.170512 -2.776203 1.610488 0
M  V30 18 C -2.566316 -2.737314 0.238740 0
M  V30 19 C -2.845163 -3.922041 -0.432755 0
M  V30 20 C -3.225820 -3.813306 -1.747898 0
M  V30 21 C -3.342668 -2.612099 -2.421233 0
M  V30 22 Cl -3.838670 -2.595647 -4.106005 0
M  V30 23 C -3.072598 -1.442414 -1.776016 0
M  V30 24 C -2.690143 -1.537923 -0.457814 0
M  V30 25 C -2.317263 -1.769340 3.942089 0
M  V30 26 C -3.038515 -0.917419 2.994989 0
M  V30 27 H 0.027122 -1.836286 0.440318 0
M  V30 28 H 4.314022 0.125768 -1.816763 0
M  V30 29 H 5.973138 1.835640 -1.538474 0
M  V30 30 H 6.822318 3.977808 0.136219 0
M  V30 31 H 3.729009 3.615482 3.034702 0
M  V30 32 H -2.102497 -3.677351 2.088398 0
M  V30 33 H -2.772734 -4.885997 0.035264 0
M  V30 34 H -3.447209 -4.739058 -2.284442 0
M  V30 35 H -3.156286 -0.493210 -2.278805 0
M  V30 36 H -2.470703 -0.621518 0.074321 0
M  V30 37 H -1.677644 -1.275909 4.702264 0
M  V30 38 H -2.854189 -2.682680 4.319631 0
M  V30 39 H -4.036387 -1.178999 2.591592 0
M  V30 40 H -2.924777 0.192123 3.071452 0
M  V30 END ATOM
M  V30 BEGIN BOND
M  V30 1 2 1 2
M  V30 2 1 2 3
M  V30 3 1 3 4
M  V30 4 2 4 5
M  V30 5 1 5 6
M  V30 6 2 6 7
M  V30 7 1 7 8
M  V30 8 2 8 9
M  V30 9 1 9 10
M  V30 10 1 10 11
M  V30 11 2 11 12
M  V30 12 1 12 13
M  V30 13 2 13 14
M  V30 14 1 14 15
M  V30 15 1 2 16
M  V30 16 1 16 17
M  V30 17 1 17 18
M  V30 18 2 18 19
M  V30 19 1 19 20
M  V30 20 2 20 21
M  V30 21 1 21 22
M  V30 22 1 21 23
M  V30 23 2 23 24
M  V30 24 1 16 25
M  V30 25 1 25 26
M  V30 26 1 15 4
M  V30 27 1 26 16
M  V30 28 1 14 6
M  V30 29 1 24 18
M  V30 30 1 13 9
M  V30 31 1 3 27
M  V30 32 1 7 28
M  V30 33 1 8 29
M  V30 34 1 10 30
M  V30 35 1 12 31
M  V30 36 1 17 32
M  V30 37 1 19 33
M  V30 38 1 20 34
M  V30 39 1 23 35
M  V30 40 1 24 36
M  V30 41 1 25 37
M  V30 42 1 25 38
M  V30 43 1 26 39
M  V30 44 1 26 40
M  V30 END BOND
M  V30 END CTAB
M  END
>  <Dataset>  (554) 
ChEMBL_Kinases

>  <Ligand_Instance>  (554) 
nan

>  <PDB_ID>  (554) 
nan

>  <Standardized_SMILES>  (554) 
O=C(Nc1nc2ccc3[nH]ncc3c2s1)C1(Nc2ccc(Cl)cc2)CC1

>  <Name>  (554) 
nan

>  <Pocket>  (554) 
nan

>  <ATP_Site>  (554) 
nan

>  <Peripheral>  (554) 
nan

>  <Num_H_Atoms_ProtBoundConf>  (554) 
nan

>  <Num_Resolved_Atoms>  (554) 
nan

>  <Num_Not_Resolved_Atoms>  (554) 
nan

$$$$
CHEMBL2442293
     RDKit          3D

  0  0  0  0  0  0  0  0  0  0999 V3000
M  V30 BEGIN CTAB
M  V30 COUNTS 48 51 0 0 0
M  V30 BEGIN ATOM
M  V30 1 N 2.731917 -4.038668 2.795110 0
M  V30 2 C 3.154763 -4.687918 1.559904 0
M  V30 3 C 3.077592 -3.741887 0.384667 0
M  V30 4 N 3.906876 -2.581658 0.541445 0
M  V30 5 C 3.782321 -1.740758 -0.600301 0
M  V30 6 C 4.502897 -1.722318 -1.777210 0
M  V30 7 C 4.174631 -0.789267 -2.741389 0
M  V30 8 N 3.165997 0.080547 -2.521300 0
M  V30 9 N 2.695966 1.050620 -3.318723 0
M  V30 10 C 1.672682 1.695254 -2.716457 0
M  V30 11 C 1.524552 1.075520 -1.492923 0
M  V30 12 C 0.582067 1.334679 -0.405056 0
M  V30 13 C 0.432445 2.672249 -0.100203 0
M  V30 14 C -0.429378 3.034505 0.907422 0
M  V30 15 C -1.126651 2.076155 1.595111 0
M  V30 16 C -1.013901 0.729690 1.330657 0
M  V30 17 O -1.556054 -0.424411 1.822600 0
M  V30 18 C -2.465117 -0.681740 2.813429 0
M  V30 19 C -3.807109 -0.107501 2.663382 0
M  V30 20 C -4.347320 1.061089 3.140581 0
M  V30 21 C -5.632875 1.463081 2.896682 0
M  V30 22 C -6.480138 0.695524 2.137669 0
M  V30 23 C -6.015977 -0.478536 1.629551 0
M  V30 24 C -4.725303 -0.841816 1.897563 0
M  V30 25 C -0.129593 0.370491 0.298134 0
M  V30 26 C 2.461983 0.064661 -1.374838 0
M  V30 27 N 2.771948 -0.839116 -0.428168 0
M  V30 28 H 1.830563 -4.491719 3.087737 0
M  V30 29 H 2.534909 -3.035106 2.574169 0
M  V30 30 H 2.535261 -5.572897 1.315284 0
M  V30 31 H 4.197877 -5.028117 1.661493 0
M  V30 32 H 2.007380 -3.402110 0.310061 0
M  V30 33 H 3.304104 -4.297791 -0.525388 0
M  V30 34 H 4.496465 -2.434056 1.398935 0
M  V30 35 H 5.268636 -2.476079 -1.795429 0
M  V30 36 H 4.779529 -0.830409 -3.639115 0
M  V30 37 H 1.062650 2.514803 -3.051039 0
M  V30 38 H 0.939531 3.495391 -0.587467 0
M  V30 39 H -0.635782 4.052039 1.243615 0
M  V30 40 H -1.818319 2.233597 2.394792 0
M  V30 41 H -2.044316 -0.468986 3.845379 0
M  V30 42 H -2.590165 -1.809440 2.844545 0
M  V30 43 H -3.656390 1.648815 3.747240 0
M  V30 44 H -5.953449 2.407775 3.325175 0
M  V30 45 H -7.469854 1.097739 2.003613 0
M  V30 46 H -6.665826 -1.086632 1.036325 0
M  V30 47 H -4.414092 -1.800725 1.457395 0
M  V30 48 H 0.126092 -0.611777 -0.089937 0
M  V30 END ATOM
M  V30 BEGIN BOND
M  V30 1 1 1 2
M  V30 2 1 2 3
M  V30 3 1 3 4
M  V30 4 1 4 5
M  V30 5 1 5 6
M  V30 6 2 6 7
M  V30 7 1 7 8
M  V30 8 1 8 9
M  V30 9 2 9 10
M  V30 10 1 10 11
M  V30 11 1 11 12
M  V30 12 2 12 13
M  V30 13 1 13 14
M  V30 14 2 14 15
M  V30 15 1 15 16
M  V30 16 1 16 17
M  V30 17 1 17 18
M  V30 18 1 18 19
M  V30 19 2 19 20
M  V30 20 1 20 21
M  V30 21 2 21 22
M  V30 22 1 22 23
M  V30 23 2 23 24
M  V30 24 2 16 25
M  V30 25 2 11 26
M  V30 26 1 26 27
M  V30 27 2 27 5
M  V30 28 1 26 8
M  V30 29 1 25 12
M  V30 30 1 24 19
M  V30 31 1 1 28
M  V30 32 1 1 29
M  V30 33 1 2 30
M  V30 34 1 2 31
M  V30 35 1 3 32
M  V30 36 1 3 33
M  V30 37 1 4 34
M  V30 38 1 6 35
M  V30 39 1 7 36
M  V30 40 1 10 37
M  V30 41 1 13 38
M  V30 42 1 14 39
M  V30 43 1 15 40
M  V30 44 1 18 41
M  V30 45 1 18 42
M  V30 46 1 20 43
M  V30 47 1 21 44
M  V30 48 1 22 45
M  V30 49 1 23 46
M  V30 50 1 24 47
M  V30 51 1 25 48
M  V30 END BOND
M  V30 END CTAB
M  END
>  <Dataset>  (555) 
ChEMBL_Kinases

>  <Ligand_Instance>  (555) 
nan

>  <PDB_ID>  (555) 
nan

>  <Standardized_SMILES>  (555) 
NCCNc1ccn2ncc(-c3cccc(OCc4ccccc4)c3)c2n1

>  <Name>  (555) 
nan

>  <Pocket>  (555) 
nan

>  <ATP_Site>  (555) 
nan

>  <Peripheral>  (555) 
nan

>  <Num_H_Atoms_ProtBoundConf>  (555) 
nan

>  <Num_Resolved_Atoms>  (555) 
nan

>  <Num_Not_Resolved_Atoms>  (555) 
nan

$$$$
CHEMBL3719041
     RDKit          3D

  0  0  0  0  0  0  0  0  0  0999 V3000
M  V30 BEGIN CTAB
M  V30 COUNTS 49 52 0 0 0
M  V30 BEGIN ATOM
M  V30 1 C 1.117227 1.929830 2.849002 0
M  V30 2 C 1.453828 0.486282 3.031934 0
M  V30 3 C 1.059654 -0.011327 4.428536 0
M  V30 4 N 2.880045 0.283567 2.911991 0
M  V30 5 C 3.636197 0.577929 1.741532 0
M  V30 6 C 5.012734 0.387445 1.626316 0
M  V30 7 C 5.710367 0.680929 0.480237 0
M  V30 8 C 5.074501 1.183789 -0.623555 0
M  V30 9 Cl 6.017068 1.537777 -2.053383 0
M  V30 10 C 3.708311 1.391724 -0.561968 0
M  V30 11 C 3.048623 1.926965 -1.744734 0
M  V30 12 N 1.655125 2.137013 -1.675467 0
M  V30 13 O 3.729931 2.174465 -2.755344 0
M  V30 14 C 3.043273 1.086716 0.600891 0
M  V30 15 C 0.778419 -0.375673 1.997681 0
M  V30 16 O 0.962415 -1.217474 1.054045 0
M  V30 17 N -0.625662 -0.189364 2.099213 0
M  V30 18 C -1.543967 -0.893536 1.225592 0
M  V30 19 N -2.087165 -1.895262 1.292174 0
M  V30 20 C -2.916321 -2.503575 0.475924 0
M  V30 21 C -3.588545 -3.706402 0.521547 0
M  V30 22 C -3.464457 -4.632297 1.657443 0
M  V30 23 F -4.196865 -5.769645 1.534539 0
M  V30 24 F -2.115736 -4.882706 1.898863 0
M  V30 25 F -3.929625 -3.988218 2.806389 0
M  V30 26 C -4.412764 -4.107054 -0.493304 0
M  V30 27 C -4.663715 -3.387145 -1.641564 0
M  V30 28 N -5.371267 -3.461938 -2.781077 0
M  V30 29 N -5.179530 -2.374714 -3.535879 0
M  V30 30 C -4.329320 -1.523057 -2.926021 0
M  V30 31 C -4.028399 -2.172789 -1.761987 0
M  V30 32 C -3.200201 -1.795327 -0.717201 0
M  V30 33 S -2.156053 -0.240966 -0.475165 0
M  V30 34 H 0.331140 2.108594 2.063564 0
M  V30 35 H 1.994703 2.546469 2.582193 0
M  V30 36 H 0.756817 2.316317 3.831852 0
M  V30 37 H 1.626720 -0.930484 4.687749 0
M  V30 38 H -0.011363 -0.319353 4.354614 0
M  V30 39 H 1.221361 0.816051 5.152032 0
M  V30 40 H 3.467489 -0.104754 3.702372 0
M  V30 41 H 5.533547 -0.010087 2.490377 0
M  V30 42 H 6.774376 0.515478 0.442009 0
M  V30 43 H 1.159804 2.691441 -0.916408 0
M  V30 44 H 0.806402 1.884350 -2.215914 0
M  V30 45 H 1.991092 1.280495 0.550723 0
M  V30 46 H -1.266562 0.376860 2.693158 0
M  V30 47 H -4.952049 -5.070472 -0.458256 0
M  V30 48 H -5.981248 -4.301591 -2.990727 0
M  V30 49 H -3.937456 -0.562725 -3.210939 0
M  V30 END ATOM
M  V30 BEGIN BOND
M  V30 1 1 1 2
M  V30 2 1 2 3
M  V30 3 1 2 4
M  V30 4 1 4 5
M  V30 5 2 5 6
M  V30 6 1 6 7
M  V30 7 2 7 8
M  V30 8 1 8 9
M  V30 9 1 8 10
M  V30 10 1 10 11
M  V30 11 1 11 12
M  V30 12 2 11 13
M  V30 13 2 10 14
M  V30 14 1 2 15
M  V30 15 2 15 16
M  V30 16 1 15 17
M  V30 17 1 17 18
M  V30 18 2 18 19
M  V30 19 1 19 20
M  V30 20 2 20 21
M  V30 21 1 21 22
M  V30 22 1 22 23
M  V30 23 1 22 24
M  V30 24 1 22 25
M  V30 25 1 21 26
M  V30 26 2 26 27
M  V30 27 1 27 28
M  V30 28 1 28 29
M  V30 29 2 29 30
M  V30 30 1 30 31
M  V30 31 2 31 32
M  V30 32 1 32 33
M  V30 33 1 14 5
M  V30 34 1 33 18
M  V30 35 1 32 20
M  V30 36 1 31 27
M  V30 37 1 1 34
M  V30 38 1 1 35
M  V30 39 1 1 36
M  V30 40 1 3 37
M  V30 41 1 3 38
M  V30 42 1 3 39
M  V30 43 1 4 40
M  V30 44 1 6 41
M  V30 45 1 7 42
M  V30 46 1 12 43
M  V30 47 1 12 44
M  V30 48 1 14 45
M  V30 49 1 17 46
M  V30 50 1 26 47
M  V30 51 1 28 48
M  V30 52 1 30 49
M  V30 END BOND
M  V30 END CTAB
M  END
>  <Dataset>  (556) 
ChEMBL_Kinases

>  <Ligand_Instance>  (556) 
nan

>  <PDB_ID>  (556) 
nan

>  <Standardized_SMILES>  (556) 
CC(C)(Nc1ccc(Cl)c(C(N)=O)c1)C(=O)Nc1nc2c(C(F)(F)F)cc3[nH]ncc3c2s1

>  <Name>  (556) 
nan

>  <Pocket>  (556) 
nan

>  <ATP_Site>  (556) 
nan

>  <Peripheral>  (556) 
nan

>  <Num_H_Atoms_ProtBoundConf>  (556) 
nan

>  <Num_Resolved_Atoms>  (556) 
nan

>  <Num_Not_Resolved_Atoms>  (556) 
nan

$$$$
CHEMBL3719051
     RDKit          3D

  0  0  0  0  0  0  0  0  0  0999 V3000
M  V30 BEGIN CTAB
M  V30 COUNTS 55 58 0 0 0
M  V30 BEGIN ATOM
M  V30 1 C 2.648512 -3.195915 8.211353 0
M  V30 2 O 1.463825 -3.355242 7.470021 0
M  V30 3 C 1.248762 -2.900552 6.195650 0
M  V30 4 C 2.173334 -2.211590 5.442829 0
M  V30 5 C 1.940692 -1.759528 4.158499 0
M  V30 6 C 2.702848 -1.058167 3.221876 0
M  V30 7 C 1.891571 -0.913172 2.115896 0
M  V30 8 C 2.360463 -0.220794 0.922102 0
M  V30 9 O 3.538824 0.251065 0.913009 0
M  V30 10 N 1.615533 -0.006280 -0.282370 0
M  V30 11 C 2.470244 0.723011 -1.200990 0
M  V30 12 C 1.754539 0.978584 -2.476877 0
M  V30 13 O 2.439845 1.606055 -3.321727 0
M  V30 14 N 0.422640 0.576081 -2.770729 0
M  V30 15 C -0.276345 0.816391 -3.995755 0
M  V30 16 C -0.564372 -0.523041 -4.654910 0
M  V30 17 C -1.748485 -1.174425 -3.969436 0
M  V30 18 C -2.972942 -0.392472 -4.356665 0
M  V30 19 C -2.814647 1.029673 -3.953104 0
M  V30 20 C -3.908466 1.840367 -3.730821 0
M  V30 21 C -3.785050 3.160329 -3.355453 0
M  V30 22 C -2.506387 3.691287 -3.195596 0
M  V30 23 C -1.388023 2.904623 -3.410840 0
M  V30 24 C -1.551130 1.577759 -3.788588 0
M  V30 25 N 0.705010 -1.493129 2.366471 0
M  V30 26 C 0.701491 -2.022522 3.611542 0
M  V30 27 C -0.284870 -2.716483 4.317912 0
M  V30 28 C 0.033746 -3.132343 5.597547 0
M  V30 29 O -0.929471 -3.820290 6.311344 0
M  V30 30 C -2.213769 -4.109105 5.783809 0
M  V30 31 H 3.544259 -3.051887 7.579985 0
M  V30 32 H 2.585405 -2.357462 8.938598 0
M  V30 33 H 2.788631 -4.172898 8.759717 0
M  V30 34 H 3.144625 -2.005495 5.871941 0
M  V30 35 H 3.723597 -0.731268 3.411687 0
M  V30 36 H 0.641617 -0.426200 -0.203649 0
M  V30 37 H 2.818640 1.659867 -0.723892 0
M  V30 38 H 3.373741 0.122503 -1.430479 0
M  V30 39 H -0.100641 0.057137 -2.030934 0
M  V30 40 H 0.333127 1.378033 -4.745220 0
M  V30 41 H -0.689475 -0.459680 -5.744525 0
M  V30 42 H 0.312368 -1.188220 -4.463679 0
M  V30 43 H -1.817171 -2.217928 -4.288941 0
M  V30 44 H -1.588183 -1.059295 -2.882605 0
M  V30 45 H -3.917337 -0.812526 -3.950789 0
M  V30 46 H -3.082369 -0.434658 -5.475231 0
M  V30 47 H -4.928057 1.457985 -3.845746 0
M  V30 48 H -4.587523 3.856659 -3.163078 0
M  V30 49 H -2.344650 4.724259 -2.900921 0
M  V30 50 H -0.399753 3.352607 -3.276809 0
M  V30 51 H -0.077542 -1.500932 1.647158 0
M  V30 52 H -1.232028 -2.902254 3.862898 0
M  V30 53 H -2.840728 -4.650316 6.502065 0
M  V30 54 H -2.178520 -4.631392 4.805979 0
M  V30 55 H -2.704874 -3.097751 5.677716 0
M  V30 END ATOM
M  V30 BEGIN BOND
M  V30 1 1 1 2
M  V30 2 1 2 3
M  V30 3 2 3 4
M  V30 4 1 4 5
M  V30 5 1 5 6
M  V30 6 2 6 7
M  V30 7 1 7 8
M  V30 8 2 8 9
M  V30 9 1 8 10
M  V30 10 1 10 11
M  V30 11 1 11 12
M  V30 12 2 12 13
M  V30 13 1 12 14
M  V30 14 1 14 15
M  V30 15 1 15 16
M  V30 16 1 16 17
M  V30 17 1 17 18
M  V30 18 1 18 19
M  V30 19 2 19 20
M  V30 20 1 20 21
M  V30 21 2 21 22
M  V30 22 1 22 23
M  V30 23 2 23 24
M  V30 24 1 7 25
M  V30 25 1 25 26
M  V30 26 1 26 27
M  V30 27 2 27 28
M  V30 28 1 28 29
M  V30 29 1 29 30
M  V30 30 1 28 3
M  V30 31 2 26 5
M  V30 32 1 24 15
M  V30 33 1 24 19
M  V30 34 1 1 31
M  V30 35 1 1 32
M  V30 36 1 1 33
M  V30 37 1 4 34
M  V30 38 1 6 35
M  V30 39 1 10 36
M  V30 40 1 11 37
M  V30 41 1 11 38
M  V30 42 1 14 39
M  V30 43 1 15 40
M  V30 44 1 16 41
M  V30 45 1 16 42
M  V30 46 1 17 43
M  V30 47 1 17 44
M  V30 48 1 18 45
M  V30 49 1 18 46
M  V30 50 1 20 47
M  V30 51 1 21 48
M  V30 52 1 22 49
M  V30 53 1 23 50
M  V30 54 1 25 51
M  V30 55 1 27 52
M  V30 56 1 30 53
M  V30 57 1 30 54
M  V30 58 1 30 55
M  V30 END BOND
M  V30 END CTAB
M  END
>  <Dataset>  (557) 
ChEMBL_Kinases

>  <Ligand_Instance>  (557) 
nan

>  <PDB_ID>  (557) 
nan

>  <Standardized_SMILES>  (557) 
COc1cc2cc(C(=O)NCC(=O)NC3CCCc4ccccc43)[nH]c2cc1OC

>  <Name>  (557) 
nan

>  <Pocket>  (557) 
nan

>  <ATP_Site>  (557) 
nan

>  <Peripheral>  (557) 
nan

>  <Num_H_Atoms_ProtBoundConf>  (557) 
nan

>  <Num_Resolved_Atoms>  (557) 
nan

>  <Num_Not_Resolved_Atoms>  (557) 
nan

$$$$
CHEMBL4446411
     RDKit          3D

  0  0  0  0  0  0  0  0  0  0999 V3000
M  V30 BEGIN CTAB
M  V30 COUNTS 56 61 0 0 0
M  V30 BEGIN ATOM
M  V30 1 C 6.578962 -1.548877 1.462145 0
M  V30 2 C 5.794754 -2.045232 0.266182 0 CFG=1
M  V30 3 N 5.462403 -3.437448 0.434489 0
M  V30 4 C 4.054787 -3.642625 0.432147 0
M  V30 5 O 3.402575 -4.710697 0.554928 0
M  V30 6 C 3.518868 -2.299486 0.250331 0
M  V30 7 C 2.337819 -1.602671 0.137997 0
M  V30 8 C 2.519108 -0.254674 -0.029694 0
M  V30 9 C 1.659438 0.903576 -0.199368 0
M  V30 10 C 2.250047 2.130683 -0.375118 0
M  V30 11 C 1.522525 3.297627 -0.547857 0
M  V30 12 C 0.153980 3.168200 -0.534971 0
M  V30 13 C -0.415342 1.921345 -0.356043 0
M  V30 14 C -1.785742 1.877298 -0.353854 0
M  V30 15 O -2.451486 2.950192 -0.512996 0
M  V30 16 N -2.464455 0.730359 -0.187974 0
M  V30 17 C -3.914537 0.826862 -0.208489 0
M  V30 18 C -4.485283 1.083573 1.168078 0
M  V30 19 O -4.040995 2.260629 1.772535 0
M  V30 20 C -5.998871 0.956620 1.243091 0
M  V30 21 C -5.055597 0.035504 2.018590 0
M  V30 22 C -1.731049 -0.404956 -0.019308 0
M  V30 23 N -2.486305 -1.632227 0.152008 0
M  V30 24 C -2.212529 -3.020217 0.370523 0
M  V30 25 C -3.411952 -3.939628 0.419210 0
M  V30 26 C -1.052354 -3.569525 -0.440734 0
M  V30 27 C -0.970541 -3.474675 1.040987 0
M  V30 28 N -0.365144 -0.400363 -0.015906 0
M  V30 29 C 0.293633 0.755745 -0.183439 0
M  V30 30 N 3.863394 -0.152613 -0.015838 0
M  V30 31 C 4.492069 -1.330390 0.146602 0
M  V30 32 H 6.455033 -0.469453 1.638663 0
M  V30 33 H 6.288092 -2.150306 2.347886 0
M  V30 34 H 7.671781 -1.743274 1.305639 0
M  V30 35 H 6.355104 -1.824801 -0.652409 0
M  V30 36 H 6.193535 -4.173753 0.541614 0
M  V30 37 H 1.363479 -2.016181 0.168356 0
M  V30 38 H 3.317854 2.297652 -0.394916 0
M  V30 39 H 1.962094 4.257068 -0.685388 0
M  V30 40 H -0.445049 4.078108 -0.669929 0
M  V30 41 H -4.424719 0.021875 -0.740644 0
M  V30 42 H -4.194941 1.757588 -0.797371 0
M  V30 43 H -4.443703 2.385141 2.652366 0
M  V30 44 H -6.523883 0.539865 0.361099 0
M  V30 45 H -6.582284 1.621221 1.889675 0
M  V30 46 H -5.174679 -1.014994 1.754645 0
M  V30 47 H -4.950169 0.205812 3.113341 0
M  V30 48 H -3.534986 -1.509472 0.110008 0
M  V30 49 H -3.383590 -4.645877 1.246112 0
M  V30 50 H -3.532836 -4.470214 -0.547534 0
M  V30 51 H -4.367798 -3.355318 0.560709 0
M  V30 52 H -1.184417 -4.559039 -0.935312 0
M  V30 53 H -0.439527 -2.890494 -1.026370 0
M  V30 54 H -1.047088 -4.482494 1.542409 0
M  V30 55 H -0.312023 -2.794805 1.563291 0
M  V30 56 H 4.496045 0.698369 -0.111349 0
M  V30 END ATOM
M  V30 BEGIN BOND
M  V30 1 1 1 2
M  V30 2 1 2 3
M  V30 3 1 3 4
M  V30 4 2 4 5
M  V30 5 1 4 6
M  V30 6 1 6 7
M  V30 7 2 7 8
M  V30 8 1 8 9
M  V30 9 2 9 10
M  V30 10 1 10 11
M  V30 11 2 11 12
M  V30 12 1 12 13
M  V30 13 1 13 14
M  V30 14 2 14 15
M  V30 15 1 14 16
M  V30 16 1 16 17
M  V30 17 1 17 18
M  V30 18 1 18 19
M  V30 19 1 18 20
M  V30 20 1 20 21
M  V30 21 1 16 22
M  V30 22 1 22 23
M  V30 23 1 23 24
M  V30 24 1 24 25
M  V30 25 1 24 26
M  V30 26 1 26 27
M  V30 27 2 22 28
M  V30 28 1 28 29
M  V30 29 1 8 30
M  V30 30 1 30 31
M  V30 31 1 31 2
M  V30 32 2 31 6
M  V30 33 1 29 9
M  V30 34 2 29 13
M  V30 35 1 21 18
M  V30 36 1 27 24
M  V30 37 1 1 32
M  V30 38 1 1 33
M  V30 39 1 1 34
M  V30 40 1 2 35 CFG=3
M  V30 41 1 3 36
M  V30 42 1 7 37
M  V30 43 1 10 38
M  V30 44 1 11 39
M  V30 45 1 12 40
M  V30 46 1 17 41
M  V30 47 1 17 42
M  V30 48 1 19 43
M  V30 49 1 20 44
M  V30 50 1 20 45
M  V30 51 1 21 46
M  V30 52 1 21 47
M  V30 53 1 23 48
M  V30 54 1 25 49
M  V30 55 1 25 50
M  V30 56 1 25 51
M  V30 57 1 26 52
M  V30 58 1 26 53
M  V30 59 1 27 54
M  V30 60 1 27 55
M  V30 61 1 30 56
M  V30 END BOND
M  V30 END CTAB
M  END
>  <Dataset>  (558) 
ChEMBL_Kinases

>  <Ligand_Instance>  (558) 
nan

>  <PDB_ID>  (558) 
nan

>  <Standardized_SMILES>  (558) 
C[C@H]1NC(=O)c2cc(-c3cccc4c(=O)n(CC5(O)CC5)c(NC5(C)CC5)nc34)[nH]c21

>  <Name>  (558) 
nan

>  <Pocket>  (558) 
nan

>  <ATP_Site>  (558) 
nan

>  <Peripheral>  (558) 
nan

>  <Num_H_Atoms_ProtBoundConf>  (558) 
nan

>  <Num_Resolved_Atoms>  (558) 
nan

>  <Num_Not_Resolved_Atoms>  (558) 
nan

$$$$
CHEMBL3719096
     RDKit          3D

  0  0  0  0  0  0  0  0  0  0999 V3000
M  V30 BEGIN CTAB
M  V30 COUNTS 55 58 0 0 0
M  V30 BEGIN ATOM
M  V30 1 C 2.027950 0.222733 4.852623 0
M  V30 2 C 2.642206 -0.762206 3.900903 0
M  V30 3 N 2.541442 -0.332432 2.521180 0
M  V30 4 C 3.153109 0.898316 2.145773 0
M  V30 5 O 3.785322 1.655977 2.928331 0
M  V30 6 C 3.059229 1.337605 0.772634 0
M  V30 7 C 1.863101 1.641404 0.162396 0
M  V30 8 C 1.713254 2.065180 -1.141821 0
M  V30 9 N 0.459288 2.375382 -1.738110 0
M  V30 10 C -0.801380 2.288527 -1.070124 0
M  V30 11 C -1.869603 2.766381 -2.051611 0
M  V30 12 C -0.923971 3.090441 0.181298 0
M  V30 13 C -1.187894 0.865351 -0.753826 0
M  V30 14 O -2.288451 0.705968 -0.136284 0
M  V30 15 N -0.420723 -0.245391 -1.096424 0
M  V30 16 C -1.005878 -1.498508 -0.684040 0
M  V30 17 N -1.997218 -1.875232 -0.118237 0
M  V30 18 C -2.296252 -3.132888 0.139468 0
M  V30 19 C -3.427409 -3.638134 0.789651 0
M  V30 20 C -4.523809 -2.787619 1.318511 0
M  V30 21 F -5.524383 -3.531900 1.914077 0
M  V30 22 F -4.070649 -1.846925 2.239069 0
M  V30 23 F -5.089649 -2.118202 0.253902 0
M  V30 24 C -3.547760 -4.993602 0.957266 0
M  V30 25 C -2.652305 -5.954229 0.545239 0
M  V30 26 N -2.454710 -7.281793 0.538864 0
M  V30 27 N -1.318597 -7.608865 -0.051033 0
M  V30 28 C -0.695008 -6.494288 -0.472856 0
M  V30 29 C -1.533441 -5.469652 -0.096868 0
M  V30 30 C -1.382831 -4.101398 -0.281714 0
M  V30 31 S -0.112957 -3.065458 -1.048567 0
M  V30 32 C 2.908787 2.164435 -1.815323 0
M  V30 33 C 4.132944 1.879446 -1.273538 0
M  V30 34 C 4.219459 1.460181 0.035776 0
M  V30 35 Cl 5.766941 1.089983 0.754318 0
M  V30 36 H 2.043398 1.258406 4.443905 0
M  V30 37 H 2.571854 0.218952 5.798438 0
M  V30 38 H 0.960553 -0.097839 4.990666 0
M  V30 39 H 3.726947 -0.828800 4.151108 0
M  V30 40 H 2.170226 -1.762911 4.023718 0
M  V30 41 H 2.031236 -0.909386 1.809000 0
M  V30 42 H 0.991365 1.523625 0.791576 0
M  V30 43 H 0.526857 2.688241 -2.754293 0
M  V30 44 H -2.827373 2.198634 -1.912052 0
M  V30 45 H -1.549848 2.573135 -3.095965 0
M  V30 46 H -2.029381 3.859897 -1.987879 0
M  V30 47 H -1.722618 3.843643 0.076042 0
M  V30 48 H -0.006373 3.665732 0.427277 0
M  V30 49 H -1.190168 2.467648 1.068930 0
M  V30 50 H 0.464890 -0.160134 -1.593212 0
M  V30 51 H -4.435224 -5.404094 1.468626 0
M  V30 52 H -3.172953 -7.921337 0.975854 0
M  V30 53 H 0.252199 -6.383878 -0.993817 0
M  V30 54 H 2.927267 2.486835 -2.848104 0
M  V30 55 H 5.064074 1.974107 -1.853473 0
M  V30 END ATOM
M  V30 BEGIN BOND
M  V30 1 1 1 2
M  V30 2 1 2 3
M  V30 3 1 3 4
M  V30 4 2 4 5
M  V30 5 1 4 6
M  V30 6 2 6 7
M  V30 7 1 7 8
M  V30 8 1 8 9
M  V30 9 1 9 10
M  V30 10 1 10 11
M  V30 11 1 10 12
M  V30 12 1 10 13
M  V30 13 2 13 14
M  V30 14 1 13 15
M  V30 15 1 15 16
M  V30 16 2 16 17
M  V30 17 1 17 18
M  V30 18 2 18 19
M  V30 19 1 19 20
M  V30 20 1 20 21
M  V30 21 1 20 22
M  V30 22 1 20 23
M  V30 23 1 19 24
M  V30 24 2 24 25
M  V30 25 1 25 26
M  V30 26 1 26 27
M  V30 27 2 27 28
M  V30 28 1 28 29
M  V30 29 2 29 30
M  V30 30 1 30 31
M  V30 31 2 8 32
M  V30 32 1 32 33
M  V30 33 2 33 34
M  V30 34 1 34 35
M  V30 35 1 34 6
M  V30 36 1 31 16
M  V30 37 1 30 18
M  V30 38 1 29 25
M  V30 39 1 1 36
M  V30 40 1 1 37
M  V30 41 1 1 38
M  V30 42 1 2 39
M  V30 43 1 2 40
M  V30 44 1 3 41
M  V30 45 1 7 42
M  V30 46 1 9 43
M  V30 47 1 11 44
M  V30 48 1 11 45
M  V30 49 1 11 46
M  V30 50 1 12 47
M  V30 51 1 12 48
M  V30 52 1 12 49
M  V30 53 1 15 50
M  V30 54 1 24 51
M  V30 55 1 26 52
M  V30 56 1 28 53
M  V30 57 1 32 54
M  V30 58 1 33 55
M  V30 END BOND
M  V30 END CTAB
M  END
>  <Dataset>  (559) 
ChEMBL_Kinases

>  <Ligand_Instance>  (559) 
nan

>  <PDB_ID>  (559) 
nan

>  <Standardized_SMILES>  (559) 
CCNC(=O)c1cc(NC(C)(C)C(=O)Nc2nc3c(C(F)(F)F)cc4[nH]ncc4c3s2)ccc1Cl

>  <Name>  (559) 
nan

>  <Pocket>  (559) 
nan

>  <ATP_Site>  (559) 
nan

>  <Peripheral>  (559) 
nan

>  <Num_H_Atoms_ProtBoundConf>  (559) 
nan

>  <Num_Resolved_Atoms>  (559) 
nan

>  <Num_Not_Resolved_Atoms>  (559) 
nan

$$$$
CHEMBL2442295
     RDKit          3D

  0  0  0  0  0  0  0  0  0  0999 V3000
M  V30 BEGIN CTAB
M  V30 COUNTS 44 48 0 0 0
M  V30 BEGIN ATOM
M  V30 1 C -0.384799 -6.452177 1.767397 0
M  V30 2 C 0.810295 -6.601313 1.087813 0
M  V30 3 C 1.336952 -5.610454 0.265591 0
M  V30 4 C 0.600376 -4.443888 0.152768 0
M  V30 5 C 1.110347 -3.452767 -0.659084 0
M  V30 6 C 0.377008 -2.297657 -0.768310 0
M  V30 7 C 0.814187 -1.174392 -1.599536 0
M  V30 8 C 1.322905 -1.149854 -2.878296 0
M  V30 9 N 1.572652 0.126663 -3.198789 0
M  V30 10 N 1.256368 0.933351 -2.203979 0
M  V30 11 C 1.332051 2.275526 -2.069032 0
M  V30 12 C 0.927697 2.910564 -0.893700 0
M  V30 13 C 0.456818 2.070747 0.091327 0
M  V30 14 N 0.014492 2.596954 1.334933 0
M  V30 15 C -0.016971 3.991918 1.730897 0
M  V30 16 C 1.177484 4.146775 2.683110 0
M  V30 17 N 1.141260 3.099758 3.654067 0
M  V30 18 C -0.131705 2.405171 3.737606 0
M  V30 19 C -0.481588 1.754807 2.407287 0
M  V30 20 N 0.390102 0.737067 -0.064159 0
M  V30 21 C 0.792133 0.152751 -1.221320 0
M  V30 22 C -0.816455 -2.101283 -0.113141 0
M  V30 23 C -1.315787 -3.117822 0.704576 0
M  V30 24 C -0.591541 -4.282810 0.824427 0
M  V30 25 C -1.107386 -5.273886 1.639934 0
M  V30 26 H -0.662968 -7.308957 2.366591 0
M  V30 27 H 1.403455 -7.496412 1.156697 0
M  V30 28 H 2.253506 -5.711868 -0.262040 0
M  V30 29 H 2.026837 -3.516571 -1.205307 0
M  V30 30 H 1.464589 -2.064839 -3.458553 0
M  V30 31 H 1.716837 2.887722 -2.891861 0
M  V30 32 H 0.989111 3.983911 -0.787603 0
M  V30 33 H -0.963948 4.253686 2.261709 0
M  V30 34 H 0.132604 4.694975 0.911491 0
M  V30 35 H 1.198405 5.162791 3.121198 0
M  V30 36 H 2.086540 4.017159 2.058974 0
M  V30 37 H 1.385860 3.474099 4.574293 0
M  V30 38 H -0.932604 3.078919 4.103283 0
M  V30 39 H -0.006707 1.607350 4.496359 0
M  V30 40 H -0.010028 0.745813 2.403155 0
M  V30 41 H -1.580798 1.658039 2.391473 0
M  V30 42 H -1.396303 -1.176235 -0.205301 0
M  V30 43 H -2.260673 -2.980697 1.232332 0
M  V30 44 H -2.032724 -5.223455 2.198310 0
M  V30 END ATOM
M  V30 BEGIN BOND
M  V30 1 2 1 2
M  V30 2 1 2 3
M  V30 3 2 3 4
M  V30 4 1 4 5
M  V30 5 2 5 6
M  V30 6 1 6 7
M  V30 7 1 7 8
M  V30 8 2 8 9
M  V30 9 1 9 10
M  V30 10 1 10 11
M  V30 11 2 11 12
M  V30 12 1 12 13
M  V30 13 1 13 14
M  V30 14 1 14 15
M  V30 15 1 15 16
M  V30 16 1 16 17
M  V30 17 1 17 18
M  V30 18 1 18 19
M  V30 19 2 13 20
M  V30 20 1 20 21
M  V30 21 1 6 22
M  V30 22 2 22 23
M  V30 23 1 23 24
M  V30 24 2 24 25
M  V30 25 1 25 1
M  V30 26 1 24 4
M  V30 27 2 21 7
M  V30 28 1 21 10
M  V30 29 1 19 14
M  V30 30 1 1 26
M  V30 31 1 2 27
M  V30 32 1 3 28
M  V30 33 1 5 29
M  V30 34 1 8 30
M  V30 35 1 11 31
M  V30 36 1 12 32
M  V30 37 1 15 33
M  V30 38 1 15 34
M  V30 39 1 16 35
M  V30 40 1 16 36
M  V30 41 1 17 37
M  V30 42 1 18 38
M  V30 43 1 18 39
M  V30 44 1 19 40
M  V30 45 1 19 41
M  V30 46 1 22 42
M  V30 47 1 23 43
M  V30 48 1 25 44
M  V30 END BOND
M  V30 END CTAB
M  END
>  <Dataset>  (560) 
ChEMBL_Kinases

>  <Ligand_Instance>  (560) 
nan

>  <PDB_ID>  (560) 
nan

>  <Standardized_SMILES>  (560) 
c1ccc2cc(-c3cnn4ccc(N5CCNCC5)nc34)ccc2c1

>  <Name>  (560) 
nan

>  <Pocket>  (560) 
nan

>  <ATP_Site>  (560) 
nan

>  <Peripheral>  (560) 
nan

>  <Num_H_Atoms_ProtBoundConf>  (560) 
nan

>  <Num_Resolved_Atoms>  (560) 
nan

>  <Num_Not_Resolved_Atoms>  (560) 
nan

$$$$
CHEMBL2442296
     RDKit          3D

  0  0  0  0  0  0  0  0  0  0999 V3000
M  V30 BEGIN CTAB
M  V30 COUNTS 40 43 0 0 0
M  V30 BEGIN ATOM
M  V30 1 N 0.301219 -4.558930 2.900116 0
M  V30 2 C 0.598778 -4.680784 1.488482 0
M  V30 3 C 0.658751 -3.365928 0.786403 0
M  V30 4 N 0.958796 -3.542987 -0.620466 0
M  V30 5 C 1.050080 -2.373547 -1.428883 0
M  V30 6 C 1.328977 -2.405917 -2.778877 0
M  V30 7 C 1.417624 -1.267593 -3.564583 0
M  V30 8 N 1.216723 -0.086678 -2.951506 0
M  V30 9 N 1.232847 1.146463 -3.412894 0
M  V30 10 C 0.974883 2.040925 -2.432533 0
M  V30 11 C 0.779317 1.334429 -1.259536 0
M  V30 12 C 0.468666 1.729131 0.133003 0
M  V30 13 C 1.123032 2.773091 0.757370 0
M  V30 14 C 0.776007 3.086040 2.070237 0
M  V30 15 C -0.199116 2.364414 2.722102 0
M  V30 16 C -0.565793 2.655485 4.034187 0
M  V30 17 C -1.557520 1.907609 4.670663 0
M  V30 18 C -2.198247 0.863223 4.017222 0
M  V30 19 C -1.852954 0.548067 2.703760 0
M  V30 20 C -0.866964 1.316025 2.117271 0
M  V30 21 C -0.521006 0.998497 0.797926 0
M  V30 22 C 0.942994 -0.002547 -1.642772 0
M  V30 23 N 0.868721 -1.135904 -0.928719 0
M  V30 24 H 1.072707 -4.026007 3.361530 0
M  V30 25 H -0.637027 -4.137064 3.076659 0
M  V30 26 H -0.144645 -5.324554 0.985874 0
M  V30 27 H 1.572953 -5.178789 1.388808 0
M  V30 28 H -0.246417 -2.741348 0.937660 0
M  V30 29 H 1.516974 -2.784711 1.230253 0
M  V30 30 H 1.118558 -4.456767 -1.114755 0
M  V30 31 H 1.491316 -3.376214 -3.269279 0
M  V30 32 H 1.638717 -1.357350 -4.614846 0
M  V30 33 H 0.905835 3.117929 -2.430092 0
M  V30 34 H 1.881219 3.327851 0.238527 0
M  V30 35 H 1.264224 3.904508 2.611184 0
M  V30 36 H -0.045611 3.473282 4.507508 0
M  V30 37 H -1.827588 2.158523 5.706407 0
M  V30 38 H -2.974181 0.272301 4.504233 0
M  V30 39 H -2.318920 -0.260547 2.135423 0
M  V30 40 H -1.000449 0.197927 0.272759 0
M  V30 END ATOM
M  V30 BEGIN BOND
M  V30 1 1 1 2
M  V30 2 1 2 3
M  V30 3 1 3 4
M  V30 4 1 4 5
M  V30 5 1 5 6
M  V30 6 2 6 7
M  V30 7 1 7 8
M  V30 8 1 8 9
M  V30 9 2 9 10
M  V30 10 1 10 11
M  V30 11 1 11 12
M  V30 12 2 12 13
M  V30 13 1 13 14
M  V30 14 2 14 15
M  V30 15 1 15 16
M  V30 16 2 16 17
M  V30 17 1 17 18
M  V30 18 2 18 19
M  V30 19 1 19 20
M  V30 20 2 20 21
M  V30 21 2 11 22
M  V30 22 1 22 23
M  V30 23 2 23 5
M  V30 24 1 22 8
M  V30 25 1 21 12
M  V30 26 1 20 15
M  V30 27 1 1 24
M  V30 28 1 1 25
M  V30 29 1 2 26
M  V30 30 1 2 27
M  V30 31 1 3 28
M  V30 32 1 3 29
M  V30 33 1 4 30
M  V30 34 1 6 31
M  V30 35 1 7 32
M  V30 36 1 10 33
M  V30 37 1 13 34
M  V30 38 1 14 35
M  V30 39 1 16 36
M  V30 40 1 17 37
M  V30 41 1 18 38
M  V30 42 1 19 39
M  V30 43 1 21 40
M  V30 END BOND
M  V30 END CTAB
M  END
>  <Dataset>  (561) 
ChEMBL_Kinases

>  <Ligand_Instance>  (561) 
nan

>  <PDB_ID>  (561) 
nan

>  <Standardized_SMILES>  (561) 
NCCNc1ccn2ncc(-c3ccc4ccccc4c3)c2n1

>  <Name>  (561) 
nan

>  <Pocket>  (561) 
nan

>  <ATP_Site>  (561) 
nan

>  <Peripheral>  (561) 
nan

>  <Num_H_Atoms_ProtBoundConf>  (561) 
nan

>  <Num_Resolved_Atoms>  (561) 
nan

>  <Num_Not_Resolved_Atoms>  (561) 
nan

$$$$
CHEMBL2442303
     RDKit          3D

  0  0  0  0  0  0  0  0  0  0999 V3000
M  V30 BEGIN CTAB
M  V30 COUNTS 36 39 0 0 0
M  V30 BEGIN ATOM
M  V30 1 N 1.150803 -5.719517 1.216055 0
M  V30 2 C 0.436553 -4.773693 2.045015 0
M  V30 3 C 1.285824 -3.601351 2.414392 0
M  V30 4 N 1.792329 -2.828830 1.329393 0
M  V30 5 C 1.363819 -2.115169 0.201517 0
M  V30 6 C 1.407417 -2.739784 -1.051880 0
M  V30 7 C 1.008103 -2.149769 -2.256162 0
M  V30 8 N 0.562053 -0.890517 -2.117142 0
M  V30 9 N 0.122511 -0.109744 -3.114454 0
M  V30 10 C -0.239815 1.065573 -2.610296 0
M  V30 11 C -0.013691 1.003416 -1.254044 0
M  V30 12 C -0.286158 2.087316 -0.283670 0
M  V30 13 C 0.127555 3.349682 -0.565909 0
M  V30 14 C -0.168357 4.312643 0.372442 0
M  V30 15 C -0.858294 3.918456 1.518887 0
M  V30 16 S -1.429650 4.877442 2.966613 0
M  V30 17 C -2.183784 3.299079 3.764344 0
M  V30 18 N -1.925763 2.494531 2.963925 0
M  V30 19 C -1.285699 2.632579 1.817383 0
M  V30 20 C -0.978660 1.661826 0.855313 0
M  V30 21 C 0.495658 -0.239089 -0.944295 0
M  V30 22 N 0.893618 -0.842466 0.212556 0
M  V30 23 H 0.483607 -6.096426 0.475015 0
M  V30 24 H 1.977389 -5.311576 0.733837 0
M  V30 25 H -0.557835 -4.518251 1.668971 0
M  V30 26 H 0.247708 -5.325504 3.012839 0
M  V30 27 H 2.185088 -4.032081 2.947732 0
M  V30 28 H 0.802852 -2.968885 3.185493 0
M  V30 29 H 2.830813 -2.637190 1.191159 0
M  V30 30 H 1.779821 -3.756176 -1.090666 0
M  V30 31 H 1.081409 -2.716081 -3.172183 0
M  V30 32 H -0.626675 1.869916 -3.203825 0
M  V30 33 H 0.656309 3.645458 -1.445052 0
M  V30 34 H 0.080482 5.357572 0.317496 0
M  V30 35 H -2.741683 3.050056 4.716795 0
M  V30 36 H -1.261989 0.619682 0.977391 0
M  V30 END ATOM
M  V30 BEGIN BOND
M  V30 1 1 1 2
M  V30 2 1 2 3
M  V30 3 1 3 4
M  V30 4 1 4 5
M  V30 5 1 5 6
M  V30 6 2 6 7
M  V30 7 1 7 8
M  V30 8 1 8 9
M  V30 9 2 9 10
M  V30 10 1 10 11
M  V30 11 1 11 12
M  V30 12 2 12 13
M  V30 13 1 13 14
M  V30 14 2 14 15
M  V30 15 1 15 16
M  V30 16 1 16 17
M  V30 17 2 17 18
M  V30 18 1 18 19
M  V30 19 2 19 20
M  V30 20 2 11 21
M  V30 21 1 21 22
M  V30 22 2 22 5
M  V30 23 1 21 8
M  V30 24 1 20 12
M  V30 25 1 19 15
M  V30 26 1 1 23
M  V30 27 1 1 24
M  V30 28 1 2 25
M  V30 29 1 2 26
M  V30 30 1 3 27
M  V30 31 1 3 28
M  V30 32 1 4 29
M  V30 33 1 6 30
M  V30 34 1 7 31
M  V30 35 1 10 32
M  V30 36 1 13 33
M  V30 37 1 14 34
M  V30 38 1 17 35
M  V30 39 1 20 36
M  V30 END BOND
M  V30 END CTAB
M  END
>  <Dataset>  (562) 
ChEMBL_Kinases

>  <Ligand_Instance>  (562) 
nan

>  <PDB_ID>  (562) 
nan

>  <Standardized_SMILES>  (562) 
NCCNc1ccn2ncc(-c3ccc4scnc4c3)c2n1

>  <Name>  (562) 
nan

>  <Pocket>  (562) 
nan

>  <ATP_Site>  (562) 
nan

>  <Peripheral>  (562) 
nan

>  <Num_H_Atoms_ProtBoundConf>  (562) 
nan

>  <Num_Resolved_Atoms>  (562) 
nan

>  <Num_Not_Resolved_Atoms>  (562) 
nan

$$$$
CHEMBL4446409
     RDKit          3D

  0  0  0  0  0  0  0  0  0  0999 V3000
M  V30 BEGIN CTAB
M  V30 COUNTS 52 55 0 0 0
M  V30 BEGIN ATOM
M  V30 1 C 2.795536 1.540065 4.281838 0
M  V30 2 N 3.206310 2.090936 3.006378 0
M  V30 3 C 3.268513 1.417726 1.848827 0
M  V30 4 C 3.683177 2.238125 0.823362 0
M  V30 5 N 3.866830 1.938614 -0.574154 0
M  V30 6 C 3.638351 0.565100 -0.935030 0
M  V30 7 N 4.611754 -0.327298 -1.285629 0
M  V30 8 C 4.244005 -1.608123 -1.582061 0
M  V30 9 C 2.911320 -2.039336 -1.540306 0
M  V30 10 C 1.964455 -1.108166 -1.182794 0
M  V30 11 C 0.540443 -1.408784 -1.063696 0
M  V30 12 C -0.301696 -0.388680 -0.667284 0
M  V30 13 C -1.645952 -0.655989 -0.525232 0
M  V30 14 N -2.239362 -1.852720 -0.740974 0
M  V30 15 C -3.608397 -2.206408 -0.603361 0 CFG=2
M  V30 16 C -4.597260 -1.078678 -0.585969 0
M  V30 17 O -4.374960 -0.207086 0.470610 0
M  V30 18 C -3.835887 -3.017601 0.645392 0
M  V30 19 C -3.537935 -2.447923 1.888211 0
M  V30 20 C -3.747367 -3.144658 3.073394 0
M  V30 21 C -4.266587 -4.435838 2.983423 0
M  V30 22 Cl -4.553833 -5.367063 4.437954 0
M  V30 23 C -4.561896 -5.001770 1.761078 0
M  V30 24 F -5.066739 -6.255048 1.693747 0
M  V30 25 C -4.354075 -4.310583 0.578216 0
M  V30 26 C -1.369666 -2.799374 -1.123194 0
M  V30 27 O -1.790549 -3.967673 -1.359483 0
M  V30 28 C -0.013145 -2.650445 -1.299102 0
M  V30 29 N 2.365481 0.140997 -0.899108 0
M  V30 30 C 3.873395 3.473776 1.445268 0
M  V30 31 C 4.316396 4.729201 0.843705 0
M  V30 32 F 5.574747 4.552929 0.298769 0
M  V30 33 F 3.442575 5.264225 -0.069645 0
M  V30 34 F 4.446836 5.712306 1.837046 0
M  V30 35 N 3.568746 3.303419 2.740017 0
M  V30 36 H 3.099702 0.481887 4.312985 0
M  V30 37 H 1.668735 1.603935 4.351317 0
M  V30 38 H 3.234222 2.109990 5.110686 0
M  V30 39 H 3.040240 0.367801 1.661939 0
M  V30 40 H 4.140538 2.702483 -1.204659 0
M  V30 41 H 5.003809 -2.321607 -1.862664 0
M  V30 42 H 2.621998 -3.053106 -1.774796 0
M  V30 43 H 0.070102 0.622149 -0.467135 0
M  V30 44 H -2.262255 0.171424 -0.217997 0
M  V30 45 H -3.895127 -2.852274 -1.468373 0
M  V30 46 H -4.449892 -0.519244 -1.559496 0
M  V30 47 H -5.644430 -1.433452 -0.631218 0
M  V30 48 H -5.137842 -0.162471 1.090388 0
M  V30 49 H -3.132853 -1.454732 2.011552 0
M  V30 50 H -3.510099 -2.694680 4.036923 0
M  V30 51 H -4.571791 -4.705747 -0.417036 0
M  V30 52 H 0.635719 -3.447074 -1.608938 0
M  V30 END ATOM
M  V30 BEGIN BOND
M  V30 1 1 1 2
M  V30 2 1 2 3
M  V30 3 2 3 4
M  V30 4 1 4 5
M  V30 5 1 5 6
M  V30 6 2 6 7
M  V30 7 1 7 8
M  V30 8 2 8 9
M  V30 9 1 9 10
M  V30 10 1 10 11
M  V30 11 1 11 12
M  V30 12 2 12 13
M  V30 13 1 13 14
M  V30 14 1 14 15
M  V30 15 1 15 16
M  V30 16 1 16 17
M  V30 17 1 15 18
M  V30 18 2 18 19
M  V30 19 1 19 20
M  V30 20 2 20 21
M  V30 21 1 21 22
M  V30 22 1 21 23
M  V30 23 1 23 24
M  V30 24 2 23 25
M  V30 25 1 14 26
M  V30 26 2 26 27
M  V30 27 1 26 28
M  V30 28 2 10 29
M  V30 29 1 4 30
M  V30 30 1 30 31
M  V30 31 1 31 32
M  V30 32 1 31 33
M  V30 33 1 31 34
M  V30 34 2 30 35
M  V30 35 1 35 2
M  V30 36 1 29 6
M  V30 37 2 28 11
M  V30 38 1 25 18
M  V30 39 1 1 36
M  V30 40 1 1 37
M  V30 41 1 1 38
M  V30 42 1 3 39
M  V30 43 1 5 40
M  V30 44 1 8 41
M  V30 45 1 9 42
M  V30 46 1 12 43
M  V30 47 1 13 44
M  V30 48 1 15 45 CFG=3
M  V30 49 1 16 46
M  V30 50 1 16 47
M  V30 51 1 17 48
M  V30 52 1 19 49
M  V30 53 1 20 50
M  V30 54 1 25 51
M  V30 55 1 28 52
M  V30 END BOND
M  V30 END CTAB
M  END
>  <Dataset>  (563) 
ChEMBL_Kinases

>  <Ligand_Instance>  (563) 
nan

>  <PDB_ID>  (563) 
nan

>  <Standardized_SMILES>  (563) 
Cn1cc(Nc2nccc(-c3ccn([C@H](CO)c4ccc(Cl)c(F)c4)c(=O)c3)n2)c(C(F)(F)F)n1

>  <Name>  (563) 
nan

>  <Pocket>  (563) 
nan

>  <ATP_Site>  (563) 
nan

>  <Peripheral>  (563) 
nan

>  <Num_H_Atoms_ProtBoundConf>  (563) 
nan

>  <Num_Resolved_Atoms>  (563) 
nan

>  <Num_Not_Resolved_Atoms>  (563) 
nan

$$$$
CHEMBL4574792
     RDKit          3D

  0  0  0  0  0  0  0  0  0  0999 V3000
M  V30 BEGIN CTAB
M  V30 COUNTS 34 36 0 0 0
M  V30 BEGIN ATOM
M  V30 1 N -1.708612 -4.968670 4.529137 0
M  V30 2 C -2.210477 -4.550786 3.283804 0
M  V30 3 O -3.270020 -5.253198 3.173522 0
M  V30 4 C -1.719834 -3.581481 2.311369 0
M  V30 5 C -0.561417 -2.864522 2.518555 0
M  V30 6 C -0.151200 -1.957363 1.551475 0
M  V30 7 C -0.946958 -1.823692 0.411802 0
M  V30 8 C -0.442741 -0.846092 -0.557727 0
M  V30 9 C -0.707667 -1.081414 -1.910229 0
M  V30 10 N -0.264467 -0.212145 -2.836094 0
M  V30 11 C 0.437239 0.894088 -2.491897 0
M  V30 12 C 0.695350 1.118152 -1.139182 0
M  V30 13 C 1.457469 2.326751 -0.819529 0
M  V30 14 C 2.270669 2.255538 0.301178 0
M  V30 15 C 3.004067 3.392444 0.623521 0
M  V30 16 C 2.946888 4.558369 -0.120667 0
M  V30 17 N 2.135615 4.571745 -1.205850 0
M  V30 18 C 1.405923 3.496047 -1.558314 0
M  V30 19 C 0.268757 0.267952 -0.156120 0
M  V30 20 C -2.110176 -2.553343 0.219034 0
M  V30 21 C -2.511208 -3.455204 1.188375 0
M  V30 22 H -1.330347 -5.907128 4.769697 0
M  V30 23 H -1.668145 -4.333477 5.377245 0
M  V30 24 H 0.022690 -2.993396 3.404482 0
M  V30 25 H 0.757445 -1.396400 1.716332 0
M  V30 26 H -1.268539 -1.959154 -2.225100 0
M  V30 27 H 0.776867 1.569321 -3.256273 0
M  V30 28 H 2.372378 1.379982 0.938205 0
M  V30 29 H 3.669866 3.437967 1.480761 0
M  V30 30 H 3.520933 5.438585 0.136348 0
M  V30 31 H 0.740390 3.435279 -2.408092 0
M  V30 32 H 0.469739 0.444590 0.889228 0
M  V30 33 H -2.660587 -2.378739 -0.699778 0
M  V30 34 H -3.421497 -4.014091 1.019026 0
M  V30 END ATOM
M  V30 BEGIN BOND
M  V30 1 1 1 2
M  V30 2 2 2 3
M  V30 3 1 2 4
M  V30 4 2 4 5
M  V30 5 1 5 6
M  V30 6 2 6 7
M  V30 7 1 7 8
M  V30 8 2 8 9
M  V30 9 1 9 10
M  V30 10 2 10 11
M  V30 11 1 11 12
M  V30 12 1 12 13
M  V30 13 2 13 14
M  V30 14 1 14 15
M  V30 15 2 15 16
M  V30 16 1 16 17
M  V30 17 2 17 18
M  V30 18 2 12 19
M  V30 19 1 7 20
M  V30 20 2 20 21
M  V30 21 1 21 4
M  V30 22 1 19 8
M  V30 23 1 18 13
M  V30 24 1 1 22
M  V30 25 1 1 23
M  V30 26 1 5 24
M  V30 27 1 6 25
M  V30 28 1 9 26
M  V30 29 1 11 27
M  V30 30 1 14 28
M  V30 31 1 15 29
M  V30 32 1 16 30
M  V30 33 1 18 31
M  V30 34 1 19 32
M  V30 35 1 20 33
M  V30 36 1 21 34
M  V30 END BOND
M  V30 END CTAB
M  END
>  <Dataset>  (564) 
ChEMBL_Kinases

>  <Ligand_Instance>  (564) 
nan

>  <PDB_ID>  (564) 
nan

>  <Standardized_SMILES>  (564) 
NC(=O)c1ccc(-c2cncc(-c3cccnc3)c2)cc1

>  <Name>  (564) 
nan

>  <Pocket>  (564) 
nan

>  <ATP_Site>  (564) 
nan

>  <Peripheral>  (564) 
nan

>  <Num_H_Atoms_ProtBoundConf>  (564) 
nan

>  <Num_Resolved_Atoms>  (564) 
nan

>  <Num_Not_Resolved_Atoms>  (564) 
nan

$$$$
CHEMBL2442299
     RDKit          3D

  0  0  0  0  0  0  0  0  0  0999 V3000
M  V30 BEGIN CTAB
M  V30 COUNTS 43 46 0 0 0
M  V30 BEGIN ATOM
M  V30 1 N -1.490060 -6.165054 1.629423 0
M  V30 2 C -0.963510 -5.196125 0.687798 0
M  V30 3 C 0.273250 -4.518669 1.202355 0
M  V30 4 C 0.781995 -3.510313 0.171366 0
M  V30 5 N 1.986152 -2.836004 0.622954 0
M  V30 6 C 2.411999 -1.853524 -0.340897 0
M  V30 7 C 3.193612 -2.034560 -1.460422 0
M  V30 8 C 3.455815 -0.910050 -2.209025 0
M  V30 9 N 2.974680 0.293629 -1.863717 0
M  V30 10 N 3.085461 1.492505 -2.402850 0
M  V30 11 C 2.427011 2.426560 -1.703223 0
M  V30 12 C 1.827296 1.798128 -0.604638 0
M  V30 13 C 0.985415 2.253329 0.522778 0
M  V30 14 C 1.293659 3.379998 1.257199 0
M  V30 15 C 0.444792 3.717912 2.290627 0
M  V30 16 C -0.687033 2.970556 2.604500 0
M  V30 17 C -1.515063 3.336492 3.647011 0
M  V30 18 C -2.622192 2.557333 3.913143 0
M  V30 19 C -2.913592 1.420310 3.154781 0
M  V30 20 C -2.067654 1.056568 2.098957 0
M  V30 21 C -0.957364 1.844341 1.837727 0
M  V30 22 C -0.130143 1.452170 0.775017 0
M  V30 23 C 2.204912 0.457322 -0.756441 0
M  V30 24 N 1.923368 -0.624389 0.008087 0
M  V30 25 H -1.365939 -5.890276 2.628764 0
M  V30 26 H -2.433136 -6.486658 1.397241 0
M  V30 27 H -1.764926 -4.457048 0.466643 0
M  V30 28 H -0.747293 -5.765293 -0.247576 0
M  V30 29 H -0.046328 -3.952625 2.120431 0
M  V30 30 H 1.031539 -5.242745 1.507216 0
M  V30 31 H -0.020267 -2.832331 -0.114637 0
M  V30 32 H 1.102158 -4.102693 -0.732947 0
M  V30 33 H 2.580817 -2.916631 1.471630 0
M  V30 34 H 3.514166 -3.053502 -1.620842 0
M  V30 35 H 4.065838 -1.056483 -3.083969 0
M  V30 36 H 2.283311 3.490414 -1.818269 0
M  V30 37 H 2.180626 3.928742 0.977114 0
M  V30 38 H 0.707589 4.619336 2.866118 0
M  V30 39 H -1.296609 4.220420 4.244814 0
M  V30 40 H -3.318172 2.791867 4.725036 0
M  V30 41 H -3.771775 0.789148 3.336677 0
M  V30 42 H -2.294980 0.159663 1.499348 0
M  V30 43 H -0.354459 0.568847 0.183491 0
M  V30 END ATOM
M  V30 BEGIN BOND
M  V30 1 1 1 2
M  V30 2 1 2 3
M  V30 3 1 3 4
M  V30 4 1 4 5
M  V30 5 1 5 6
M  V30 6 1 6 7
M  V30 7 2 7 8
M  V30 8 1 8 9
M  V30 9 1 9 10
M  V30 10 2 10 11
M  V30 11 1 11 12
M  V30 12 1 12 13
M  V30 13 2 13 14
M  V30 14 1 14 15
M  V30 15 2 15 16
M  V30 16 1 16 17
M  V30 17 2 17 18
M  V30 18 1 18 19
M  V30 19 2 19 20
M  V30 20 1 20 21
M  V30 21 2 21 22
M  V30 22 2 12 23
M  V30 23 1 23 24
M  V30 24 2 24 6
M  V30 25 1 23 9
M  V30 26 1 22 13
M  V30 27 1 21 16
M  V30 28 1 1 25
M  V30 29 1 1 26
M  V30 30 1 2 27
M  V30 31 1 2 28
M  V30 32 1 3 29
M  V30 33 1 3 30
M  V30 34 1 4 31
M  V30 35 1 4 32
M  V30 36 1 5 33
M  V30 37 1 7 34
M  V30 38 1 8 35
M  V30 39 1 11 36
M  V30 40 1 14 37
M  V30 41 1 15 38
M  V30 42 1 17 39
M  V30 43 1 18 40
M  V30 44 1 19 41
M  V30 45 1 20 42
M  V30 46 1 22 43
M  V30 END BOND
M  V30 END CTAB
M  END
>  <Dataset>  (565) 
ChEMBL_Kinases

>  <Ligand_Instance>  (565) 
nan

>  <PDB_ID>  (565) 
nan

>  <Standardized_SMILES>  (565) 
NCCCNc1ccn2ncc(-c3ccc4ccccc4c3)c2n1

>  <Name>  (565) 
nan

>  <Pocket>  (565) 
nan

>  <ATP_Site>  (565) 
nan

>  <Peripheral>  (565) 
nan

>  <Num_H_Atoms_ProtBoundConf>  (565) 
nan

>  <Num_Resolved_Atoms>  (565) 
nan

>  <Num_Not_Resolved_Atoms>  (565) 
nan

$$$$
CHEMBL4446390
     RDKit          3D

  0  0  0  0  0  0  0  0  0  0999 V3000
M  V30 BEGIN CTAB
M  V30 COUNTS 53 56 0 0 0
M  V30 BEGIN ATOM
M  V30 1 C 6.446967 -2.859673 6.974708 0
M  V30 2 O 5.956969 -3.271544 5.712673 0
M  V30 3 C 5.318454 -2.326171 4.920575 0
M  V30 4 C 5.120366 -1.003653 5.266776 0
M  V30 5 C 4.476169 -0.115011 4.430221 0
M  V30 6 C 4.005879 -0.531654 3.206792 0
M  V30 7 C 3.310702 0.291303 2.225492 0
M  V30 8 O 2.888203 -0.130114 1.101142 0
M  V30 9 N 3.009200 1.686904 2.394974 0
M  V30 10 C 2.318310 2.130240 1.205135 0
M  V30 11 C 2.982119 2.637203 0.106485 0
M  V30 12 C 2.290042 3.051743 -1.015778 0
M  V30 13 C 0.898085 2.938627 -0.996177 0
M  V30 14 C 0.259118 2.428359 0.114985 0
M  V30 15 N -1.170360 2.403590 -0.085739 0
M  V30 16 C -1.538101 1.166201 -0.658742 0
M  V30 17 O -1.439971 0.003594 -1.138043 0
M  V30 18 C -2.954162 0.816947 -0.995251 0
M  V30 19 O -3.005907 -0.464558 -1.544813 0
M  V30 20 C -4.152720 -1.120051 -1.974825 0
M  V30 21 C -5.413828 -0.564967 -1.907435 0
M  V30 22 C -6.493346 -1.321728 -2.371349 0
M  V30 23 C -6.267914 -2.591314 -2.878927 0
M  V30 24 C -7.321728 -3.362140 -3.345346 0
M  V30 25 O -8.494769 -2.917792 -3.313135 0
M  V30 26 C -7.125035 -4.633622 -3.857523 0
M  V30 27 C -5.809025 -5.086912 -3.874528 0
M  V30 28 O -4.843128 -4.322521 -3.422519 0
M  V30 29 C -4.982988 -3.128549 -2.935598 0
M  V30 30 C -3.905864 -2.387385 -2.478609 0
M  V30 31 C 0.942519 2.016038 1.230361 0
M  V30 32 C 4.197581 -1.840576 2.855053 0
M  V30 33 C 4.841346 -2.729953 3.690293 0
M  V30 34 H 5.671333 -2.308327 7.557292 0
M  V30 35 H 6.889971 -3.699470 7.537864 0
M  V30 36 H 7.281306 -2.133181 6.817812 0
M  V30 37 H 5.490433 -0.687951 6.222535 0
M  V30 38 H 4.315769 0.912934 4.685836 0
M  V30 39 H 3.321598 2.137923 3.306162 0
M  V30 40 H 4.079413 2.695682 0.164865 0
M  V30 41 H 2.844996 3.443990 -1.858347 0
M  V30 42 H 0.436769 3.284983 -1.912688 0
M  V30 43 H -1.954500 3.042758 0.080570 0
M  V30 44 H -3.423521 1.606745 -1.628097 0
M  V30 45 H -3.510644 0.837471 -0.031887 0
M  V30 46 H -5.538908 0.432364 -1.501815 0
M  V30 47 H -7.500805 -0.894745 -2.324470 0
M  V30 48 H -7.898745 -5.285211 -4.236208 0
M  V30 49 H -5.495686 -6.039768 -4.236302 0
M  V30 50 H -2.930226 -2.841797 -2.541309 0
M  V30 51 H 0.328404 1.635363 2.034299 0
M  V30 52 H 3.851116 -2.240188 1.900471 0
M  V30 53 H 4.984809 -3.774418 3.389694 0
M  V30 END ATOM
M  V30 BEGIN BOND
M  V30 1 1 1 2
M  V30 2 1 2 3
M  V30 3 2 3 4
M  V30 4 1 4 5
M  V30 5 2 5 6
M  V30 6 1 6 7
M  V30 7 2 7 8
M  V30 8 1 7 9
M  V30 9 1 9 10
M  V30 10 2 10 11
M  V30 11 1 11 12
M  V30 12 2 12 13
M  V30 13 1 13 14
M  V30 14 1 14 15
M  V30 15 1 15 16
M  V30 16 2 16 17
M  V30 17 1 16 18
M  V30 18 1 18 19
M  V30 19 1 19 20
M  V30 20 2 20 21
M  V30 21 1 21 22
M  V30 22 2 22 23
M  V30 23 1 23 24
M  V30 24 2 24 25
M  V30 25 1 24 26
M  V30 26 2 26 27
M  V30 27 1 27 28
M  V30 28 1 28 29
M  V30 29 2 29 30
M  V30 30 2 14 31
M  V30 31 1 6 32
M  V30 32 2 32 33
M  V30 33 1 33 3
M  V30 34 1 31 10
M  V30 35 1 30 20
M  V30 36 1 29 23
M  V30 37 1 1 34
M  V30 38 1 1 35
M  V30 39 1 1 36
M  V30 40 1 4 37
M  V30 41 1 5 38
M  V30 42 1 9 39
M  V30 43 1 11 40
M  V30 44 1 12 41
M  V30 45 1 13 42
M  V30 46 1 15 43
M  V30 47 1 18 44
M  V30 48 1 18 45
M  V30 49 1 21 46
M  V30 50 1 22 47
M  V30 51 1 26 48
M  V30 52 1 27 49
M  V30 53 1 30 50
M  V30 54 1 31 51
M  V30 55 1 32 52
M  V30 56 1 33 53
M  V30 END BOND
M  V30 END CTAB
M  END
>  <Dataset>  (566) 
ChEMBL_Kinases

>  <Ligand_Instance>  (566) 
nan

>  <PDB_ID>  (566) 
nan

>  <Standardized_SMILES>  (566) 
COc1ccc(C(=O)Nc2cccc(NC(=O)COc3ccc4c(=O)ccoc4c3)c2)cc1

>  <Name>  (566) 
nan

>  <Pocket>  (566) 
nan

>  <ATP_Site>  (566) 
nan

>  <Peripheral>  (566) 
nan

>  <Num_H_Atoms_ProtBoundConf>  (566) 
nan

>  <Num_Resolved_Atoms>  (566) 
nan

>  <Num_Not_Resolved_Atoms>  (566) 
nan

$$$$
CHEMBL3702086
     RDKit          3D

  0  0  0  0  0  0  0  0  0  0999 V3000
M  V30 BEGIN CTAB
M  V30 COUNTS 56 61 0 0 0
M  V30 BEGIN ATOM
M  V30 1 O 0.272508 -1.852660 3.048549 0
M  V30 2 C 1.564819 -1.424572 2.853521 0 CFG=1
M  V30 3 C 2.500748 -1.862970 3.952704 0
M  V30 4 C 3.747795 -2.401619 3.283688 0
M  V30 5 N 3.641852 -1.980074 1.896344 0
M  V30 6 C 4.117706 -0.616046 1.745718 0
M  V30 7 C 4.001502 -0.191629 0.329383 0
M  V30 8 C 5.053604 -0.357500 -0.665928 0
M  V30 9 S 4.257584 0.373540 -2.206465 0
M  V30 10 C 2.698202 0.748966 -1.222076 0
M  V30 11 N 1.616414 1.371531 -1.920214 0
M  V30 12 C 0.460026 1.632194 -1.110012 0
M  V30 13 N 0.145058 2.746660 -0.399128 0
M  V30 14 C -1.006739 2.741277 0.286919 0
M  V30 15 C -1.900049 1.677739 0.322331 0
M  V30 16 C -3.093033 1.437429 0.923542 0
M  V30 17 C -3.875013 2.214448 1.755560 0
M  V30 18 C -5.067676 1.627936 2.194430 0
M  V30 19 N -5.419192 0.384193 1.822061 0
M  V30 20 C -4.661201 -0.387148 1.007035 0
M  V30 21 F -5.022429 -1.628754 0.641401 0
M  V30 22 C -3.460699 0.158880 0.544467 0
M  V30 23 N -2.517896 -0.359082 -0.262348 0
M  V30 24 C -2.546160 -1.654599 -0.850277 0
M  V30 25 C -3.384170 -1.814756 -2.070048 0
M  V30 26 C -2.632611 -2.778052 -2.992622 0
M  V30 27 C -1.578008 -3.393702 -2.064885 0
M  V30 28 C -1.170375 -2.105906 -1.337936 0
M  V30 29 C -1.539055 0.548973 -0.422655 0
M  V30 30 N -0.389554 0.615404 -1.078799 0
M  V30 31 N 2.918071 0.375310 -0.145942 0
M  V30 32 C 2.226791 -2.048006 1.636700 0
M  V30 33 H 0.155118 -2.777046 2.693707 0
M  V30 34 H 1.593602 -0.322082 2.718169 0
M  V30 35 H 2.776352 -0.954980 4.535643 0
M  V30 36 H 2.058346 -2.601265 4.625132 0
M  V30 37 H 3.767435 -3.515731 3.275567 0
M  V30 38 H 4.658507 -2.014620 3.777552 0
M  V30 39 H 3.586654 0.051423 2.433303 0
M  V30 40 H 5.181020 -0.601275 2.069596 0
M  V30 41 H 6.072625 -0.882302 -0.251185 0
M  V30 42 H 1.645230 1.618091 -2.912915 0
M  V30 43 H -1.235896 3.647638 0.848795 0
M  V30 44 H -3.570067 3.222293 2.045272 0
M  V30 45 H -5.722289 2.209304 2.858363 0
M  V30 46 H -2.870058 -2.455058 -0.121386 0
M  V30 47 H -3.637823 -0.868494 -2.579233 0
M  V30 48 H -4.351363 -2.328957 -1.881049 0
M  V30 49 H -3.260722 -3.549320 -3.430785 0
M  V30 50 H -2.047806 -2.182291 -3.735616 0
M  V30 51 H -2.013539 -4.144487 -1.385725 0
M  V30 52 H -0.672652 -3.709899 -2.602848 0
M  V30 53 H -0.449735 -2.266865 -0.540711 0
M  V30 54 H -0.809827 -1.456593 -2.179024 0
M  V30 55 H 1.893490 -1.595361 0.704229 0
M  V30 56 H 1.918082 -3.125392 1.662978 0
M  V30 END ATOM
M  V30 BEGIN BOND
M  V30 1 1 1 2
M  V30 2 1 2 3
M  V30 3 1 3 4
M  V30 4 1 4 5
M  V30 5 1 5 6
M  V30 6 1 6 7
M  V30 7 2 7 8
M  V30 8 1 8 9
M  V30 9 1 9 10
M  V30 10 1 10 11
M  V30 11 1 11 12
M  V30 12 2 12 13
M  V30 13 1 13 14
M  V30 14 2 14 15
M  V30 15 1 15 16
M  V30 16 2 16 17
M  V30 17 1 17 18
M  V30 18 2 18 19
M  V30 19 1 19 20
M  V30 20 1 20 21
M  V30 21 2 20 22
M  V30 22 1 22 23
M  V30 23 1 23 24
M  V30 24 1 24 25
M  V30 25 1 25 26
M  V30 26 1 26 27
M  V30 27 1 27 28
M  V30 28 1 23 29
M  V30 29 2 29 30
M  V30 30 2 10 31
M  V30 31 1 5 32
M  V30 32 1 32 2
M  V30 33 1 31 7
M  V30 34 1 30 12
M  V30 35 1 29 15
M  V30 36 1 22 16
M  V30 37 1 28 24
M  V30 38 1 1 33
M  V30 39 1 2 34 CFG=3
M  V30 40 1 3 35
M  V30 41 1 3 36
M  V30 42 1 4 37
M  V30 43 1 4 38
M  V30 44 1 6 39
M  V30 45 1 6 40
M  V30 46 1 8 41
M  V30 47 1 11 42
M  V30 48 1 14 43
M  V30 49 1 17 44
M  V30 50 1 18 45
M  V30 51 1 24 46
M  V30 52 1 25 47
M  V30 53 1 25 48
M  V30 54 1 26 49
M  V30 55 1 26 50
M  V30 56 1 27 51
M  V30 57 1 27 52
M  V30 58 1 28 53
M  V30 59 1 28 54
M  V30 60 1 32 55
M  V30 61 1 32 56
M  V30 END BOND
M  V30 END CTAB
M  END
>  <Dataset>  (567) 
ChEMBL_Kinases

>  <Ligand_Instance>  (567) 
nan

>  <PDB_ID>  (567) 
nan

>  <Standardized_SMILES>  (567) 
O[C@H]1CCN(Cc2csc(Nc3ncc4c5ccnc(F)c5n(C5CCCC5)c4n3)n2)C1

>  <Name>  (567) 
nan

>  <Pocket>  (567) 
nan

>  <ATP_Site>  (567) 
nan

>  <Peripheral>  (567) 
nan

>  <Num_H_Atoms_ProtBoundConf>  (567) 
nan

>  <Num_Resolved_Atoms>  (567) 
nan

>  <Num_Not_Resolved_Atoms>  (567) 
nan

$$$$
CHEMBL2442301
     RDKit          3D

  0  0  0  0  0  0  0  0  0  0999 V3000
M  V30 BEGIN CTAB
M  V30 COUNTS 53 57 0 0 0
M  V30 BEGIN ATOM
M  V30 1 C 0.477795 -2.621352 1.742057 0
M  V30 2 C 1.467307 -2.451510 0.620228 0
M  V30 3 N 2.573337 -1.585090 0.940649 0
M  V30 4 C 3.458964 -2.143017 1.927263 0
M  V30 5 C 3.838150 -1.089085 2.907672 0
M  V30 6 C 2.821385 0.003379 2.705965 0
M  V30 7 C 2.163575 -0.277990 1.366282 0
M  V30 8 C 2.715095 0.717461 0.352569 0
M  V30 9 N 2.344776 2.076032 0.711193 0
M  V30 10 C 0.965980 2.483437 0.759213 0
M  V30 11 C 0.569443 3.758750 1.143680 0
M  V30 12 C -0.754981 4.139604 1.179522 0
M  V30 13 N -1.720355 3.247935 0.828841 0
M  V30 14 N -3.050316 3.264816 0.744712 0
M  V30 15 C -3.510185 2.071886 0.327934 0
M  V30 16 C -2.391019 1.268475 0.143643 0
M  V30 17 C -2.439599 -0.112533 -0.314965 0
M  V30 18 C -1.513767 -0.409772 -1.315943 0
M  V30 19 C -1.391901 -1.664349 -1.896438 0
M  V30 20 C -2.226437 -2.675539 -1.465789 0
M  V30 21 C -2.150664 -3.937354 -2.003472 0
M  V30 22 C -3.013637 -4.935767 -1.539583 0
M  V30 23 C -3.942373 -4.670949 -0.547058 0
M  V30 24 C -3.987070 -3.394523 -0.033142 0
M  V30 25 C -3.151413 -2.387008 -0.467404 0
M  V30 26 C -3.261145 -1.135785 0.099500 0
M  V30 27 C -1.268207 2.028526 0.465249 0
M  V30 28 N 0.005219 1.612221 0.415166 0
M  V30 29 H -0.040160 -3.610107 1.561073 0
M  V30 30 H 0.910848 -2.685505 2.744296 0
M  V30 31 H -0.353800 -1.862082 1.709514 0
M  V30 32 H 1.867529 -3.442470 0.364861 0
M  V30 33 H 0.939456 -2.008377 -0.221312 0
M  V30 34 H 3.094444 -3.057006 2.402618 0
M  V30 35 H 4.389537 -2.438592 1.359060 0
M  V30 36 H 4.874764 -0.690759 2.744735 0
M  V30 37 H 3.840945 -1.478211 3.953792 0
M  V30 38 H 3.296854 1.008603 2.676769 0
M  V30 39 H 2.108751 -0.033842 3.548898 0
M  V30 40 H 1.077389 -0.192507 1.514761 0
M  V30 41 H 2.320878 0.490672 -0.657975 0
M  V30 42 H 3.807791 0.629520 0.370808 0
M  V30 43 H 3.043794 2.832007 0.953717 0
M  V30 44 H 1.361638 4.465510 1.423871 0
M  V30 45 H -1.064326 5.131431 1.477541 0
M  V30 46 H -4.528011 1.742563 0.152965 0
M  V30 47 H -0.816731 0.338158 -1.709486 0
M  V30 48 H -0.649838 -1.854554 -2.681326 0
M  V30 49 H -1.403106 -4.093143 -2.781583 0
M  V30 50 H -2.871127 -5.884438 -2.027447 0
M  V30 51 H -4.589771 -5.476505 -0.222770 0
M  V30 52 H -4.703025 -3.169129 0.740221 0
M  V30 53 H -3.956616 -0.856119 0.872461 0
M  V30 END ATOM
M  V30 BEGIN BOND
M  V30 1 1 1 2
M  V30 2 1 2 3
M  V30 3 1 3 4
M  V30 4 1 4 5
M  V30 5 1 5 6
M  V30 6 1 6 7
M  V30 7 1 7 8
M  V30 8 1 8 9
M  V30 9 1 9 10
M  V30 10 1 10 11
M  V30 11 2 11 12
M  V30 12 1 12 13
M  V30 13 1 13 14
M  V30 14 2 14 15
M  V30 15 1 15 16
M  V30 16 1 16 17
M  V30 17 2 17 18
M  V30 18 1 18 19
M  V30 19 2 19 20
M  V30 20 1 20 21
M  V30 21 2 21 22
M  V30 22 1 22 23
M  V30 23 2 23 24
M  V30 24 1 24 25
M  V30 25 2 25 26
M  V30 26 2 16 27
M  V30 27 1 27 28
M  V30 28 1 7 3
M  V30 29 2 28 10
M  V30 30 1 27 13
M  V30 31 1 26 17
M  V30 32 1 25 20
M  V30 33 1 1 29
M  V30 34 1 1 30
M  V30 35 1 1 31
M  V30 36 1 2 32
M  V30 37 1 2 33
M  V30 38 1 4 34
M  V30 39 1 4 35
M  V30 40 1 5 36
M  V30 41 1 5 37
M  V30 42 1 6 38
M  V30 43 1 6 39
M  V30 44 1 7 40
M  V30 45 1 8 41
M  V30 46 1 8 42
M  V30 47 1 9 43
M  V30 48 1 11 44
M  V30 49 1 12 45
M  V30 50 1 15 46
M  V30 51 1 18 47
M  V30 52 1 19 48
M  V30 53 1 21 49
M  V30 54 1 22 50
M  V30 55 1 23 51
M  V30 56 1 24 52
M  V30 57 1 26 53
M  V30 END BOND
M  V30 END CTAB
M  END
>  <Dataset>  (568) 
ChEMBL_Kinases

>  <Ligand_Instance>  (568) 
nan

>  <PDB_ID>  (568) 
nan

>  <Standardized_SMILES>  (568) 
CCN1CCCC1CNc1ccn2ncc(-c3ccc4ccccc4c3)c2n1

>  <Name>  (568) 
nan

>  <Pocket>  (568) 
nan

>  <ATP_Site>  (568) 
nan

>  <Peripheral>  (568) 
nan

>  <Num_H_Atoms_ProtBoundConf>  (568) 
nan

>  <Num_Resolved_Atoms>  (568) 
nan

>  <Num_Not_Resolved_Atoms>  (568) 
nan

$$$$
CHEMBL2442302
     RDKit          3D

  0  0  0  0  0  0  0  0  0  0999 V3000
M  V30 BEGIN CTAB
M  V30 COUNTS 37 40 0 0 0
M  V30 BEGIN ATOM
M  V30 1 N -0.925297 -4.127958 0.706778 0
M  V30 2 C -0.331330 -4.196204 2.041660 0
M  V30 3 C 1.172879 -4.315166 1.942046 0
M  V30 4 N 1.817917 -3.226575 1.286624 0
M  V30 5 C 1.718564 -2.549262 0.048840 0
M  V30 6 C 2.166907 -3.038604 -1.188704 0
M  V30 7 C 2.003715 -2.235123 -2.295952 0
M  V30 8 N 1.427482 -1.011039 -2.181543 0
M  V30 9 N 1.166850 -0.073957 -3.061200 0
M  V30 10 C 0.584597 0.986204 -2.488979 0
M  V30 11 C 0.449735 0.726482 -1.117216 0
M  V30 12 C -0.123566 1.631242 -0.126332 0
M  V30 13 C -0.567859 2.862056 -0.620650 0
M  V30 14 C -1.104279 3.753876 0.278822 0
M  V30 15 C -1.161075 3.371344 1.573972 0
M  V30 16 S -1.803742 4.286233 3.081441 0
M  V30 17 C -1.391036 2.859006 4.265737 0
M  V30 18 C -0.841782 1.903776 3.427402 0
M  V30 19 C -0.727198 2.153802 2.096668 0
M  V30 20 C -0.191620 1.265710 1.192395 0
M  V30 21 C 0.995481 -0.533639 -1.000708 0
M  V30 22 N 1.166315 -1.333436 0.047868 0
M  V30 23 H -0.977694 -3.123844 0.449945 0
M  V30 24 H -0.304029 -4.674905 0.076789 0
M  V30 25 H -0.666607 -3.357941 2.674787 0
M  V30 26 H -0.705027 -5.133672 2.502827 0
M  V30 27 H 1.413742 -5.237097 1.397427 0
M  V30 28 H 1.535428 -4.419058 2.999721 0
M  V30 29 H 2.602109 -2.721304 1.788036 0
M  V30 30 H 2.613110 -4.022770 -1.179452 0
M  V30 31 H 2.346164 -2.605815 -3.252587 0
M  V30 32 H 0.278115 1.887772 -3.025754 0
M  V30 33 H -0.520890 3.162820 -1.653940 0
M  V30 34 H -1.489719 4.740110 0.059776 0
M  V30 35 H -1.638312 3.054640 5.230085 0
M  V30 36 H -0.573514 1.045523 4.011912 0
M  V30 37 H 0.183114 0.290349 1.454431 0
M  V30 END ATOM
M  V30 BEGIN BOND
M  V30 1 1 1 2
M  V30 2 1 2 3
M  V30 3 1 3 4
M  V30 4 1 4 5
M  V30 5 1 5 6
M  V30 6 2 6 7
M  V30 7 1 7 8
M  V30 8 1 8 9
M  V30 9 2 9 10
M  V30 10 1 10 11
M  V30 11 1 11 12
M  V30 12 2 12 13
M  V30 13 1 13 14
M  V30 14 2 14 15
M  V30 15 1 15 16
M  V30 16 1 16 17
M  V30 17 2 17 18
M  V30 18 1 18 19
M  V30 19 2 19 20
M  V30 20 2 11 21
M  V30 21 1 21 22
M  V30 22 2 22 5
M  V30 23 1 21 8
M  V30 24 1 20 12
M  V30 25 1 19 15
M  V30 26 1 1 23
M  V30 27 1 1 24
M  V30 28 1 2 25
M  V30 29 1 2 26
M  V30 30 1 3 27
M  V30 31 1 3 28
M  V30 32 1 4 29
M  V30 33 1 6 30
M  V30 34 1 7 31
M  V30 35 1 10 32
M  V30 36 1 13 33
M  V30 37 1 14 34
M  V30 38 1 17 35
M  V30 39 1 18 36
M  V30 40 1 20 37
M  V30 END BOND
M  V30 END CTAB
M  END
>  <Dataset>  (569) 
ChEMBL_Kinases

>  <Ligand_Instance>  (569) 
nan

>  <PDB_ID>  (569) 
nan

>  <Standardized_SMILES>  (569) 
NCCNc1ccn2ncc(-c3ccc4sccc4c3)c2n1

>  <Name>  (569) 
nan

>  <Pocket>  (569) 
nan

>  <ATP_Site>  (569) 
nan

>  <Peripheral>  (569) 
nan

>  <Num_H_Atoms_ProtBoundConf>  (569) 
nan

>  <Num_Resolved_Atoms>  (569) 
nan

>  <Num_Not_Resolved_Atoms>  (569) 
nan

$$$$
CHEMBL3719165
     RDKit          3D

  0  0  0  0  0  0  0  0  0  0999 V3000
M  V30 BEGIN CTAB
M  V30 COUNTS 51 53 0 0 0
M  V30 BEGIN ATOM
M  V30 1 O 2.157473 -2.832553 0.326975 0
M  V30 2 C 2.550645 -1.631649 0.234092 0
M  V30 3 C 2.627985 -1.258620 -1.174421 0
M  V30 4 O 3.043316 0.050159 -1.387297 0
M  V30 5 C 2.308889 1.142936 -0.954376 0
M  V30 6 C 1.095510 1.181486 -0.287060 0
M  V30 7 C 0.495838 2.373422 0.075748 0
M  V30 8 C 1.101509 3.598456 -0.223110 0
M  V30 9 O 0.384860 4.698104 0.200495 0
M  V30 10 C -0.564877 5.281929 -0.666174 0
M  V30 11 F -1.563649 4.381386 -1.023236 0
M  V30 12 F -1.083887 6.464844 -0.183408 0
M  V30 13 F 0.106843 5.597639 -1.850417 0
M  V30 14 C 2.310573 3.592486 -0.887417 0
M  V30 15 C 2.879885 2.390008 -1.233615 0
M  V30 16 N 2.810961 -0.970993 1.448801 0
M  V30 17 C 2.697357 -1.433804 2.789121 0
M  V30 18 C 1.393903 -1.850933 3.259450 0
M  V30 19 O 1.224613 -2.286359 4.465617 0
M  V30 20 N 0.082696 -1.952894 2.784639 0
M  V30 21 C -1.302846 -2.170550 2.619731 0
M  V30 22 C -2.077519 -0.905532 2.380242 0
M  V30 23 C -2.339138 -0.633820 0.937155 0
M  V30 24 C -3.253166 -1.733627 0.384248 0
M  V30 25 C -2.522947 -3.020376 0.637369 0
M  V30 26 C -2.815984 -4.043344 -0.268169 0
M  V30 27 C -2.178482 -5.281033 -0.112579 0
M  V30 28 C -1.283618 -5.462165 0.919505 0
M  V30 29 C -0.986643 -4.451963 1.822841 0
M  V30 30 C -1.626039 -3.244828 1.649875 0
M  V30 31 H 3.378462 -1.930494 -1.660150 0
M  V30 32 H 1.658113 -1.485888 -1.678292 0
M  V30 33 H 0.740963 0.177500 -0.115905 0
M  V30 34 H -0.434764 2.188388 0.582690 0
M  V30 35 H 2.742337 4.556664 -1.101387 0
M  V30 36 H 3.820677 2.484988 -1.750889 0
M  V30 37 H 3.150439 0.018778 1.248824 0
M  V30 38 H 3.135595 -0.632048 3.456839 0
M  V30 39 H 3.429267 -2.276085 2.896485 0
M  V30 40 H 0.197651 -1.596667 1.765281 0
M  V30 41 H -1.697518 -2.571152 3.607841 0
M  V30 42 H -3.076458 -0.937136 2.894238 0
M  V30 43 H -1.536741 -0.014633 2.782376 0
M  V30 44 H -2.861791 0.312426 0.773891 0
M  V30 45 H -1.427609 -0.693060 0.309538 0
M  V30 46 H -3.405113 -1.600218 -0.696277 0
M  V30 47 H -4.184243 -1.788879 0.985529 0
M  V30 48 H -3.529283 -3.891253 -1.091413 0
M  V30 49 H -2.447346 -6.035306 -0.842007 0
M  V30 50 H -0.795584 -6.413651 1.035293 0
M  V30 51 H -0.283414 -4.586791 2.637527 0
M  V30 END ATOM
M  V30 BEGIN BOND
M  V30 1 2 1 2
M  V30 2 1 2 3
M  V30 3 1 3 4
M  V30 4 1 4 5
M  V30 5 2 5 6
M  V30 6 1 6 7
M  V30 7 2 7 8
M  V30 8 1 8 9
M  V30 9 1 9 10
M  V30 10 1 10 11
M  V30 11 1 10 12
M  V30 12 1 10 13
M  V30 13 1 8 14
M  V30 14 2 14 15
M  V30 15 1 2 16
M  V30 16 1 16 17
M  V30 17 1 17 18
M  V30 18 2 18 19
M  V30 19 1 18 20
M  V30 20 1 20 21
M  V30 21 1 21 22
M  V30 22 1 22 23
M  V30 23 1 23 24
M  V30 24 1 24 25
M  V30 25 2 25 26
M  V30 26 1 26 27
M  V30 27 2 27 28
M  V30 28 1 28 29
M  V30 29 2 29 30
M  V30 30 1 15 5
M  V30 31 1 30 21
M  V30 32 1 30 25
M  V30 33 1 3 31
M  V30 34 1 3 32
M  V30 35 1 6 33
M  V30 36 1 7 34
M  V30 37 1 14 35
M  V30 38 1 15 36
M  V30 39 1 16 37
M  V30 40 1 17 38
M  V30 41 1 17 39
M  V30 42 1 20 40
M  V30 43 1 21 41
M  V30 44 1 22 42
M  V30 45 1 22 43
M  V30 46 1 23 44
M  V30 47 1 23 45
M  V30 48 1 24 46
M  V30 49 1 24 47
M  V30 50 1 26 48
M  V30 51 1 27 49
M  V30 52 1 28 50
M  V30 53 1 29 51
M  V30 END BOND
M  V30 END CTAB
M  END
>  <Dataset>  (570) 
ChEMBL_Kinases

>  <Ligand_Instance>  (570) 
nan

>  <PDB_ID>  (570) 
nan

>  <Standardized_SMILES>  (570) 
O=C(COc1ccc(OC(F)(F)F)cc1)NCC(=O)NC1CCCc2ccccc21

>  <Name>  (570) 
nan

>  <Pocket>  (570) 
nan

>  <ATP_Site>  (570) 
nan

>  <Peripheral>  (570) 
nan

>  <Num_H_Atoms_ProtBoundConf>  (570) 
nan

>  <Num_Resolved_Atoms>  (570) 
nan

>  <Num_Not_Resolved_Atoms>  (570) 
nan

$$$$
CHEMBL3719193
     RDKit          3D

  0  0  0  0  0  0  0  0  0  0999 V3000
M  V30 BEGIN CTAB
M  V30 COUNTS 49 52 0 0 0
M  V30 BEGIN ATOM
M  V30 1 C -0.092845 -0.689972 2.711657 0
M  V30 2 C 0.858241 -0.731482 1.534151 0 CFG=2
M  V30 3 C 1.166351 0.687955 1.029878 0
M  V30 4 N 2.229650 0.488424 0.055696 0
M  V30 5 C 3.609656 0.851142 0.277175 0
M  V30 6 C 4.634379 0.801209 -0.641863 0
M  V30 7 C 5.908544 1.181899 -0.294717 0
M  V30 8 C 6.242632 1.631548 0.973694 0
M  V30 9 C 5.201064 1.677308 1.893811 0
M  V30 10 C 3.909619 1.292214 1.545627 0
M  V30 11 C 1.749473 -0.117457 -1.169501 0
M  V30 12 C 1.036132 -1.393856 -0.837276 0
M  V30 13 N 0.253218 -1.367173 0.374763 0
M  V30 14 C -1.064016 -1.896086 0.548456 0
M  V30 15 N -2.167336 -1.116186 0.521241 0
M  V30 16 C -3.409459 -1.601401 0.679905 0
M  V30 17 C -4.590669 -0.755106 0.655525 0
M  V30 18 C -4.586245 0.608805 0.474952 0
M  V30 19 C -5.679217 1.446161 0.448325 0
M  V30 20 N -6.891392 0.828989 0.622677 0
M  V30 21 C -6.926990 -0.486418 0.799453 0
M  V30 22 N -5.831355 -1.271077 0.819220 0
M  V30 23 C -3.579003 -2.956042 0.880382 0
M  V30 24 C -2.443537 -3.727813 0.903733 0
M  V30 25 O -2.592112 -4.955593 1.083735 0
M  V30 26 N -1.195921 -3.238996 0.744379 0
M  V30 27 C 0.001203 -4.047447 0.765882 0
M  V30 28 H -0.433559 -1.737898 2.870749 0
M  V30 29 H 0.441531 -0.358864 3.622014 0
M  V30 30 H -0.925246 0.005831 2.571620 0
M  V30 31 H 1.809035 -1.193205 1.814690 0
M  V30 32 H 1.373912 1.397561 1.817781 0
M  V30 33 H 0.290792 1.097455 0.465945 0
M  V30 34 H 4.371503 0.450143 -1.628713 0
M  V30 35 H 6.701260 1.134354 -1.041894 0
M  V30 36 H 7.248282 1.921167 1.201612 0
M  V30 37 H 5.527651 2.038268 2.869275 0
M  V30 38 H 3.274880 1.406516 2.409958 0
M  V30 39 H 1.036257 0.571918 -1.697913 0
M  V30 40 H 2.553523 -0.381247 -1.887815 0
M  V30 41 H 0.466897 -1.802042 -1.700769 0
M  V30 42 H 1.855098 -2.157998 -0.668708 0
M  V30 43 H -3.619774 1.094349 0.335106 0
M  V30 44 H -5.554702 2.520239 0.297252 0
M  V30 45 H -7.913287 -0.941958 0.939383 0
M  V30 46 H -4.565601 -3.412828 1.015798 0
M  V30 47 H -0.243100 -5.112595 0.976788 0
M  V30 48 H 0.429119 -4.047506 -0.267174 0
M  V30 49 H 0.718365 -3.742660 1.529653 0
M  V30 END ATOM
M  V30 BEGIN BOND
M  V30 1 1 1 2
M  V30 2 1 2 3
M  V30 3 1 3 4
M  V30 4 1 4 5
M  V30 5 2 5 6
M  V30 6 1 6 7
M  V30 7 2 7 8
M  V30 8 1 8 9
M  V30 9 2 9 10
M  V30 10 1 4 11
M  V30 11 1 11 12
M  V30 12 1 12 13
M  V30 13 1 13 14
M  V30 14 2 14 15
M  V30 15 1 15 16
M  V30 16 1 16 17
M  V30 17 2 17 18
M  V30 18 1 18 19
M  V30 19 2 19 20
M  V30 20 1 20 21
M  V30 21 2 21 22
M  V30 22 2 16 23
M  V30 23 1 23 24
M  V30 24 2 24 25
M  V30 25 1 24 26
M  V30 26 1 26 27
M  V30 27 1 13 2
M  V30 28 1 26 14
M  V30 29 1 10 5
M  V30 30 1 22 17
M  V30 31 1 1 28
M  V30 32 1 1 29
M  V30 33 1 1 30
M  V30 34 1 2 31 CFG=1
M  V30 35 1 3 32
M  V30 36 1 3 33
M  V30 37 1 6 34
M  V30 38 1 7 35
M  V30 39 1 8 36
M  V30 40 1 9 37
M  V30 41 1 10 38
M  V30 42 1 11 39
M  V30 43 1 11 40
M  V30 44 1 12 41
M  V30 45 1 12 42
M  V30 46 1 18 43
M  V30 47 1 19 44
M  V30 48 1 21 45
M  V30 49 1 23 46
M  V30 50 1 27 47
M  V30 51 1 27 48
M  V30 52 1 27 49
M  V30 END BOND
M  V30 END CTAB
M  END
>  <Dataset>  (571) 
ChEMBL_Kinases

>  <Ligand_Instance>  (571) 
nan

>  <PDB_ID>  (571) 
nan

>  <Standardized_SMILES>  (571) 
C[C@@H]1CN(c2ccccc2)CCN1c1nc(-c2ccncn2)cc(=O)n1C

>  <Name>  (571) 
nan

>  <Pocket>  (571) 
nan

>  <ATP_Site>  (571) 
nan

>  <Peripheral>  (571) 
nan

>  <Num_H_Atoms_ProtBoundConf>  (571) 
nan

>  <Num_Resolved_Atoms>  (571) 
nan

>  <Num_Not_Resolved_Atoms>  (571) 
nan

$$$$
CHEMBL2442297
     RDKit          3D

  0  0  0  0  0  0  0  0  0  0999 V3000
M  V30 BEGIN CTAB
M  V30 COUNTS 41 45 0 0 0
M  V30 BEGIN ATOM
M  V30 1 C 0.687620 -4.849390 4.106458 0
M  V30 2 C 0.506142 -5.665032 3.012737 0
M  V30 3 C 0.622084 -5.050423 1.771815 0
M  V30 4 C 0.903812 -3.699163 1.705514 0
M  V30 5 C 1.014696 -3.107662 0.441392 0
M  V30 6 C 1.297581 -1.750991 0.377207 0
M  V30 7 C 1.436883 -1.023474 -0.886298 0
M  V30 8 C 2.158082 -1.495627 -1.965698 0
M  V30 9 N 2.023584 -0.534435 -2.889555 0
M  V30 10 N 1.281799 0.457172 -2.431373 0
M  V30 11 C 0.938056 1.584636 -3.079797 0
M  V30 12 C 0.138523 2.479460 -2.361728 0
M  V30 13 C -0.291690 2.243574 -1.050926 0
M  V30 14 N -1.097391 3.170858 -0.360233 0
M  V30 15 C -1.549422 2.951862 0.979669 0
M  V30 16 C -0.426248 2.790770 1.987080 0
M  V30 17 N -0.777025 1.386702 2.050301 0
M  V30 18 C -2.002280 1.546736 1.300310 0
M  V30 19 N 0.112527 1.083630 -0.502174 0
M  V30 20 C 0.881271 0.207638 -1.172451 0
M  V30 21 C 1.467734 -0.992028 1.522562 0
M  V30 22 C 1.360891 -1.563658 2.775509 0
M  V30 23 C 1.078541 -2.917312 2.830256 0
M  V30 24 C 0.969881 -3.498408 4.098799 0
M  V30 25 H 0.602298 -5.305502 5.099967 0
M  V30 26 H 0.287359 -6.719580 3.171997 0
M  V30 27 H 0.484058 -5.668312 0.889417 0
M  V30 28 H 0.889626 -3.662768 -0.458610 0
M  V30 29 H 2.706814 -2.423578 -2.054120 0
M  V30 30 H 1.184597 1.899989 -4.063096 0
M  V30 31 H -0.188208 3.413232 -2.800376 0
M  V30 32 H -1.370717 4.050394 -0.853798 0
M  V30 33 H -2.238117 3.726224 1.350184 0
M  V30 34 H -0.530275 3.347192 2.921932 0
M  V30 35 H 0.581795 2.918936 1.559173 0
M  V30 36 H -0.871118 0.991802 3.006259 0
M  V30 37 H -2.925025 1.558214 1.924695 0
M  V30 38 H -2.070274 0.885266 0.424684 0
M  V30 39 H 1.686096 0.054670 1.483806 0
M  V30 40 H 1.494916 -0.965320 3.667079 0
M  V30 41 H 1.093358 -2.952343 5.026511 0
M  V30 END ATOM
M  V30 BEGIN BOND
M  V30 1 2 1 2
M  V30 2 1 2 3
M  V30 3 2 3 4
M  V30 4 1 4 5
M  V30 5 2 5 6
M  V30 6 1 6 7
M  V30 7 1 7 8
M  V30 8 2 8 9
M  V30 9 1 9 10
M  V30 10 1 10 11
M  V30 11 2 11 12
M  V30 12 1 12 13
M  V30 13 1 13 14
M  V30 14 1 14 15
M  V30 15 1 15 16
M  V30 16 1 16 17
M  V30 17 1 17 18
M  V30 18 2 13 19
M  V30 19 1 19 20
M  V30 20 1 6 21
M  V30 21 2 21 22
M  V30 22 1 22 23
M  V30 23 2 23 24
M  V30 24 1 24 1
M  V30 25 1 23 4
M  V30 26 2 20 7
M  V30 27 1 20 10
M  V30 28 1 18 15
M  V30 29 1 1 25
M  V30 30 1 2 26
M  V30 31 1 3 27
M  V30 32 1 5 28
M  V30 33 1 8 29
M  V30 34 1 11 30
M  V30 35 1 12 31
M  V30 36 1 14 32
M  V30 37 1 15 33
M  V30 38 1 16 34
M  V30 39 1 16 35
M  V30 40 1 17 36
M  V30 41 1 18 37
M  V30 42 1 18 38
M  V30 43 1 21 39
M  V30 44 1 22 40
M  V30 45 1 24 41
M  V30 END BOND
M  V30 END CTAB
M  END
>  <Dataset>  (572) 
ChEMBL_Kinases

>  <Ligand_Instance>  (572) 
nan

>  <PDB_ID>  (572) 
nan

>  <Standardized_SMILES>  (572) 
c1ccc2cc(-c3cnn4ccc(NC5CNC5)nc34)ccc2c1

>  <Name>  (572) 
nan

>  <Pocket>  (572) 
nan

>  <ATP_Site>  (572) 
nan

>  <Peripheral>  (572) 
nan

>  <Num_H_Atoms_ProtBoundConf>  (572) 
nan

>  <Num_Resolved_Atoms>  (572) 
nan

>  <Num_Not_Resolved_Atoms>  (572) 
nan

$$$$
CHEMBL3715589
     RDKit          3D

  0  0  0  0  0  0  0  0  0  0999 V3000
M  V30 BEGIN CTAB
M  V30 COUNTS 71 73 0 0 0
M  V30 BEGIN ATOM
M  V30 1 C 7.901246 -6.627640 -2.157136 0
M  V30 2 C 8.323678 -5.307798 -1.576145 0
M  V30 3 C 7.137931 -4.530548 -1.029915 0
M  V30 4 C 7.590546 -3.191049 -0.450794 0
M  V30 5 O 6.539228 -2.525606 0.073117 0
M  V30 6 C 5.370633 -1.973814 -0.297781 0
M  V30 7 C 4.648109 -1.411855 0.779017 0
M  V30 8 C 3.420100 -0.818863 0.443627 0
M  V30 9 C 2.894027 -0.758689 -0.855329 0
M  V30 10 N 1.642690 -0.089619 -0.751523 0
M  V30 11 C 0.389554 -0.741693 -0.634651 0
M  V30 12 O 0.534590 -2.008580 -0.682093 0
M  V30 13 N -0.875963 -0.157690 -0.484760 0
M  V30 14 C -2.036241 -1.023765 -0.407729 0 CFG=1
M  V30 15 C -2.323007 -1.353606 1.077454 0
M  V30 16 O -3.449064 -2.170622 1.042629 0
M  V30 17 C -3.862527 -2.622626 2.275920 0
M  V30 18 C -4.217413 -1.586414 3.246731 0
M  V30 19 C -3.175975 -1.137886 4.058071 0
M  V30 20 C -3.374544 -0.165613 5.015562 0
M  V30 21 C -4.633378 0.391651 5.191776 0
M  V30 22 C -5.698093 -0.040387 4.390542 0
M  V30 23 C -5.453878 -1.012918 3.447242 0
M  V30 24 C -3.274924 -0.438200 -0.925165 0
M  V30 25 O -4.194712 -1.340200 -0.958913 0
M  V30 26 N -3.574544 0.877151 -1.354870 0
M  V30 27 C -4.887153 1.236363 -1.846616 0
M  V30 28 C -5.015573 2.686303 -2.221357 0
M  V30 29 C -4.771742 3.553655 -1.021170 0
M  V30 30 C -5.835598 3.894524 -0.184218 0
M  V30 31 C -5.575991 4.698346 0.903741 0
M  V30 32 C -4.328636 5.202417 1.237735 0
M  V30 33 C -3.276835 4.848285 0.384743 0
M  V30 34 C -3.503415 4.039598 -0.719405 0
M  V30 35 C 3.653473 -1.331176 -1.879687 0
M  V30 36 C 4.859454 -1.916352 -1.570190 0
M  V30 37 H 6.872508 -6.915733 -1.817891 0
M  V30 38 H 8.026143 -6.706589 -3.258215 0
M  V30 39 H 8.562868 -7.416203 -1.734542 0
M  V30 40 H 8.850337 -4.716547 -2.346800 0
M  V30 41 H 9.035706 -5.482759 -0.765915 0
M  V30 42 H 6.646651 -5.154186 -0.272177 0
M  V30 43 H 6.397611 -4.360245 -1.824726 0
M  V30 44 H 8.193774 -2.630248 -1.205454 0
M  V30 45 H 8.301943 -3.437515 0.398284 0
M  V30 46 H 5.042943 -1.450762 1.792325 0
M  V30 47 H 2.957030 -0.429074 1.367727 0
M  V30 48 H 1.590160 0.965050 -0.754306 0
M  V30 49 H -0.813267 0.882558 -0.446517 0
M  V30 50 H -1.737365 -2.008212 -0.811941 0
M  V30 51 H -1.495607 -1.908683 1.514365 0
M  V30 52 H -2.601604 -0.441006 1.640318 0
M  V30 53 H -3.034804 -3.279994 2.679910 0
M  V30 54 H -4.732763 -3.305748 2.126407 0
M  V30 55 H -2.123513 -1.459603 4.060578 0
M  V30 56 H -2.638908 0.240684 5.684167 0
M  V30 57 H -4.833393 1.151965 5.928387 0
M  V30 58 H -6.681792 0.384504 4.513319 0
M  V30 59 H -6.207600 -1.397967 2.795969 0
M  V30 60 H -2.685859 1.409821 -1.221356 0
M  V30 61 H -5.700419 0.881497 -1.209652 0
M  V30 62 H -4.973918 0.669361 -2.824409 0
M  V30 63 H -4.338676 2.985026 -3.032311 0
M  V30 64 H -6.048824 2.853000 -2.522033 0
M  V30 65 H -6.836705 3.543494 -0.376504 0
M  V30 66 H -6.370539 5.007354 1.603212 0
M  V30 67 H -4.094860 5.831344 2.081168 0
M  V30 68 H -2.273620 5.167842 0.529258 0
M  V30 69 H -2.676619 3.781056 -1.368110 0
M  V30 70 H 3.124027 -1.206986 -2.794245 0
M  V30 71 H 5.370173 -2.321009 -2.417151 0
M  V30 END ATOM
M  V30 BEGIN BOND
M  V30 1 1 1 2
M  V30 2 1 2 3
M  V30 3 1 3 4
M  V30 4 1 4 5
M  V30 5 1 5 6
M  V30 6 2 6 7
M  V30 7 1 7 8
M  V30 8 2 8 9
M  V30 9 1 9 10
M  V30 10 1 10 11
M  V30 11 2 11 12
M  V30 12 1 11 13
M  V30 13 1 13 14
M  V30 14 1 14 15
M  V30 15 1 15 16
M  V30 16 1 16 17
M  V30 17 1 17 18
M  V30 18 2 18 19
M  V30 19 1 19 20
M  V30 20 2 20 21
M  V30 21 1 21 22
M  V30 22 2 22 23
M  V30 23 1 14 24
M  V30 24 2 24 25
M  V30 25 1 24 26
M  V30 26 1 26 27
M  V30 27 1 27 28
M  V30 28 1 28 29
M  V30 29 2 29 30
M  V30 30 1 30 31
M  V30 31 2 31 32
M  V30 32 1 32 33
M  V30 33 2 33 34
M  V30 34 1 9 35
M  V30 35 2 35 36
M  V30 36 1 36 6
M  V30 37 1 23 18
M  V30 38 1 34 29
M  V30 39 1 1 37
M  V30 40 1 1 38
M  V30 41 1 1 39
M  V30 42 1 2 40
M  V30 43 1 2 41
M  V30 44 1 3 42
M  V30 45 1 3 43
M  V30 46 1 4 44
M  V30 47 1 4 45
M  V30 48 1 7 46
M  V30 49 1 8 47
M  V30 50 1 10 48
M  V30 51 1 13 49
M  V30 52 1 14 50 CFG=3
M  V30 53 1 15 51
M  V30 54 1 15 52
M  V30 55 1 17 53
M  V30 56 1 17 54
M  V30 57 1 19 55
M  V30 58 1 20 56
M  V30 59 1 21 57
M  V30 60 1 22 58
M  V30 61 1 23 59
M  V30 62 1 26 60
M  V30 63 1 27 61
M  V30 64 1 27 62
M  V30 65 1 28 63
M  V30 66 1 28 64
M  V30 67 1 30 65
M  V30 68 1 31 66
M  V30 69 1 32 67
M  V30 70 1 33 68
M  V30 71 1 34 69
M  V30 72 1 35 70
M  V30 73 1 36 71
M  V30 END BOND
M  V30 END CTAB
M  END
>  <Dataset>  (573) 
ChEMBL_Kinases

>  <Ligand_Instance>  (573) 
nan

>  <PDB_ID>  (573) 
nan

>  <Standardized_SMILES>  (573) 
CCCCOc1ccc(NC(=O)N[C@@H](COCc2ccccc2)C(=O)NCCc2ccccc2)cc1

>  <Name>  (573) 
nan

>  <Pocket>  (573) 
nan

>  <ATP_Site>  (573) 
nan

>  <Peripheral>  (573) 
nan

>  <Num_H_Atoms_ProtBoundConf>  (573) 
nan

>  <Num_Resolved_Atoms>  (573) 
nan

>  <Num_Not_Resolved_Atoms>  (573) 
nan

$$$$
CHEMBL3691596
     RDKit          3D

  0  0  0  0  0  0  0  0  0  0999 V3000
M  V30 BEGIN CTAB
M  V30 COUNTS 77 82 0 0 0
M  V30 BEGIN ATOM
M  V30 1 C -1.803787 6.288109 -1.628187 0
M  V30 2 N -1.214928 5.179427 -2.360025 0
M  V30 3 C 0.116721 5.225002 -2.953053 0
M  V30 4 C -2.224183 4.186155 -2.306347 0
M  V30 5 O -3.173388 4.708373 -1.649768 0
M  V30 6 C -2.437184 2.833871 -2.771810 0
M  V30 7 C -2.492347 2.372063 -4.070122 0
M  V30 8 C -2.719896 1.010978 -4.054031 0
M  V30 9 C -2.864215 0.042307 -5.025682 0
M  V30 10 N -3.084619 -1.241092 -4.687983 0
M  V30 11 C -3.158292 -1.538093 -3.371839 0
M  V30 12 N -3.370113 -2.804480 -2.758105 0
M  V30 13 C -2.314310 -3.528664 -2.143185 0
M  V30 14 C -1.060157 -2.951667 -2.146069 0
M  V30 15 C -0.049076 -3.641382 -1.541610 0
M  V30 16 C -0.283258 -4.872011 -0.950459 0
M  V30 17 C 0.623805 -5.759246 -0.249208 0
M  V30 18 O 0.756904 -6.944693 -0.706248 0
M  V30 19 N 1.342299 -5.341555 0.902816 0
M  V30 20 C 1.366486 -4.075443 1.596474 0
M  V30 21 C 2.736576 -3.562247 1.906476 0
M  V30 22 C 3.589297 -3.594837 0.660546 0
M  V30 23 C 4.037017 -5.028952 0.550980 0
M  V30 24 C 3.574163 -5.637844 1.865376 0
M  V30 25 C 2.230225 -6.246825 1.606217 0
M  V30 26 N 3.375118 -4.529931 2.781184 0
M  V30 27 C -1.579748 -5.397860 -0.984966 0
M  V30 28 N -2.582425 -4.724307 -1.579785 0
M  V30 29 N -3.018565 -0.600580 -2.417946 0
M  V30 30 C -2.793028 0.710964 -2.708514 0
M  V30 31 N -2.622058 1.808777 -1.928638 0
M  V30 32 C -2.654457 1.682394 -0.508761 0
M  V30 33 C -3.619534 1.152347 0.319636 0
M  V30 34 C -3.397733 1.137552 1.685646 0
M  V30 35 C -2.227269 1.646051 2.208090 0
M  V30 36 C -1.239503 2.185310 1.400434 0
M  V30 37 C -0.009638 2.709178 2.035447 0
M  V30 38 C 0.965285 3.293062 1.039096 0
M  V30 39 C -0.272808 3.728351 3.107255 0
M  V30 40 C 0.745383 1.551351 2.701868 0
M  V30 41 C -1.472977 2.195018 0.035024 0
M  V30 42 H -2.757403 6.651612 -2.062711 0
M  V30 43 H -1.137067 7.176290 -1.615732 0
M  V30 44 H -2.036274 6.047289 -0.573074 0
M  V30 45 H 0.541941 4.205782 -3.066519 0
M  V30 46 H 0.823360 5.792314 -2.342048 0
M  V30 47 H 0.119475 5.668715 -3.974411 0
M  V30 48 H -2.373694 2.987742 -4.955719 0
M  V30 49 H -2.801261 0.304995 -6.080248 0
M  V30 50 H -4.345810 -3.174426 -2.783941 0
M  V30 51 H -0.849097 -1.995403 -2.597046 0
M  V30 52 H 0.969322 -3.328403 -1.460805 0
M  V30 53 H 0.847023 -4.258363 2.574827 0
M  V30 54 H 0.712327 -3.309956 1.086450 0
M  V30 55 H 2.656283 -2.574374 2.358230 0
M  V30 56 H 3.031345 -3.303860 -0.243955 0
M  V30 57 H 4.494271 -2.957320 0.793622 0
M  V30 58 H 3.596546 -5.557753 -0.299442 0
M  V30 59 H 5.132034 -5.106996 0.465982 0
M  V30 60 H 4.241930 -6.398972 2.267352 0
M  V30 61 H 1.723293 -6.546457 2.553253 0
M  V30 62 H 2.379686 -7.151546 0.971229 0
M  V30 63 H 4.287868 -4.152620 3.108266 0
M  V30 64 H -1.895647 -6.354432 -0.560653 0
M  V30 65 H -4.478976 0.793551 -0.236327 0
M  V30 66 H -4.197443 0.708113 2.266675 0
M  V30 67 H -2.157441 1.583170 3.282144 0
M  V30 68 H 0.542944 4.052818 0.374056 0
M  V30 69 H 1.750546 3.817561 1.658765 0
M  V30 70 H 1.519263 2.484064 0.517562 0
M  V30 71 H -0.451353 4.744538 2.733629 0
M  V30 72 H 0.561961 3.682240 3.842373 0
M  V30 73 H -1.183226 3.365025 3.656343 0
M  V30 74 H 1.042553 0.789573 1.963649 0
M  V30 75 H 0.205715 1.151180 3.566069 0
M  V30 76 H 1.705883 1.987999 3.083967 0
M  V30 77 H -0.634863 2.639687 -0.508197 0
M  V30 END ATOM
M  V30 BEGIN BOND
M  V30 1 1 1 2
M  V30 2 1 2 3
M  V30 3 1 2 4
M  V30 4 2 4 5
M  V30 5 1 4 6
M  V30 6 2 6 7
M  V30 7 1 7 8
M  V30 8 2 8 9
M  V30 9 1 9 10
M  V30 10 2 10 11
M  V30 11 1 11 12
M  V30 12 1 12 13
M  V30 13 2 13 14
M  V30 14 1 14 15
M  V30 15 2 15 16
M  V30 16 1 16 17
M  V30 17 2 17 18
M  V30 18 1 17 19
M  V30 19 1 19 20
M  V30 20 1 20 21
M  V30 21 1 21 22
M  V30 22 1 22 23
M  V30 23 1 23 24
M  V30 24 1 24 25
M  V30 25 1 24 26
M  V30 26 1 16 27
M  V30 27 2 27 28
M  V30 28 1 11 29
M  V30 29 2 29 30
M  V30 30 1 30 31
M  V30 31 1 31 32
M  V30 32 2 32 33
M  V30 33 1 33 34
M  V30 34 2 34 35
M  V30 35 1 35 36
M  V30 36 1 36 37
M  V30 37 1 37 38
M  V30 38 1 37 39
M  V30 39 1 37 40
M  V30 40 2 36 41
M  V30 41 1 31 6
M  V30 42 1 41 32
M  V30 43 1 30 8
M  V30 44 1 28 13
M  V30 45 1 25 19
M  V30 46 1 26 21
M  V30 47 1 1 42
M  V30 48 1 1 43
M  V30 49 1 1 44
M  V30 50 1 3 45
M  V30 51 1 3 46
M  V30 52 1 3 47
M  V30 53 1 7 48
M  V30 54 1 9 49
M  V30 55 1 12 50
M  V30 56 1 14 51
M  V30 57 1 15 52
M  V30 58 1 20 53
M  V30 59 1 20 54
M  V30 60 1 21 55
M  V30 61 1 22 56
M  V30 62 1 22 57
M  V30 63 1 23 58
M  V30 64 1 23 59
M  V30 65 1 24 60
M  V30 66 1 25 61
M  V30 67 1 25 62
M  V30 68 1 26 63
M  V30 69 1 27 64
M  V30 70 1 33 65
M  V30 71 1 34 66
M  V30 72 1 35 67
M  V30 73 1 38 68
M  V30 74 1 38 69
M  V30 75 1 38 70
M  V30 76 1 39 71
M  V30 77 1 39 72
M  V30 78 1 39 73
M  V30 79 1 40 74
M  V30 80 1 40 75
M  V30 81 1 40 76
M  V30 82 1 41 77
M  V30 END BOND
M  V30 END CTAB
M  END
>  <Dataset>  (574) 
ChEMBL_Kinases

>  <Ligand_Instance>  (574) 
nan

>  <PDB_ID>  (574) 
nan

>  <Standardized_SMILES>  (574) 
CN(C)C(=O)c1cc2cnc(Nc3ccc(C(=O)N4CC5CCC(C4)N5)cn3)nc2n1-c1cccc(C(C)(C)C)c1

>  <Name>  (574) 
nan

>  <Pocket>  (574) 
nan

>  <ATP_Site>  (574) 
nan

>  <Peripheral>  (574) 
nan

>  <Num_H_Atoms_ProtBoundConf>  (574) 
nan

>  <Num_Resolved_Atoms>  (574) 
nan

>  <Num_Not_Resolved_Atoms>  (574) 
nan

$$$$
CHEMBL3715806
     RDKit          3D

  0  0  0  0  0  0  0  0  0  0999 V3000
M  V30 BEGIN CTAB
M  V30 COUNTS 73 77 0 0 0
M  V30 BEGIN ATOM
M  V30 1 C 3.027866 -2.626805 6.928173 0
M  V30 2 C 2.801278 -3.819678 6.055669 0
M  V30 3 C 1.644246 -3.662814 5.138348 0
M  V30 4 C 1.790391 -2.525305 4.206434 0
M  V30 5 O 1.891209 -1.241606 4.776626 0
M  V30 6 C 1.938319 -0.159298 3.890252 0
M  V30 7 C 1.898749 -0.549579 2.591880 0
M  V30 8 C 1.900762 0.416547 1.619516 0
M  V30 9 C 1.942902 1.734984 1.946393 0
M  V30 10 C 1.642442 2.799763 0.943341 0
M  V30 11 O 1.771621 3.911069 0.468330 0
M  V30 12 N 0.667717 2.439691 -0.072497 0
M  V30 13 C -0.294928 2.092507 -1.080143 0 CFG=1
M  V30 14 C 0.191579 1.641774 -2.390013 0
M  V30 15 C 1.168590 0.554111 -2.435400 0
M  V30 16 C 2.312063 0.791172 -3.249474 0
M  V30 17 N 3.122470 -0.273117 -3.329692 0
M  V30 18 C 2.586789 -1.260379 -2.593157 0
M  V30 19 C 2.940108 -2.542439 -2.262705 0
M  V30 20 C 2.123942 -3.291470 -1.409532 0
M  V30 21 C 0.976377 -2.740973 -0.909567 0
M  V30 22 C 0.597854 -1.446418 -1.229708 0
M  V30 23 C 1.431801 -0.746654 -2.074063 0
M  V30 24 C -1.548998 1.529407 -0.551072 0
M  V30 25 O -1.741734 1.646991 0.689994 0
M  V30 26 N -2.550003 0.861296 -1.255150 0
M  V30 27 C -3.801328 0.253558 -0.976551 0
M  V30 28 C -3.702560 -1.049510 -0.200114 0
M  V30 29 C -3.037970 -2.165744 -0.913873 0
M  V30 30 C -2.829077 -1.928292 -2.367091 0
M  V30 31 C -3.958855 -1.140846 -2.946606 0
M  V30 32 C -4.445115 -1.566790 -4.193419 0
M  V30 33 C -5.480071 -0.898743 -4.774714 0
M  V30 34 C -5.978351 0.159396 -4.091421 0
M  V30 35 C -5.529308 0.597036 -2.880672 0
M  V30 36 C -4.485272 -0.036930 -2.237631 0
M  V30 37 C 1.997530 2.183994 3.275015 0
M  V30 38 C 1.995774 1.177093 4.270953 0
M  V30 39 H 3.596078 -1.826867 6.365802 0
M  V30 40 H 2.010337 -2.250993 7.200722 0
M  V30 41 H 3.656013 -2.866712 7.793823 0
M  V30 42 H 3.695756 -4.088473 5.416575 0
M  V30 43 H 2.566801 -4.707400 6.720632 0
M  V30 44 H 1.491440 -4.582560 4.512881 0
M  V30 45 H 0.666672 -3.568196 5.689542 0
M  V30 46 H 2.702532 -2.671599 3.543250 0
M  V30 47 H 0.900725 -2.539476 3.503930 0
M  V30 48 H 1.873054 -1.515754 2.096246 0
M  V30 49 H 1.893102 0.265636 0.563789 0
M  V30 50 H 0.415341 1.389466 0.046899 0
M  V30 51 H -0.703717 3.213776 -1.340541 0
M  V30 52 H 0.578689 2.549714 -2.952995 0
M  V30 53 H -0.661359 1.345205 -3.095110 0
M  V30 54 H 2.694189 1.633875 -3.828829 0
M  V30 55 H 4.029938 -0.443913 -3.819770 0
M  V30 56 H 3.853166 -2.919268 -2.679956 0
M  V30 57 H 2.479377 -4.278375 -1.216854 0
M  V30 58 H 0.401325 -3.368232 -0.263696 0
M  V30 59 H -0.283259 -1.025405 -0.824134 0
M  V30 60 H -2.238283 0.836844 -2.251927 0
M  V30 61 H -4.442125 0.879404 -0.311456 0
M  V30 62 H -4.753733 -1.335624 0.019578 0
M  V30 63 H -3.280905 -0.864254 0.831111 0
M  V30 64 H -2.130498 -2.452101 -0.349579 0
M  V30 65 H -3.673650 -3.104226 -0.845156 0
M  V30 66 H -2.797033 -2.898301 -2.900809 0
M  V30 67 H -1.849980 -1.451233 -2.595321 0
M  V30 68 H -3.987115 -2.415528 -4.666234 0
M  V30 69 H -5.796054 -1.276406 -5.733407 0
M  V30 70 H -6.810169 0.692884 -4.583795 0
M  V30 71 H -5.905048 1.416669 -2.334722 0
M  V30 72 H 2.034058 3.211705 3.554619 0
M  V30 73 H 2.036254 1.393093 5.321357 0
M  V30 END ATOM
M  V30 BEGIN BOND
M  V30 1 1 1 2
M  V30 2 1 2 3
M  V30 3 1 3 4
M  V30 4 1 4 5
M  V30 5 1 5 6
M  V30 6 2 6 7
M  V30 7 1 7 8
M  V30 8 2 8 9
M  V30 9 1 9 10
M  V30 10 2 10 11
M  V30 11 1 10 12
M  V30 12 1 12 13
M  V30 13 1 13 14
M  V30 14 1 14 15
M  V30 15 2 15 16
M  V30 16 1 16 17
M  V30 17 1 17 18
M  V30 18 2 18 19
M  V30 19 1 19 20
M  V30 20 2 20 21
M  V30 21 1 21 22
M  V30 22 2 22 23
M  V30 23 1 13 24
M  V30 24 2 24 25
M  V30 25 1 24 26
M  V30 26 1 26 27
M  V30 27 1 27 28
M  V30 28 1 28 29
M  V30 29 1 29 30
M  V30 30 1 30 31
M  V30 31 2 31 32
M  V30 32 1 32 33
M  V30 33 2 33 34
M  V30 34 1 34 35
M  V30 35 2 35 36
M  V30 36 1 9 37
M  V30 37 2 37 38
M  V30 38 1 38 6
M  V30 39 1 23 15
M  V30 40 1 36 27
M  V30 41 1 23 18
M  V30 42 1 36 31
M  V30 43 1 1 39
M  V30 44 1 1 40
M  V30 45 1 1 41
M  V30 46 1 2 42
M  V30 47 1 2 43
M  V30 48 1 3 44
M  V30 49 1 3 45
M  V30 50 1 4 46
M  V30 51 1 4 47
M  V30 52 1 7 48
M  V30 53 1 8 49
M  V30 54 1 12 50
M  V30 55 1 13 51 CFG=3
M  V30 56 1 14 52
M  V30 57 1 14 53
M  V30 58 1 16 54
M  V30 59 1 17 55
M  V30 60 1 19 56
M  V30 61 1 20 57
M  V30 62 1 21 58
M  V30 63 1 22 59
M  V30 64 1 26 60
M  V30 65 1 27 61
M  V30 66 1 28 62
M  V30 67 1 28 63
M  V30 68 1 29 64
M  V30 69 1 29 65
M  V30 70 1 30 66
M  V30 71 1 30 67
M  V30 72 1 32 68
M  V30 73 1 33 69
M  V30 74 1 34 70
M  V30 75 1 35 71
M  V30 76 1 37 72
M  V30 77 1 38 73
M  V30 END BOND
M  V30 END CTAB
M  END
>  <Dataset>  (575) 
ChEMBL_Kinases

>  <Ligand_Instance>  (575) 
nan

>  <PDB_ID>  (575) 
nan

>  <Standardized_SMILES>  (575) 
CCCCOc1ccc(C(=O)N[C@@H](Cc2c[nH]c3ccccc23)C(=O)NC2CCCc3ccccc32)cc1

>  <Name>  (575) 
nan

>  <Pocket>  (575) 
nan

>  <ATP_Site>  (575) 
nan

>  <Peripheral>  (575) 
nan

>  <Num_H_Atoms_ProtBoundConf>  (575) 
nan

>  <Num_Resolved_Atoms>  (575) 
nan

>  <Num_Not_Resolved_Atoms>  (575) 
nan

$$$$
CHEMBL3715872
     RDKit          3D

  0  0  0  0  0  0  0  0  0  0999 V3000
M  V30 BEGIN CTAB
M  V30 COUNTS 65 67 0 0 0
M  V30 BEGIN ATOM
M  V30 1 C -0.304469 -0.479217 6.175020 0
M  V30 2 C 0.241058 0.130227 7.452198 0
M  V30 3 C 1.195529 1.263694 7.071417 0
M  V30 4 C 2.335303 0.770220 6.244302 0
M  V30 5 C 3.285344 1.890981 5.862768 0
M  V30 6 C 2.578025 2.961633 5.057583 0
M  V30 7 C 1.997584 2.419491 3.784695 0
M  V30 8 O 1.328475 3.397200 3.007676 0
M  V30 9 C 0.726812 3.044613 1.780036 0
M  V30 10 C 0.081150 4.017566 1.044650 0
M  V30 11 C -0.511113 3.649993 -0.171608 0
M  V30 12 C -0.441876 2.344507 -0.609460 0
M  V30 13 C -1.075474 2.013034 -1.880967 0
M  V30 14 O -1.656453 2.979322 -2.482131 0
M  V30 15 N -1.108226 0.747733 -2.501339 0
M  V30 16 C -1.819132 0.799664 -3.737833 0
M  V30 17 C -1.855314 -0.527945 -4.394364 0
M  V30 18 O -2.457187 -0.654288 -5.514834 0
M  V30 19 N -1.281588 -1.727654 -3.915572 0
M  V30 20 C -1.340507 -3.006056 -4.588830 0
M  V30 21 C 0.044541 -3.414608 -4.964611 0
M  V30 22 C 0.370874 -4.856504 -4.734033 0
M  V30 23 C 0.073332 -5.179491 -3.284585 0
M  V30 24 C -1.393867 -5.064748 -3.105412 0
M  V30 25 C -2.189233 -5.928492 -2.345255 0
M  V30 26 C -3.539947 -5.734650 -2.243495 0
M  V30 27 C -4.174030 -4.696102 -2.874148 0
M  V30 28 C -3.412992 -3.812033 -3.642711 0
M  V30 29 C -2.047158 -4.023984 -3.734142 0
M  V30 30 C 0.215531 1.409441 0.162714 0
M  V30 31 C 0.811658 1.729391 1.365858 0
M  V30 32 H 0.376640 -1.216680 5.712343 0
M  V30 33 H -1.263941 -1.028663 6.368849 0
M  V30 34 H -0.501557 0.317147 5.423954 0
M  V30 35 H -0.613868 0.537118 8.026334 0
M  V30 36 H 0.846740 -0.588770 8.039265 0
M  V30 37 H 1.576972 1.773897 7.976486 0
M  V30 38 H 0.625657 2.017703 6.485111 0
M  V30 39 H 2.957198 0.052215 6.852848 0
M  V30 40 H 1.991158 0.187320 5.375150 0
M  V30 41 H 3.641040 2.354100 6.794442 0
M  V30 42 H 4.148605 1.479023 5.327115 0
M  V30 43 H 1.849168 3.452225 5.714686 0
M  V30 44 H 3.399012 3.667857 4.736016 0
M  V30 45 H 2.851809 2.047124 3.167556 0
M  V30 46 H 1.361846 1.526836 3.963079 0
M  V30 47 H 0.018280 5.051660 1.377980 0
M  V30 48 H -1.014364 4.456494 -0.724071 0
M  V30 49 H -0.609153 0.026241 -1.937977 0
M  V30 50 H -1.398084 1.552366 -4.433959 0
M  V30 51 H -2.853708 1.157898 -3.510341 0
M  V30 52 H -0.776204 -1.685088 -3.005184 0
M  V30 53 H -1.928568 -2.876089 -5.540493 0
M  V30 54 H 0.788824 -2.820533 -4.365063 0
M  V30 55 H 0.253525 -3.112696 -6.018949 0
M  V30 56 H -0.164265 -5.545598 -5.410453 0
M  V30 57 H 1.478963 -4.952135 -4.838554 0
M  V30 58 H 0.536875 -4.397631 -2.650511 0
M  V30 59 H 0.418316 -6.188948 -2.981172 0
M  V30 60 H -1.652952 -6.745048 -1.855446 0
M  V30 61 H -4.137115 -6.430748 -1.638688 0
M  V30 62 H -5.252897 -4.517236 -2.810211 0
M  V30 63 H -3.932896 -2.999010 -4.132273 0
M  V30 64 H 0.285795 0.382227 -0.153650 0
M  V30 65 H 1.335429 0.994675 1.986987 0
M  V30 END ATOM
M  V30 BEGIN BOND
M  V30 1 1 1 2
M  V30 2 1 2 3
M  V30 3 1 3 4
M  V30 4 1 4 5
M  V30 5 1 5 6
M  V30 6 1 6 7
M  V30 7 1 7 8
M  V30 8 1 8 9
M  V30 9 2 9 10
M  V30 10 1 10 11
M  V30 11 2 11 12
M  V30 12 1 12 13
M  V30 13 2 13 14
M  V30 14 1 13 15
M  V30 15 1 15 16
M  V30 16 1 16 17
M  V30 17 2 17 18
M  V30 18 1 17 19
M  V30 19 1 19 20
M  V30 20 1 20 21
M  V30 21 1 21 22
M  V30 22 1 22 23
M  V30 23 1 23 24
M  V30 24 2 24 25
M  V30 25 1 25 26
M  V30 26 2 26 27
M  V30 27 1 27 28
M  V30 28 2 28 29
M  V30 29 1 12 30
M  V30 30 2 30 31
M  V30 31 1 31 9
M  V30 32 1 29 20
M  V30 33 1 29 24
M  V30 34 1 1 32
M  V30 35 1 1 33
M  V30 36 1 1 34
M  V30 37 1 2 35
M  V30 38 1 2 36
M  V30 39 1 3 37
M  V30 40 1 3 38
M  V30 41 1 4 39
M  V30 42 1 4 40
M  V30 43 1 5 41
M  V30 44 1 5 42
M  V30 45 1 6 43
M  V30 46 1 6 44
M  V30 47 1 7 45
M  V30 48 1 7 46
M  V30 49 1 10 47
M  V30 50 1 11 48
M  V30 51 1 15 49
M  V30 52 1 16 50
M  V30 53 1 16 51
M  V30 54 1 19 52
M  V30 55 1 20 53
M  V30 56 1 21 54
M  V30 57 1 21 55
M  V30 58 1 22 56
M  V30 59 1 22 57
M  V30 60 1 23 58
M  V30 61 1 23 59
M  V30 62 1 25 60
M  V30 63 1 26 61
M  V30 64 1 27 62
M  V30 65 1 28 63
M  V30 66 1 30 64
M  V30 67 1 31 65
M  V30 END BOND
M  V30 END CTAB
M  END
>  <Dataset>  (576) 
ChEMBL_Kinases

>  <Ligand_Instance>  (576) 
nan

>  <PDB_ID>  (576) 
nan

>  <Standardized_SMILES>  (576) 
CCCCCCCOc1ccc(C(=O)NCC(=O)NC2CCCc3ccccc32)cc1

>  <Name>  (576) 
nan

>  <Pocket>  (576) 
nan

>  <ATP_Site>  (576) 
nan

>  <Peripheral>  (576) 
nan

>  <Num_H_Atoms_ProtBoundConf>  (576) 
nan

>  <Num_Resolved_Atoms>  (576) 
nan

>  <Num_Not_Resolved_Atoms>  (576) 
nan

$$$$
CHEMBL218141
     RDKit          3D

  0  0  0  0  0  0  0  0  0  0999 V3000
M  V30 BEGIN CTAB
M  V30 COUNTS 48 49 0 0 0
M  V30 BEGIN ATOM
M  V30 1 C 4.851695 -4.752867 1.601795 0
M  V30 2 S 5.349988 -4.178406 0.002028 0
M  V30 3 O 5.127506 -5.338901 -0.956326 0
M  V30 4 O 6.801581 -3.772429 0.038312 0
M  V30 5 C 4.396487 -2.811123 -0.499750 0
M  V30 6 C 3.222676 -3.029002 -1.220367 0
M  V30 7 C 2.470487 -1.931726 -1.614744 0
M  V30 8 C 2.815429 -0.607504 -1.334203 0
M  V30 9 C 1.878498 0.420700 -1.848063 0
M  V30 10 N 0.869599 0.662296 -0.852614 0
M  V30 11 C 0.999008 1.409315 0.334815 0
M  V30 12 O 2.086461 1.957556 0.627388 0
M  V30 13 C -0.118825 1.571469 1.260592 0
M  V30 14 C -0.004386 2.292996 2.422077 0
M  V30 15 C -1.053943 2.444048 3.291936 0
M  V30 16 N -0.948890 3.189374 4.498546 0
M  V30 17 C -2.222351 1.819158 2.910297 0
M  V30 18 C -3.330666 1.961776 3.800644 0
M  V30 19 N -4.214949 2.087768 4.533082 0
M  V30 20 C -2.373951 1.094318 1.764839 0
M  V30 21 C -3.552444 0.412471 1.291924 0
M  V30 22 C -4.786056 0.166539 1.596274 0
M  V30 23 C -5.902307 -0.562709 1.005515 0
M  V30 24 C -5.576600 -1.216121 -0.312284 0
M  V30 25 O -6.767562 -1.863502 -0.718551 0
M  V30 26 N -1.279496 1.014947 0.990791 0
M  V30 27 C 3.981910 -0.424518 -0.619866 0
M  V30 28 C 4.732090 -1.513367 -0.226304 0
M  V30 29 H 5.639780 -4.515524 2.373594 0
M  V30 30 H 3.930840 -4.224053 1.914392 0
M  V30 31 H 4.729447 -5.847615 1.640635 0
M  V30 32 H 2.895918 -4.034761 -1.472245 0
M  V30 33 H 1.565645 -2.164632 -2.173695 0
M  V30 34 H 2.449245 1.335015 -2.114363 0
M  V30 35 H 1.417721 0.077651 -2.787098 0
M  V30 36 H -0.083868 0.243253 -1.005820 0
M  V30 37 H 0.934805 2.749498 2.651434 0
M  V30 38 H -0.284396 2.956422 5.295440 0
M  V30 39 H -1.481893 4.048042 4.787736 0
M  V30 40 H -3.489260 -0.127037 0.333109 0
M  V30 41 H -4.988146 0.646939 2.536724 0
M  V30 42 H -6.776321 0.121632 0.929480 0
M  V30 43 H -6.215970 -1.353671 1.737577 0
M  V30 44 H -5.349018 -0.508516 -1.107631 0
M  V30 45 H -4.836431 -2.005201 -0.137794 0
M  V30 46 H -6.634972 -2.339889 -1.590901 0
M  V30 47 H 4.224520 0.598856 -0.419040 0
M  V30 48 H 5.645393 -1.326177 0.335408 0
M  V30 END ATOM
M  V30 BEGIN BOND
M  V30 1 1 1 2
M  V30 2 2 2 3
M  V30 3 2 2 4
M  V30 4 1 2 5
M  V30 5 2 5 6
M  V30 6 1 6 7
M  V30 7 2 7 8
M  V30 8 1 8 9
M  V30 9 1 9 10
M  V30 10 1 10 11
M  V30 11 2 11 12
M  V30 12 1 11 13
M  V30 13 2 13 14
M  V30 14 1 14 15
M  V30 15 1 15 16
M  V30 16 2 15 17
M  V30 17 1 17 18
M  V30 18 3 18 19
M  V30 19 1 17 20
M  V30 20 1 20 21
M  V30 21 2 21 22
M  V30 22 1 22 23
M  V30 23 1 23 24
M  V30 24 1 24 25
M  V30 25 2 20 26
M  V30 26 1 8 27
M  V30 27 2 27 28
M  V30 28 1 28 5
M  V30 29 1 26 13
M  V30 30 1 1 29
M  V30 31 1 1 30
M  V30 32 1 1 31
M  V30 33 1 6 32
M  V30 34 1 7 33
M  V30 35 1 9 34
M  V30 36 1 9 35
M  V30 37 1 10 36
M  V30 38 1 14 37
M  V30 39 1 16 38
M  V30 40 1 16 39
M  V30 41 1 21 40
M  V30 42 1 22 41
M  V30 43 1 23 42
M  V30 44 1 23 43
M  V30 45 1 24 44
M  V30 46 1 24 45
M  V30 47 1 25 46
M  V30 48 1 27 47
M  V30 49 1 28 48
M  V30 END BOND
M  V30 END CTAB
M  END
>  <Dataset>  (577) 
ChEMBL_Kinases

>  <Ligand_Instance>  (577) 
nan

>  <PDB_ID>  (577) 
nan

>  <Standardized_SMILES>  (577) 
CS(=O)(=O)c1ccc(CNC(=O)c2cc(N)c(C#N)c(/C=C/CCO)n2)cc1

>  <Name>  (577) 
nan

>  <Pocket>  (577) 
nan

>  <ATP_Site>  (577) 
nan

>  <Peripheral>  (577) 
nan

>  <Num_H_Atoms_ProtBoundConf>  (577) 
nan

>  <Num_Resolved_Atoms>  (577) 
nan

>  <Num_Not_Resolved_Atoms>  (577) 
nan

$$$$
CHEMBL3691580
     RDKit          3D

  0  0  0  0  0  0  0  0  0  0999 V3000
M  V30 BEGIN CTAB
M  V30 COUNTS 83 88 0 0 0
M  V30 BEGIN ATOM
M  V30 1 C 3.525857 -6.188691 2.749659 0
M  V30 2 N 2.849651 -5.240696 1.870053 0
M  V30 3 C 1.412983 -5.549322 1.808216 0
M  V30 4 C 3.566684 -4.198580 1.213677 0
M  V30 5 O 4.794914 -4.319513 1.569292 0
M  V30 6 C 2.875406 -3.264817 0.343444 0
M  V30 7 C 2.162596 -3.901052 -0.677540 0
M  V30 8 C 1.537024 -2.917353 -1.446098 0
M  V30 9 C 0.707297 -2.979476 -2.574606 0
M  V30 10 N 0.251071 -1.799249 -3.092059 0
M  V30 11 C 0.607765 -0.616018 -2.509992 0
M  V30 12 N 0.012855 0.463664 -3.211414 0
M  V30 13 C -1.297853 0.908426 -2.799152 0
M  V30 14 C -1.971924 1.961051 -3.429139 0
M  V30 15 C -3.224120 2.350288 -3.001166 0
M  V30 16 C -3.812589 1.692319 -1.942131 0
M  V30 17 C -5.119749 1.972236 -1.361934 0
M  V30 18 O -4.921406 2.827319 -0.458310 0
M  V30 19 N -6.318760 1.325229 -1.827838 0
M  V30 20 C -6.319716 0.355996 -2.902470 0
M  V30 21 C -7.222226 -0.813026 -2.521763 0
M  V30 22 C -6.746648 -1.433915 -1.230626 0
M  V30 23 C -7.451330 -0.614303 -0.158929 0
M  V30 24 C -8.305458 0.344544 -0.932804 0
M  V30 25 C -7.569273 1.659786 -1.187453 0
M  V30 26 N -8.543929 -0.348537 -2.185522 0
M  V30 27 C -3.143039 0.657723 -1.327666 0
M  V30 28 N -1.919543 0.284633 -1.753091 0
M  V30 29 N 1.404980 -0.601263 -1.430756 0
M  V30 30 C 1.888547 -1.716249 -0.869816 0
M  V30 31 N 2.681420 -1.972952 0.185778 0
M  V30 32 C 3.210228 -0.932706 0.976259 0 CFG=1
M  V30 33 C 2.118346 -0.004471 1.534102 0
M  V30 34 C 2.839987 1.341680 1.707133 0
M  V30 35 C 3.991798 1.222170 2.661367 0 CFG=2
M  V30 36 C 5.183659 2.075536 2.332766 0
M  V30 37 C 6.322624 1.922121 3.317159 0
M  V30 38 C 4.820195 3.572057 2.411393 0
M  V30 39 C 5.763679 1.878939 0.966757 0
M  V30 40 C 4.297636 -0.167299 3.092574 0
M  V30 41 C 4.081543 -1.273069 2.110605 0
M  V30 42 H 4.631158 -6.179042 2.608969 0
M  V30 43 H 3.231879 -5.964757 3.817896 0
M  V30 44 H 3.191581 -7.234698 2.597792 0
M  V30 45 H 0.852817 -4.757228 1.279166 0
M  V30 46 H 0.989765 -5.704577 2.838637 0
M  V30 47 H 1.215714 -6.499136 1.272509 0
M  V30 48 H 2.008219 -4.952134 -0.973590 0
M  V30 49 H 0.440668 -3.929298 -3.016511 0
M  V30 50 H 0.421130 0.999688 -4.024931 0
M  V30 51 H -1.496176 2.457465 -4.248374 0
M  V30 52 H -3.782239 3.141340 -3.439744 0
M  V30 53 H -6.745192 0.764663 -3.841036 0
M  V30 54 H -5.277708 0.018718 -3.064259 0
M  V30 55 H -7.218415 -1.590297 -3.292189 0
M  V30 56 H -6.964351 -2.500690 -1.144456 0
M  V30 57 H -5.656178 -1.324747 -1.183048 0
M  V30 58 H -6.736177 -0.135333 0.521956 0
M  V30 59 H -8.065901 -1.327484 0.433847 0
M  V30 60 H -9.227594 0.504296 -0.340992 0
M  V30 61 H -7.358920 2.125915 -0.194271 0
M  V30 62 H -8.187380 2.356037 -1.760457 0
M  V30 63 H -9.108763 -1.197749 -1.958768 0
M  V30 64 H -3.504891 0.065260 -0.481640 0
M  V30 65 H 3.832400 -0.290165 0.267682 0
M  V30 66 H 1.299639 0.139829 0.817251 0
M  V30 67 H 1.794750 -0.343745 2.544006 0
M  V30 68 H 3.113320 1.617195 0.671860 0
M  V30 69 H 2.053389 2.062927 2.002937 0
M  V30 70 H 3.579004 1.716567 3.603639 0
M  V30 71 H 7.015710 1.110686 3.079184 0
M  V30 72 H 6.928243 2.850149 3.287321 0
M  V30 73 H 5.952322 1.873221 4.379844 0
M  V30 74 H 4.075236 3.838109 1.627620 0
M  V30 75 H 4.526632 3.827572 3.431122 0
M  V30 76 H 5.736817 4.125134 2.155730 0
M  V30 77 H 5.044106 1.901052 0.136384 0
M  V30 78 H 6.492378 1.044336 0.886629 0
M  V30 79 H 6.409017 2.789864 0.780949 0
M  V30 80 H 3.855451 -0.440014 4.099217 0
M  V30 81 H 5.401871 -0.161783 3.341247 0
M  V30 82 H 3.621893 -2.126177 2.649532 0
M  V30 83 H 5.070051 -1.652796 1.722788 0
M  V30 END ATOM
M  V30 BEGIN BOND
M  V30 1 1 1 2
M  V30 2 1 2 3
M  V30 3 1 2 4
M  V30 4 2 4 5
M  V30 5 1 4 6
M  V30 6 2 6 7
M  V30 7 1 7 8
M  V30 8 2 8 9
M  V30 9 1 9 10
M  V30 10 2 10 11
M  V30 11 1 11 12
M  V30 12 1 12 13
M  V30 13 2 13 14
M  V30 14 1 14 15
M  V30 15 2 15 16
M  V30 16 1 16 17
M  V30 17 2 17 18
M  V30 18 1 17 19
M  V30 19 1 19 20
M  V30 20 1 20 21
M  V30 21 1 21 22
M  V30 22 1 22 23
M  V30 23 1 23 24
M  V30 24 1 24 25
M  V30 25 1 24 26
M  V30 26 1 16 27
M  V30 27 2 27 28
M  V30 28 1 11 29
M  V30 29 2 29 30
M  V30 30 1 30 31
M  V30 31 1 31 32
M  V30 32 1 32 33
M  V30 33 1 33 34
M  V30 34 1 34 35
M  V30 35 1 35 36
M  V30 36 1 36 37
M  V30 37 1 36 38
M  V30 38 1 36 39
M  V30 39 1 35 40
M  V30 40 1 40 41
M  V30 41 1 31 6
M  V30 42 1 41 32
M  V30 43 1 30 8
M  V30 44 1 28 13
M  V30 45 1 25 19
M  V30 46 1 26 21
M  V30 47 1 1 42
M  V30 48 1 1 43
M  V30 49 1 1 44
M  V30 50 1 3 45
M  V30 51 1 3 46
M  V30 52 1 3 47
M  V30 53 1 7 48
M  V30 54 1 9 49
M  V30 55 1 12 50
M  V30 56 1 14 51
M  V30 57 1 15 52
M  V30 58 1 20 53
M  V30 59 1 20 54
M  V30 60 1 21 55
M  V30 61 1 22 56
M  V30 62 1 22 57
M  V30 63 1 23 58
M  V30 64 1 23 59
M  V30 65 1 24 60
M  V30 66 1 25 61
M  V30 67 1 25 62
M  V30 68 1 26 63
M  V30 69 1 27 64
M  V30 70 1 32 65 CFG=3
M  V30 71 1 33 66
M  V30 72 1 33 67
M  V30 73 1 34 68
M  V30 74 1 34 69
M  V30 75 1 35 70 CFG=1
M  V30 76 1 37 71
M  V30 77 1 37 72
M  V30 78 1 37 73
M  V30 79 1 38 74
M  V30 80 1 38 75
M  V30 81 1 38 76
M  V30 82 1 39 77
M  V30 83 1 39 78
M  V30 84 1 39 79
M  V30 85 1 40 80
M  V30 86 1 40 81
M  V30 87 1 41 82
M  V30 88 1 41 83
M  V30 END BOND
M  V30 END CTAB
M  END
>  <Dataset>  (578) 
ChEMBL_Kinases

>  <Ligand_Instance>  (578) 
nan

>  <PDB_ID>  (578) 
nan

>  <Standardized_SMILES>  (578) 
CN(C)C(=O)c1cc2cnc(Nc3ccc(C(=O)N4CC5CCC(C4)N5)cn3)nc2n1[C@H]1CC[C@H](C(C)(C)C)CC1

>  <Name>  (578) 
nan

>  <Pocket>  (578) 
nan

>  <ATP_Site>  (578) 
nan

>  <Peripheral>  (578) 
nan

>  <Num_H_Atoms_ProtBoundConf>  (578) 
nan

>  <Num_Resolved_Atoms>  (578) 
nan

>  <Num_Not_Resolved_Atoms>  (578) 
nan

$$$$
CHEMBL3715942
     RDKit          3D

  0  0  0  0  0  0  0  0  0  0999 V3000
M  V30 BEGIN CTAB
M  V30 COUNTS 55 57 0 0 0
M  V30 BEGIN ATOM
M  V30 1 C 8.299695 -2.703588 5.238513 0
M  V30 2 C 7.709623 -3.616740 4.178885 0
M  V30 3 C 6.544296 -2.901944 3.555585 0
M  V30 4 C 5.283041 -3.070164 4.110215 0
M  V30 5 C 4.206217 -2.416217 3.542596 0
M  V30 6 C 4.316778 -1.594768 2.440909 0
M  V30 7 C 3.123482 -0.946108 1.909377 0
M  V30 8 C 2.070343 -0.560750 2.687672 0
M  V30 9 C 0.944543 0.050527 2.180775 0
M  V30 10 C 0.843215 0.302979 0.808861 0
M  V30 11 C -0.287921 0.939331 0.134827 0
M  V30 12 O -0.284686 1.132748 -1.128203 0
M  V30 13 N -1.441700 1.379248 0.800492 0
M  V30 14 C -2.569896 2.016409 0.103895 0
M  V30 15 C -3.043744 0.986683 -0.879745 0
M  V30 16 O -2.561005 -0.183840 -1.058612 0
M  V30 17 N -4.141483 1.221449 -1.764367 0
M  V30 18 C -4.571886 0.225364 -2.690610 0
M  V30 19 C -4.372647 0.792740 -4.098104 0
M  V30 20 C -6.005719 -0.179492 -2.510768 0
M  V30 21 C -6.972933 0.785726 -2.325557 0
M  V30 22 C -8.309006 0.486708 -2.154745 0
M  V30 23 C -8.695267 -0.858522 -2.170945 0
M  V30 24 C -7.752719 -1.846937 -2.353927 0
M  V30 25 C -6.418029 -1.497118 -2.521884 0
M  V30 26 C 1.921217 -0.093272 0.024752 0
M  V30 27 C 3.029865 -0.699995 0.556056 0
M  V30 28 C 5.587660 -1.432642 1.891768 0
M  V30 29 C 6.683707 -2.080974 2.447034 0
M  V30 30 H 8.061179 -3.120718 6.239218 0
M  V30 31 H 9.390397 -2.550534 5.124878 0
M  V30 32 H 7.837770 -1.685354 5.220717 0
M  V30 33 H 8.480274 -3.878298 3.421316 0
M  V30 34 H 7.304855 -4.536374 4.650795 0
M  V30 35 H 5.132801 -3.711615 4.986868 0
M  V30 36 H 3.248483 -2.569882 3.997464 0
M  V30 37 H 2.113458 -0.742010 3.769051 0
M  V30 38 H 0.098082 0.364581 2.775809 0
M  V30 39 H -1.489632 1.241182 1.845529 0
M  V30 40 H -2.270059 2.957798 -0.370130 0
M  V30 41 H -3.345343 2.265727 0.842216 0
M  V30 42 H -4.643955 2.135248 -1.739726 0
M  V30 43 H -3.999786 -0.707658 -2.658815 0
M  V30 44 H -5.364949 0.868163 -4.610829 0
M  V30 45 H -3.961616 1.823700 -4.076360 0
M  V30 46 H -3.717736 0.148710 -4.722509 0
M  V30 47 H -6.752763 1.848397 -2.300763 0
M  V30 48 H -9.090725 1.223187 -2.007224 0
M  V30 49 H -9.723044 -1.164072 -2.043667 0
M  V30 50 H -7.938097 -2.911297 -2.383506 0
M  V30 51 H -5.626684 -2.243708 -2.671116 0
M  V30 52 H 1.876684 0.087419 -1.046562 0
M  V30 53 H 3.831234 -0.978905 -0.131486 0
M  V30 54 H 5.690491 -0.795321 1.031983 0
M  V30 55 H 7.668721 -1.946141 2.009347 0
M  V30 END ATOM
M  V30 BEGIN BOND
M  V30 1 1 1 2
M  V30 2 1 2 3
M  V30 3 2 3 4
M  V30 4 1 4 5
M  V30 5 2 5 6
M  V30 6 1 6 7
M  V30 7 2 7 8
M  V30 8 1 8 9
M  V30 9 2 9 10
M  V30 10 1 10 11
M  V30 11 2 11 12
M  V30 12 1 11 13
M  V30 13 1 13 14
M  V30 14 1 14 15
M  V30 15 2 15 16
M  V30 16 1 15 17
M  V30 17 1 17 18
M  V30 18 1 18 19
M  V30 19 1 18 20
M  V30 20 2 20 21
M  V30 21 1 21 22
M  V30 22 2 22 23
M  V30 23 1 23 24
M  V30 24 2 24 25
M  V30 25 1 10 26
M  V30 26 2 26 27
M  V30 27 1 6 28
M  V30 28 2 28 29
M  V30 29 1 29 3
M  V30 30 1 27 7
M  V30 31 1 25 20
M  V30 32 1 1 30
M  V30 33 1 1 31
M  V30 34 1 1 32
M  V30 35 1 2 33
M  V30 36 1 2 34
M  V30 37 1 4 35
M  V30 38 1 5 36
M  V30 39 1 8 37
M  V30 40 1 9 38
M  V30 41 1 13 39
M  V30 42 1 14 40
M  V30 43 1 14 41
M  V30 44 1 17 42
M  V30 45 1 18 43
M  V30 46 1 19 44
M  V30 47 1 19 45
M  V30 48 1 19 46
M  V30 49 1 21 47
M  V30 50 1 22 48
M  V30 51 1 23 49
M  V30 52 1 24 50
M  V30 53 1 25 51
M  V30 54 1 26 52
M  V30 55 1 27 53
M  V30 56 1 28 54
M  V30 57 1 29 55
M  V30 END BOND
M  V30 END CTAB
M  END
>  <Dataset>  (579) 
ChEMBL_Kinases

>  <Ligand_Instance>  (579) 
nan

>  <PDB_ID>  (579) 
nan

>  <Standardized_SMILES>  (579) 
CCc1ccc(-c2ccc(C(=O)NCC(=O)NC(C)c3ccccc3)cc2)cc1

>  <Name>  (579) 
nan

>  <Pocket>  (579) 
nan

>  <ATP_Site>  (579) 
nan

>  <Peripheral>  (579) 
nan

>  <Num_H_Atoms_ProtBoundConf>  (579) 
nan

>  <Num_Resolved_Atoms>  (579) 
nan

>  <Num_Not_Resolved_Atoms>  (579) 
nan

$$$$
CHEMBL4451007
     RDKit          3D

  0  0  0  0  0  0  0  0  0  0999 V3000
M  V30 BEGIN CTAB
M  V30 COUNTS 57 60 0 0 0
M  V30 BEGIN ATOM
M  V30 1 C 5.134599 1.715067 5.214896 0
M  V30 2 C 4.564421 0.598732 4.373886 0
M  V30 3 C 3.508482 -0.083956 5.269617 0
M  V30 4 C 5.538616 -0.456899 3.988239 0
M  V30 5 C 3.875447 1.167272 3.184862 0
M  V30 6 C 2.573932 1.533841 2.794854 0
M  V30 7 C 2.597800 2.038037 1.465834 0
M  V30 8 C 1.206681 2.386090 1.211788 0
M  V30 9 O 0.163337 2.289136 1.873828 0
M  V30 10 N 0.914392 2.972055 -0.073537 0
M  V30 11 C -0.513616 3.191682 -0.083192 0
M  V30 12 C -1.306725 4.242441 0.271221 0
M  V30 13 C -2.670047 4.281864 0.206622 0
M  V30 14 C -3.310080 3.137760 -0.269797 0
M  V30 15 C -2.572452 2.012053 -0.656754 0
M  V30 16 N -3.351636 0.940434 -1.118271 0
M  V30 17 C -2.916619 -0.364135 -1.443756 0
M  V30 18 O -1.673462 -0.618640 -1.296671 0
M  V30 19 C -3.691705 -1.404526 -1.908296 0
M  V30 20 O -4.450899 -2.404867 -2.357573 0
M  V30 21 C -3.960717 -3.698070 -2.645599 0
M  V30 22 C -4.801194 -4.637292 -3.095349 0
M  V30 23 C -4.382833 -5.913864 -3.390433 0
M  V30 24 C -3.045680 -6.191436 -3.201955 0
M  V30 25 C -2.517904 -7.435239 -3.463264 0
M  V30 26 O -3.261864 -8.345260 -3.883332 0
M  V30 27 C -1.179236 -7.742531 -3.283395 0
M  V30 28 C -0.420686 -6.667296 -2.810220 0
M  V30 29 O -0.908192 -5.453233 -2.549151 0
M  V30 30 C -2.192663 -5.217625 -2.740336 0
M  V30 31 C -2.588297 -3.908117 -2.431353 0
M  V30 32 C -1.202430 2.070914 -0.552669 0
M  V30 33 N 3.886540 1.931564 1.188249 0
M  V30 34 O 4.616626 1.451308 2.126152 0
M  V30 35 H 4.323210 2.110734 5.857964 0
M  V30 36 H 5.614920 2.470493 4.579094 0
M  V30 37 H 5.880260 1.213047 5.898002 0
M  V30 38 H 3.055752 0.663015 5.948888 0
M  V30 39 H 3.934358 -0.967690 5.735785 0
M  V30 40 H 2.686783 -0.406972 4.574563 0
M  V30 41 H 5.702922 -1.201190 4.794150 0
M  V30 42 H 6.509767 0.010945 3.662198 0
M  V30 43 H 5.202401 -1.030876 3.097378 0
M  V30 44 H 1.923024 1.306583 3.663993 0
M  V30 45 H 1.638228 3.175060 -0.813831 0
M  V30 46 H -0.704331 5.073652 0.628393 0
M  V30 47 H -3.134960 5.197774 0.532457 0
M  V30 48 H -4.401205 3.239124 -0.297357 0
M  V30 49 H -4.397243 1.037016 -1.270137 0
M  V30 50 H -3.281468 -2.220875 -0.846333 0
M  V30 51 H -4.659331 -1.141255 -0.965871 0
M  V30 52 H -5.815401 -4.303387 -3.209899 0
M  V30 53 H -5.075612 -6.649392 -3.746137 0
M  V30 54 H -0.738629 -8.707743 -3.481651 0
M  V30 55 H 0.657080 -6.817598 -2.635729 0
M  V30 56 H -1.879203 -3.185821 -2.074917 0
M  V30 57 H -0.641246 1.204337 -0.855058 0
M  V30 END ATOM
M  V30 BEGIN BOND
M  V30 1 1 1 2
M  V30 2 1 2 3
M  V30 3 1 2 4
M  V30 4 1 2 5
M  V30 5 2 5 6
M  V30 6 1 6 7
M  V30 7 1 7 8
M  V30 8 2 8 9
M  V30 9 1 8 10
M  V30 10 1 10 11
M  V30 11 2 11 12
M  V30 12 1 12 13
M  V30 13 2 13 14
M  V30 14 1 14 15
M  V30 15 1 15 16
M  V30 16 1 16 17
M  V30 17 2 17 18
M  V30 18 1 17 19
M  V30 19 1 19 20
M  V30 20 1 20 21
M  V30 21 2 21 22
M  V30 22 1 22 23
M  V30 23 2 23 24
M  V30 24 1 24 25
M  V30 25 2 25 26
M  V30 26 1 25 27
M  V30 27 2 27 28
M  V30 28 1 28 29
M  V30 29 1 29 30
M  V30 30 2 30 31
M  V30 31 2 15 32
M  V30 32 2 7 33
M  V30 33 1 33 34
M  V30 34 1 34 5
M  V30 35 1 32 11
M  V30 36 1 31 21
M  V30 37 1 30 24
M  V30 38 1 1 35
M  V30 39 1 1 36
M  V30 40 1 1 37
M  V30 41 1 3 38
M  V30 42 1 3 39
M  V30 43 1 3 40
M  V30 44 1 4 41
M  V30 45 1 4 42
M  V30 46 1 4 43
M  V30 47 1 6 44
M  V30 48 1 10 45
M  V30 49 1 12 46
M  V30 50 1 13 47
M  V30 51 1 14 48
M  V30 52 1 16 49
M  V30 53 1 19 50
M  V30 54 1 19 51
M  V30 55 1 22 52
M  V30 56 1 23 53
M  V30 57 1 27 54
M  V30 58 1 28 55
M  V30 59 1 31 56
M  V30 60 1 32 57
M  V30 END BOND
M  V30 END CTAB
M  END
>  <Dataset>  (580) 
ChEMBL_Kinases

>  <Ligand_Instance>  (580) 
nan

>  <PDB_ID>  (580) 
nan

>  <Standardized_SMILES>  (580) 
CC(C)(C)c1cc(C(=O)Nc2cccc(NC(=O)COc3ccc4c(=O)ccoc4c3)c2)no1

>  <Name>  (580) 
nan

>  <Pocket>  (580) 
nan

>  <ATP_Site>  (580) 
nan

>  <Peripheral>  (580) 
nan

>  <Num_H_Atoms_ProtBoundConf>  (580) 
nan

>  <Num_Resolved_Atoms>  (580) 
nan

>  <Num_Not_Resolved_Atoms>  (580) 
nan

$$$$
CHEMBL4449296
     RDKit          3D

  0  0  0  0  0  0  0  0  0  0999 V3000
M  V30 BEGIN CTAB
M  V30 COUNTS 46 49 0 0 0
M  V30 BEGIN ATOM
M  V30 1 C 1.755909 -5.595890 3.145361 0
M  V30 2 S 1.511960 -5.676760 1.342778 0
M  V30 3 C 0.933004 -4.113240 0.685984 0
M  V30 4 N 1.782851 -3.141170 0.266546 0
M  V30 5 C 1.075450 -2.086162 -0.171900 0
M  V30 6 C 1.435915 -0.771613 -0.725046 0
M  V30 7 C 2.146839 -0.519743 -1.893253 0
M  V30 8 C 2.396222 0.787592 -2.255627 0
M  V30 9 N 1.985851 1.845867 -1.534447 0
M  V30 10 C 1.291886 1.678352 -0.391458 0
M  V30 11 N 0.793436 2.686666 0.481836 0
M  V30 12 C 1.737546 3.032122 1.515266 0
M  V30 13 O 2.842587 2.424202 1.514482 0
M  V30 14 C 1.345286 4.080485 2.512378 0
M  V30 15 C 1.719234 3.735741 3.965450 0
M  V30 16 C 2.432449 4.800957 3.186837 0
M  V30 17 C 1.032943 0.353465 -0.013987 0
M  V30 18 C -0.250537 -2.416616 -0.019052 0
M  V30 19 C -1.514565 -1.706427 -0.308928 0
M  V30 20 C -1.875050 -1.363995 -1.583343 0
M  V30 21 C -3.072957 -0.703967 -1.744811 0
M  V30 22 C -3.892784 -0.389662 -0.682822 0
M  V30 23 F -5.067149 0.266053 -0.923237 0
M  V30 24 C -3.535542 -0.733596 0.619437 0
M  V30 25 C -2.342925 -1.386936 0.747563 0
M  V30 26 N -0.340103 -3.666935 0.510277 0
M  V30 27 C -1.532141 -4.455194 0.855400 0
M  V30 28 H 2.830938 -5.632476 3.409853 0
M  V30 29 H 1.407463 -4.600714 3.489585 0
M  V30 30 H 1.147149 -6.356319 3.661621 0
M  V30 31 H 2.450645 -1.400978 -2.431717 0
M  V30 32 H 2.944137 0.955617 -3.156943 0
M  V30 33 H -0.160512 3.149674 0.404781 0
M  V30 34 H 0.338759 4.534204 2.383004 0
M  V30 35 H 2.266677 2.780727 4.122765 0
M  V30 36 H 1.018898 4.019088 4.753465 0
M  V30 37 H 2.217390 5.843242 3.565493 0
M  V30 38 H 3.483434 4.689707 2.913825 0
M  V30 39 H 0.467600 0.179814 0.916433 0
M  V30 40 H -1.195255 -1.635082 -2.376698 0
M  V30 41 H -3.319065 -0.451422 -2.777888 0
M  V30 42 H -4.171878 -0.491194 1.456375 0
M  V30 43 H -2.054021 -1.660735 1.767788 0
M  V30 44 H -1.413454 -5.512395 0.543579 0
M  V30 45 H -2.385588 -4.061731 0.228294 0
M  V30 46 H -1.780635 -4.359091 1.912601 0
M  V30 END ATOM
M  V30 BEGIN BOND
M  V30 1 1 1 2
M  V30 2 1 2 3
M  V30 3 2 3 4
M  V30 4 1 4 5
M  V30 5 1 5 6
M  V30 6 2 6 7
M  V30 7 1 7 8
M  V30 8 2 8 9
M  V30 9 1 9 10
M  V30 10 1 10 11
M  V30 11 1 11 12
M  V30 12 2 12 13
M  V30 13 1 12 14
M  V30 14 1 14 15
M  V30 15 1 15 16
M  V30 16 2 10 17
M  V30 17 2 5 18
M  V30 18 1 18 19
M  V30 19 2 19 20
M  V30 20 1 20 21
M  V30 21 2 21 22
M  V30 22 1 22 23
M  V30 23 1 22 24
M  V30 24 2 24 25
M  V30 25 1 18 26
M  V30 26 1 26 27
M  V30 27 1 26 3
M  V30 28 1 17 6
M  V30 29 1 25 19
M  V30 30 1 16 14
M  V30 31 1 1 28
M  V30 32 1 1 29
M  V30 33 1 1 30
M  V30 34 1 7 31
M  V30 35 1 8 32
M  V30 36 1 11 33
M  V30 37 1 14 34
M  V30 38 1 15 35
M  V30 39 1 15 36
M  V30 40 1 16 37
M  V30 41 1 16 38
M  V30 42 1 17 39
M  V30 43 1 20 40
M  V30 44 1 21 41
M  V30 45 1 24 42
M  V30 46 1 25 43
M  V30 47 1 27 44
M  V30 48 1 27 45
M  V30 49 1 27 46
M  V30 END BOND
M  V30 END CTAB
M  END
>  <Dataset>  (581) 
ChEMBL_Kinases

>  <Ligand_Instance>  (581) 
nan

>  <PDB_ID>  (581) 
nan

>  <Standardized_SMILES>  (581) 
CSc1nc(-c2ccnc(NC(=O)C3CC3)c2)c(-c2ccc(F)cc2)n1C

>  <Name>  (581) 
nan

>  <Pocket>  (581) 
nan

>  <ATP_Site>  (581) 
nan

>  <Peripheral>  (581) 
nan

>  <Num_H_Atoms_ProtBoundConf>  (581) 
nan

>  <Num_Resolved_Atoms>  (581) 
nan

>  <Num_Not_Resolved_Atoms>  (581) 
nan

$$$$
CHEMBL3715987
     RDKit          3D

  0  0  0  0  0  0  0  0  0  0999 V3000
M  V30 BEGIN CTAB
M  V30 COUNTS 58 62 0 0 0
M  V30 BEGIN ATOM
M  V30 1 O 0.505227 -3.777218 1.606481 0
M  V30 2 C 0.262584 -3.402824 0.453117 0
M  V30 3 N -0.486799 -2.207990 0.336750 0
M  V30 4 C -1.081744 -1.253824 1.243805 0
M  V30 5 C -0.322995 0.037387 1.046845 0
M  V30 6 O 0.634583 0.027716 0.219363 0
M  V30 7 N -0.687151 1.205856 1.773021 0
M  V30 8 C 0.068975 2.405241 1.552147 0
M  V30 9 C -0.710998 3.517763 0.918037 0
M  V30 10 C 0.166751 4.767112 1.096739 0
M  V30 11 C -0.050989 5.187447 2.552171 0
M  V30 12 C 0.605170 4.107551 3.356494 0
M  V30 13 C 1.143057 4.479671 4.574370 0
M  V30 14 C 1.759983 3.523299 5.353811 0
M  V30 15 C 1.814153 2.228839 4.881838 0
M  V30 16 C 1.268498 1.898711 3.667649 0
M  V30 17 C 0.638943 2.832195 2.853283 0
M  V30 18 C -2.505313 -0.957839 0.958832 0
M  V30 19 C -2.921295 -0.683145 -0.324850 0
M  V30 20 C -4.234859 -0.403503 -0.653303 0
M  V30 21 C -5.182556 -0.397260 0.348610 0
M  V30 22 N -4.776097 -0.667075 1.614343 0
M  V30 23 C -3.474186 -0.940644 1.916754 0
M  V30 24 C 0.718144 -4.142457 -0.717249 0
M  V30 25 C 1.431917 -5.286028 -0.423168 0
M  V30 26 C 1.918860 -6.084486 -1.440836 0
M  V30 27 C 1.697158 -5.747784 -2.767028 0
M  V30 28 N 2.139232 -6.482559 -3.895075 0
M  V30 29 C 3.339574 -6.846313 -4.373208 0
M  V30 30 N 3.180102 -7.551748 -5.507504 0
M  V30 31 C 1.850748 -7.636153 -5.752043 0
M  V30 32 N 1.252293 -6.960312 -4.727422 0
M  V30 33 C 0.973121 -4.586630 -3.017534 0
M  V30 34 C 0.468801 -3.760593 -2.015847 0
M  V30 35 H -0.727749 -1.825047 -0.602122 0
M  V30 36 H -0.954938 -1.585596 2.314962 0
M  V30 37 H -1.496169 1.142488 2.440338 0
M  V30 38 H 0.887041 2.165918 0.868752 0
M  V30 39 H -0.845808 3.275081 -0.168888 0
M  V30 40 H -1.657087 3.776503 1.431267 0
M  V30 41 H 1.250910 4.508633 0.960475 0
M  V30 42 H -0.177870 5.558523 0.423172 0
M  V30 43 H 0.371704 6.175593 2.778819 0
M  V30 44 H -1.158798 5.129324 2.714603 0
M  V30 45 H 1.074029 5.516051 4.901129 0
M  V30 46 H 2.158735 3.886374 6.294160 0
M  V30 47 H 2.304672 1.505662 5.517374 0
M  V30 48 H 1.322687 0.880817 3.318938 0
M  V30 49 H -2.263024 -0.659920 -1.180455 0
M  V30 50 H -4.566950 -0.187433 -1.657117 0
M  V30 51 H -6.252713 -0.189415 0.206575 0
M  V30 52 H -3.236362 -1.142295 2.938506 0
M  V30 53 H 1.672940 -5.660072 0.572135 0
M  V30 54 H 2.483258 -6.989071 -1.258045 0
M  V30 55 H 4.252331 -6.573010 -3.861827 0
M  V30 56 H 1.245595 -8.092950 -6.528411 0
M  V30 57 H 0.745438 -4.233253 -4.028880 0
M  V30 58 H -0.090158 -2.863160 -2.217588 0
M  V30 END ATOM
M  V30 BEGIN BOND
M  V30 1 2 1 2
M  V30 2 1 2 3
M  V30 3 1 3 4
M  V30 4 1 4 5
M  V30 5 2 5 6
M  V30 6 1 5 7
M  V30 7 1 7 8
M  V30 8 1 8 9
M  V30 9 1 9 10
M  V30 10 1 10 11
M  V30 11 1 11 12
M  V30 12 2 12 13
M  V30 13 1 13 14
M  V30 14 2 14 15
M  V30 15 1 15 16
M  V30 16 2 16 17
M  V30 17 1 4 18
M  V30 18 2 18 19
M  V30 19 1 19 20
M  V30 20 2 20 21
M  V30 21 1 21 22
M  V30 22 2 22 23
M  V30 23 1 2 24
M  V30 24 2 24 25
M  V30 25 1 25 26
M  V30 26 2 26 27
M  V30 27 1 27 28
M  V30 28 1 28 29
M  V30 29 2 29 30
M  V30 30 1 30 31
M  V30 31 2 31 32
M  V30 32 1 27 33
M  V30 33 2 33 34
M  V30 34 1 17 8
M  V30 35 1 23 18
M  V30 36 1 34 24
M  V30 37 1 17 12
M  V30 38 1 32 28
M  V30 39 1 3 35
M  V30 40 1 4 36
M  V30 41 1 7 37
M  V30 42 1 8 38
M  V30 43 1 9 39
M  V30 44 1 9 40
M  V30 45 1 10 41
M  V30 46 1 10 42
M  V30 47 1 11 43
M  V30 48 1 11 44
M  V30 49 1 13 45
M  V30 50 1 14 46
M  V30 51 1 15 47
M  V30 52 1 16 48
M  V30 53 1 19 49
M  V30 54 1 20 50
M  V30 55 1 21 51
M  V30 56 1 23 52
M  V30 57 1 25 53
M  V30 58 1 26 54
M  V30 59 1 29 55
M  V30 60 1 31 56
M  V30 61 1 33 57
M  V30 62 1 34 58
M  V30 END BOND
M  V30 END CTAB
M  END
>  <Dataset>  (582) 
ChEMBL_Kinases

>  <Ligand_Instance>  (582) 
nan

>  <PDB_ID>  (582) 
nan

>  <Standardized_SMILES>  (582) 
O=C(NC(C(=O)NC1CCCc2ccccc21)c1cccnc1)c1ccc(-n2cncn2)cc1

>  <Name>  (582) 
nan

>  <Pocket>  (582) 
nan

>  <ATP_Site>  (582) 
nan

>  <Peripheral>  (582) 
nan

>  <Num_H_Atoms_ProtBoundConf>  (582) 
nan

>  <Num_Resolved_Atoms>  (582) 
nan

>  <Num_Not_Resolved_Atoms>  (582) 
nan

$$$$
CHEMBL3716175
     RDKit          3D

  0  0  0  0  0  0  0  0  0  0999 V3000
M  V30 BEGIN CTAB
M  V30 COUNTS 61 64 0 0 0
M  V30 BEGIN ATOM
M  V30 1 C 3.834481 -2.287116 3.392895 0
M  V30 2 C 3.278715 -1.471083 2.232801 0
M  V30 3 C 3.491148 -0.008436 2.538813 0
M  V30 4 N 3.950647 -1.890047 1.045109 0
M  V30 5 C 3.773663 -1.296809 -0.235137 0
M  V30 6 C 4.448037 -1.757566 -1.370926 0
M  V30 7 C 4.341429 -1.237244 -2.632478 0
M  V30 8 C 3.500045 -0.162336 -2.824759 0
M  V30 9 Cl 3.374794 0.492299 -4.441557 0
M  V30 10 C 2.809976 0.334971 -1.744282 0
M  V30 11 C 1.931290 1.478237 -1.992203 0
M  V30 12 O 2.598414 2.489102 -2.400501 0
M  V30 13 N 0.511288 1.621151 -1.851679 0
M  V30 14 C 0.216471 2.993264 -2.247236 0
M  V30 15 C -1.254229 3.232079 -2.129915 0
M  V30 16 C -2.070958 2.321676 -2.994131 0
M  V30 17 C -3.502955 2.667880 -2.777679 0
M  V30 18 O -3.960184 3.558062 -2.013824 0
M  V30 19 O -4.609081 2.078665 -3.373796 0
M  V30 20 C 2.943401 -0.216233 -0.489140 0
M  V30 21 C 1.781504 -1.671583 2.162680 0
M  V30 22 O 1.170813 -1.243866 3.202782 0
M  V30 23 N 1.011305 -2.244335 1.145294 0
M  V30 24 C -0.400572 -2.265989 1.429048 0
M  V30 25 N -0.997116 -3.136502 1.988353 0
M  V30 26 C -2.278875 -3.180890 2.256912 0
M  V30 27 C -3.012657 -4.172365 2.904892 0
M  V30 28 C -2.394430 -5.439651 3.436118 0
M  V30 29 F -3.303683 -6.259590 4.030410 0
M  V30 30 F -1.724742 -6.104004 2.426521 0
M  V30 31 F -1.436564 -5.139977 4.389519 0
M  V30 32 C -4.351353 -4.016593 3.082045 0
M  V30 33 C -5.114195 -2.942957 2.678987 0
M  V30 34 N -6.364965 -2.460798 2.672011 0
M  V30 35 N -6.448308 -1.281186 2.084430 0
M  V30 36 C -5.207056 -0.909810 1.656644 0
M  V30 37 C -4.392713 -1.950091 2.032722 0
M  V30 38 C -3.013159 -2.095348 1.842554 0
M  V30 39 S -1.788274 -1.077830 1.087903 0
M  V30 40 H 4.747005 -1.719699 3.736677 0
M  V30 41 H 3.101436 -2.432093 4.208001 0
M  V30 42 H 4.167835 -3.288955 3.053480 0
M  V30 43 H 2.534035 0.548769 2.666496 0
M  V30 44 H 4.200985 0.482811 1.839475 0
M  V30 45 H 3.994724 0.122377 3.545451 0
M  V30 46 H 4.637912 -2.693784 1.060640 0
M  V30 47 H 5.134289 -2.613907 -1.276557 0
M  V30 48 H 4.886347 -1.639162 -3.454865 0
M  V30 49 H 0.088662 0.728067 -1.514296 0
M  V30 50 H 0.753721 3.698668 -1.613164 0
M  V30 51 H 0.525320 3.150114 -3.314950 0
M  V30 52 H -1.585111 3.204236 -1.076432 0
M  V30 53 H -1.480089 4.277329 -2.474646 0
M  V30 54 H -1.754251 2.444947 -4.039934 0
M  V30 55 H -1.926766 1.255533 -2.728144 0
M  V30 56 H -5.385273 1.684615 -2.867874 0
M  V30 57 H 2.384444 0.206920 0.307838 0
M  V30 58 H 1.540207 -2.575955 0.336688 0
M  V30 59 H -4.939110 -4.797136 3.594963 0
M  V30 60 H -7.136253 -3.033120 3.112880 0
M  V30 61 H -4.859237 -0.018340 1.133507 0
M  V30 END ATOM
M  V30 BEGIN BOND
M  V30 1 1 1 2
M  V30 2 1 2 3
M  V30 3 1 2 4
M  V30 4 1 4 5
M  V30 5 2 5 6
M  V30 6 1 6 7
M  V30 7 2 7 8
M  V30 8 1 8 9
M  V30 9 1 8 10
M  V30 10 1 10 11
M  V30 11 2 11 12
M  V30 12 1 11 13
M  V30 13 1 13 14
M  V30 14 1 14 15
M  V30 15 1 15 16
M  V30 16 1 16 17
M  V30 17 2 17 18
M  V30 18 1 17 19
M  V30 19 2 10 20
M  V30 20 1 2 21
M  V30 21 2 21 22
M  V30 22 1 21 23
M  V30 23 1 23 24
M  V30 24 2 24 25
M  V30 25 1 25 26
M  V30 26 2 26 27
M  V30 27 1 27 28
M  V30 28 1 28 29
M  V30 29 1 28 30
M  V30 30 1 28 31
M  V30 31 1 27 32
M  V30 32 2 32 33
M  V30 33 1 33 34
M  V30 34 1 34 35
M  V30 35 2 35 36
M  V30 36 1 36 37
M  V30 37 2 37 38
M  V30 38 1 38 39
M  V30 39 1 20 5
M  V30 40 1 39 24
M  V30 41 1 38 26
M  V30 42 1 37 33
M  V30 43 1 1 40
M  V30 44 1 1 41
M  V30 45 1 1 42
M  V30 46 1 3 43
M  V30 47 1 3 44
M  V30 48 1 3 45
M  V30 49 1 4 46
M  V30 50 1 6 47
M  V30 51 1 7 48
M  V30 52 1 13 49
M  V30 53 1 14 50
M  V30 54 1 14 51
M  V30 55 1 15 52
M  V30 56 1 15 53
M  V30 57 1 16 54
M  V30 58 1 16 55
M  V30 59 1 19 56
M  V30 60 1 20 57
M  V30 61 1 23 58
M  V30 62 1 32 59
M  V30 63 1 34 60
M  V30 64 1 36 61
M  V30 END BOND
M  V30 END CTAB
M  END
>  <Dataset>  (583) 
ChEMBL_Kinases

>  <Ligand_Instance>  (583) 
nan

>  <PDB_ID>  (583) 
nan

>  <Standardized_SMILES>  (583) 
CC(C)(Nc1ccc(Cl)c(C(=O)NCCCC(=O)O)c1)C(=O)Nc1nc2c(C(F)(F)F)cc3[nH]ncc3c2s1

>  <Name>  (583) 
nan

>  <Pocket>  (583) 
nan

>  <ATP_Site>  (583) 
nan

>  <Peripheral>  (583) 
nan

>  <Num_H_Atoms_ProtBoundConf>  (583) 
nan

>  <Num_Resolved_Atoms>  (583) 
nan

>  <Num_Not_Resolved_Atoms>  (583) 
nan

$$$$
CHEMBL3691556
     RDKit          3D

  0  0  0  0  0  0  0  0  0  0999 V3000
M  V30 BEGIN CTAB
M  V30 COUNTS 71 76 0 0 0
M  V30 BEGIN ATOM
M  V30 1 C 2.861175 0.414637 2.473711 0
M  V30 2 N 4.071151 0.189977 1.651830 0
M  V30 3 C 4.801631 -0.896525 2.319474 0
M  V30 4 C 4.459709 0.920584 0.438179 0
M  V30 5 O 5.523311 0.571073 -0.129484 0
M  V30 6 C 3.426672 1.931270 0.217746 0
M  V30 7 C 3.540155 3.232546 0.672735 0
M  V30 8 C 2.367248 3.860052 0.367088 0
M  V30 9 C 1.736548 5.068261 0.538759 0
M  V30 10 N 0.455155 5.365333 0.150679 0
M  V30 11 C -0.262205 4.419869 -0.445214 0
M  V30 12 N -1.588400 4.118720 -0.982822 0
M  V30 13 C -2.210565 2.836417 -0.638904 0
M  V30 14 C -3.323339 2.181962 -1.062697 0
M  V30 15 C -3.541604 0.891908 -0.558657 0
M  V30 16 C -2.662968 0.343850 0.320034 0
M  V30 17 C -2.823253 -0.998108 0.689160 0
M  V30 18 O -1.692015 -1.486538 0.768404 0
M  V30 19 N -2.992802 -2.353170 1.062237 0
M  V30 20 C -4.391624 -2.756643 1.320652 0
M  V30 21 C -4.761420 -3.986882 0.519971 0
M  V30 22 C -3.702478 -4.160957 -0.577432 0
M  V30 23 C -2.558650 -4.676367 0.302684 0
M  V30 24 C -2.163012 -3.576910 1.227328 0
M  V30 25 N -3.244675 -5.768481 0.979873 0
M  V30 26 C -2.480865 -6.359568 2.046457 0
M  V30 27 C -4.514455 -5.196615 1.386779 0
M  V30 28 C -1.564142 0.999900 0.745876 0
M  V30 29 N -1.348810 2.253965 0.251359 0
M  V30 30 N 0.375172 3.260334 -0.606645 0
M  V30 31 C 1.621202 2.919772 -0.248070 0
M  V30 32 N 2.268302 1.699168 -0.358096 0
M  V30 33 C 1.672949 0.594690 -0.997235 0
M  V30 34 C 2.178345 -0.758089 -0.688653 0
M  V30 35 C 1.471966 -1.562802 -1.803401 0
M  V30 36 C 1.802796 -0.715680 -3.013908 0
M  V30 37 C 1.767541 0.705805 -2.520677 0
M  V30 38 H 3.122744 0.736997 3.497888 0
M  V30 39 H 2.331784 -0.588324 2.546924 0
M  V30 40 H 2.227626 1.146491 1.943742 0
M  V30 41 H 5.270139 -0.529031 3.256298 0
M  V30 42 H 5.619980 -1.268539 1.657820 0
M  V30 43 H 4.090307 -1.704247 2.526603 0
M  V30 44 H 4.351136 3.757912 1.178394 0
M  V30 45 H 2.285233 5.858264 1.016080 0
M  V30 46 H -2.164969 4.690999 -1.591022 0
M  V30 47 H -3.780386 2.868474 -1.720950 0
M  V30 48 H -4.449024 0.499578 -0.978016 0
M  V30 49 H -4.398686 -2.960655 2.413411 0
M  V30 50 H -5.074180 -1.929539 1.142663 0
M  V30 51 H -5.779896 -3.951947 0.107188 0
M  V30 52 H -4.053911 -4.941189 -1.274917 0
M  V30 53 H -3.430653 -3.214277 -1.053928 0
M  V30 54 H -1.755210 -5.036595 -0.335975 0
M  V30 55 H -1.960802 -3.829396 2.271305 0
M  V30 56 H -1.147114 -3.224203 0.828620 0
M  V30 57 H -2.711314 -5.977165 3.059305 0
M  V30 58 H -2.698933 -7.448831 2.062735 0
M  V30 59 H -1.401600 -6.281978 1.776680 0
M  V30 60 H -5.334933 -5.918260 1.170511 0
M  V30 61 H -4.528380 -4.977256 2.473572 0
M  V30 62 H -0.840332 0.580560 1.458020 0
M  V30 63 H 0.583379 0.596177 -0.805342 0
M  V30 64 H 3.233909 -0.954422 -0.831377 0
M  V30 65 H 1.729095 -1.110952 0.261548 0
M  V30 66 H 1.935412 -2.541532 -1.967584 0
M  V30 67 H 0.380585 -1.597155 -1.636114 0
M  V30 68 H 1.100381 -0.904241 -3.833164 0
M  V30 69 H 2.818057 -0.976135 -3.382519 0
M  V30 70 H 0.845824 1.214536 -2.941078 0
M  V30 71 H 2.648259 1.259691 -2.846839 0
M  V30 END ATOM
M  V30 BEGIN BOND
M  V30 1 1 1 2
M  V30 2 1 2 3
M  V30 3 1 2 4
M  V30 4 2 4 5
M  V30 5 1 4 6
M  V30 6 2 6 7
M  V30 7 1 7 8
M  V30 8 2 8 9
M  V30 9 1 9 10
M  V30 10 2 10 11
M  V30 11 1 11 12
M  V30 12 1 12 13
M  V30 13 2 13 14
M  V30 14 1 14 15
M  V30 15 2 15 16
M  V30 16 1 16 17
M  V30 17 2 17 18
M  V30 18 1 17 19
M  V30 19 1 19 20
M  V30 20 1 20 21
M  V30 21 1 21 22
M  V30 22 1 22 23
M  V30 23 1 23 24
M  V30 24 1 23 25
M  V30 25 1 25 26
M  V30 26 1 25 27
M  V30 27 1 16 28
M  V30 28 2 28 29
M  V30 29 1 11 30
M  V30 30 2 30 31
M  V30 31 1 31 32
M  V30 32 1 32 33
M  V30 33 1 33 34
M  V30 34 1 34 35
M  V30 35 1 35 36
M  V30 36 1 36 37
M  V30 37 1 32 6
M  V30 38 1 37 33
M  V30 39 1 31 8
M  V30 40 1 29 13
M  V30 41 1 24 19
M  V30 42 1 27 21
M  V30 43 1 1 38
M  V30 44 1 1 39
M  V30 45 1 1 40
M  V30 46 1 3 41
M  V30 47 1 3 42
M  V30 48 1 3 43
M  V30 49 1 7 44
M  V30 50 1 9 45
M  V30 51 1 12 46
M  V30 52 1 14 47
M  V30 53 1 15 48
M  V30 54 1 20 49
M  V30 55 1 20 50
M  V30 56 1 21 51
M  V30 57 1 22 52
M  V30 58 1 22 53
M  V30 59 1 23 54
M  V30 60 1 24 55
M  V30 61 1 24 56
M  V30 62 1 26 57
M  V30 63 1 26 58
M  V30 64 1 26 59
M  V30 65 1 27 60
M  V30 66 1 27 61
M  V30 67 1 28 62
M  V30 68 1 33 63
M  V30 69 1 34 64
M  V30 70 1 34 65
M  V30 71 1 35 66
M  V30 72 1 35 67
M  V30 73 1 36 68
M  V30 74 1 36 69
M  V30 75 1 37 70
M  V30 76 1 37 71
M  V30 END BOND
M  V30 END CTAB
M  END
>  <Dataset>  (584) 
ChEMBL_Kinases

>  <Ligand_Instance>  (584) 
nan

>  <PDB_ID>  (584) 
nan

>  <Standardized_SMILES>  (584) 
CN(C)C(=O)c1cc2cnc(Nc3ccc(C(=O)N4CC5CC(C4)N(C)C5)cn3)nc2n1C1CCCC1

>  <Name>  (584) 
nan

>  <Pocket>  (584) 
nan

>  <ATP_Site>  (584) 
nan

>  <Peripheral>  (584) 
nan

>  <Num_H_Atoms_ProtBoundConf>  (584) 
nan

>  <Num_Resolved_Atoms>  (584) 
nan

>  <Num_Not_Resolved_Atoms>  (584) 
nan

$$$$
CHEMBL4450510
     RDKit          3D

  0  0  0  0  0  0  0  0  0  0999 V3000
M  V30 BEGIN CTAB
M  V30 COUNTS 60 65 0 0 0
M  V30 BEGIN ATOM
M  V30 1 C 7.025452 -7.187630 0.637355 0
M  V30 2 C 6.693581 -5.795211 1.041759 0
M  V30 3 N 7.284964 -4.919904 1.865739 0
M  V30 4 O 6.629461 -3.810300 1.911096 0
M  V30 5 C 5.596276 -3.952377 1.110828 0
M  V30 6 C 4.574822 -2.946766 0.847780 0
M  V30 7 C 3.520208 -3.211865 -0.026330 0
M  V30 8 C 2.537093 -2.296109 -0.304438 0
M  V30 9 C 2.637284 -1.076202 0.330056 0
M  V30 10 N 1.889204 0.034053 0.309047 0
M  V30 11 C 2.375085 1.000872 1.101488 0
M  V30 12 N 1.888006 2.308532 1.355925 0
M  V30 13 C 0.730464 2.899795 0.794954 0
M  V30 14 C -0.124221 2.299394 -0.100956 0
M  V30 15 C -1.250152 2.878689 -0.644935 0
M  V30 16 C -2.109868 2.151158 -1.606746 0
M  V30 17 N -3.152396 1.391068 -1.064109 0
M  V30 18 C -4.154758 1.985674 -0.293143 0
M  V30 19 C -4.703519 1.118597 0.816908 0
M  V30 20 N -4.602697 -0.292184 0.424729 0
M  V30 21 C -4.480972 -1.155006 1.514966 0
M  V30 22 O -4.486303 -0.525826 2.606533 0
M  V30 23 C -4.347423 -2.573824 1.807141 0
M  V30 24 C -3.237810 -3.258467 1.003606 0
M  V30 25 C -4.672584 -3.679185 0.911749 0
M  V30 26 C -4.649551 -0.511916 -1.025876 0
M  V30 27 C -3.363122 0.086983 -1.559665 0
M  V30 28 C -1.569673 4.173465 -0.274378 0
M  V30 29 C -0.706585 4.754979 0.618789 0
M  V30 30 N 0.372307 4.151357 1.117405 0
M  V30 31 N 3.470877 0.472170 1.638680 0
M  V30 32 C 3.657216 -0.775063 1.196011 0
M  V30 33 C 4.641361 -1.712323 1.465031 0
M  V30 34 N 5.616144 -5.185612 0.556518 0
M  V30 35 H 6.356356 -7.849795 1.242379 0
M  V30 36 H 8.072503 -7.394043 0.887217 0
M  V30 37 H 6.827301 -7.306348 -0.460077 0
M  V30 38 H 3.440528 -4.181201 -0.530287 0
M  V30 39 H 1.711023 -2.447943 -0.963579 0
M  V30 40 H 2.433020 2.914750 2.029540 0
M  V30 41 H 0.069118 1.298390 -0.425896 0
M  V30 42 H -1.491275 1.552388 -2.286593 0
M  V30 43 H -2.572850 2.942402 -2.267554 0
M  V30 44 H -5.009792 2.244502 -0.957079 0
M  V30 45 H -3.798135 2.926295 0.167461 0
M  V30 46 H -4.139409 1.343026 1.744526 0
M  V30 47 H -5.764552 1.370528 0.967301 0
M  V30 48 H -4.281800 -2.792069 2.909255 0
M  V30 49 H -2.489978 -3.866068 1.556538 0
M  V30 50 H -2.775153 -2.723385 0.154218 0
M  V30 51 H -4.870265 -4.666108 1.386389 0
M  V30 52 H -5.238610 -3.566944 -0.032715 0
M  V30 53 H -4.741094 -1.558331 -1.308792 0
M  V30 54 H -5.511274 0.116866 -1.399908 0
M  V30 55 H -3.473093 0.127279 -2.673388 0
M  V30 56 H -2.552219 -0.625162 -1.324656 0
M  V30 57 H -2.414237 4.705774 -0.638124 0
M  V30 58 H -0.927419 5.772628 0.931867 0
M  V30 59 H 4.119953 0.935861 2.315067 0
M  V30 60 H 5.449857 -1.459270 2.158242 0
M  V30 END ATOM
M  V30 BEGIN BOND
M  V30 1 1 1 2
M  V30 2 2 2 3
M  V30 3 1 3 4
M  V30 4 1 4 5
M  V30 5 1 5 6
M  V30 6 2 6 7
M  V30 7 1 7 8
M  V30 8 2 8 9
M  V30 9 1 9 10
M  V30 10 2 10 11
M  V30 11 1 11 12
M  V30 12 1 12 13
M  V30 13 2 13 14
M  V30 14 1 14 15
M  V30 15 1 15 16
M  V30 16 1 16 17
M  V30 17 1 17 18
M  V30 18 1 18 19
M  V30 19 1 19 20
M  V30 20 1 20 21
M  V30 21 2 21 22
M  V30 22 1 21 23
M  V30 23 1 23 24
M  V30 24 1 24 25
M  V30 25 1 20 26
M  V30 26 1 26 27
M  V30 27 2 15 28
M  V30 28 1 28 29
M  V30 29 2 29 30
M  V30 30 1 11 31
M  V30 31 1 31 32
M  V30 32 2 32 33
M  V30 33 2 5 34
M  V30 34 1 34 2
M  V30 35 1 33 6
M  V30 36 1 32 9
M  V30 37 1 30 13
M  V30 38 1 27 17
M  V30 39 1 25 23
M  V30 40 1 1 35
M  V30 41 1 1 36
M  V30 42 1 1 37
M  V30 43 1 7 38
M  V30 44 1 8 39
M  V30 45 1 12 40
M  V30 46 1 14 41
M  V30 47 1 16 42
M  V30 48 1 16 43
M  V30 49 1 18 44
M  V30 50 1 18 45
M  V30 51 1 19 46
M  V30 52 1 19 47
M  V30 53 1 23 48
M  V30 54 1 24 49
M  V30 55 1 24 50
M  V30 56 1 25 51
M  V30 57 1 25 52
M  V30 58 1 26 53
M  V30 59 1 26 54
M  V30 60 1 27 55
M  V30 61 1 27 56
M  V30 62 1 28 57
M  V30 63 1 29 58
M  V30 64 1 31 59
M  V30 65 1 33 60
M  V30 END BOND
M  V30 END CTAB
M  END
>  <Dataset>  (585) 
ChEMBL_Kinases

>  <Ligand_Instance>  (585) 
nan

>  <PDB_ID>  (585) 
nan

>  <Standardized_SMILES>  (585) 
Cc1noc(-c2ccc3nc(Nc4cc(CN5CCN(C(=O)C6CC6)CC5)ccn4)[nH]c3c2)n1

>  <Name>  (585) 
nan

>  <Pocket>  (585) 
nan

>  <ATP_Site>  (585) 
nan

>  <Peripheral>  (585) 
nan

>  <Num_H_Atoms_ProtBoundConf>  (585) 
nan

>  <Num_Resolved_Atoms>  (585) 
nan

>  <Num_Not_Resolved_Atoms>  (585) 
nan

$$$$
CHEMBL4450494
     RDKit          3D

  0  0  0  0  0  0  0  0  0  0999 V3000
M  V30 BEGIN CTAB
M  V30 COUNTS 61 66 0 0 0
M  V30 BEGIN ATOM
M  V30 1 C 4.551892 -3.564458 0.708617 0
M  V30 2 C 4.910793 -2.233037 1.316889 0 CFG=1
M  V30 3 N 6.281910 -1.878061 1.142949 0
M  V30 4 C 6.381125 -0.712543 0.348898 0
M  V30 5 O 7.422324 -0.112510 -0.009979 0
M  V30 6 C 5.017887 -0.324003 0.013814 0
M  V30 7 C 4.225628 0.587726 -0.651033 0
M  V30 8 C 2.875955 0.288733 -0.514165 0
M  V30 9 C 1.810350 1.076715 -1.116834 0
M  V30 10 C 2.116219 2.220088 -1.824770 0
M  V30 11 C 1.184311 3.033636 -2.424831 0
M  V30 12 C -0.132660 2.657811 -2.294141 0
M  V30 13 C -0.459808 1.524106 -1.594729 0
M  V30 14 C -1.776917 1.132639 -1.457372 0
M  V30 15 O -2.612759 1.894111 -2.014470 0
M  V30 16 N -2.241117 0.024106 -0.789681 0
M  V30 17 C -3.651338 -0.191694 -0.774820 0 CFG=1
M  V30 18 C -4.087511 -1.592588 -1.183034 0
M  V30 19 C -4.187430 0.072030 0.580867 0
M  V30 20 C -4.685996 -0.596631 1.699556 0
M  V30 21 N -5.022206 0.249269 2.684549 0
M  V30 22 C -5.558434 -0.197956 3.936899 0
M  V30 23 C -4.745752 1.476340 2.216247 0
M  V30 24 N -4.254550 1.381330 0.979927 0
M  V30 25 C -1.222480 -0.671754 -0.258879 0
M  V30 26 N -1.604629 -1.839533 0.471619 0
M  V30 27 C -0.622666 -2.719571 1.061935 0
M  V30 28 C 0.290795 -3.496564 0.108765 0
M  V30 29 C -0.083527 -2.444260 2.416206 0
M  V30 30 C -1.096967 -3.530482 2.244446 0
M  V30 31 N 0.085370 -0.373783 -0.336910 0
M  V30 32 C 0.487884 0.719378 -0.999383 0
M  V30 33 N 2.899231 -0.816048 0.244544 0
M  V30 34 C 4.141589 -1.202690 0.572002 0
M  V30 35 H 5.238433 -4.374834 0.989142 0
M  V30 36 H 4.436257 -3.431847 -0.374294 0
M  V30 37 H 3.555679 -3.856705 1.116465 0
M  V30 38 H 4.587544 -2.275323 2.393899 0
M  V30 39 H 7.069499 -2.424492 1.557433 0
M  V30 40 H 4.678046 1.422106 -1.200134 0
M  V30 41 H 3.156455 2.551525 -1.950383 0
M  V30 42 H 1.469898 3.919475 -2.969185 0
M  V30 43 H -0.889303 3.277281 -2.754477 0
M  V30 44 H -4.134252 0.545822 -1.470934 0
M  V30 45 H -3.255979 -2.183320 -1.609101 0
M  V30 46 H -4.681579 -2.110546 -0.406830 0
M  V30 47 H -4.821650 -1.521868 -2.050888 0
M  V30 48 H -4.718526 -1.691701 1.582856 0
M  V30 49 H -4.803989 -0.322078 4.740473 0
M  V30 50 H -6.316680 0.501667 4.344813 0
M  V30 51 H -6.080137 -1.169315 3.825079 0
M  V30 52 H -4.908938 2.389608 2.783547 0
M  V30 53 H -2.572902 -2.164277 0.645678 0
M  V30 54 H 1.154687 -3.892255 0.681359 0
M  V30 55 H 0.690322 -2.846995 -0.691274 0
M  V30 56 H -0.238347 -4.365795 -0.334415 0
M  V30 57 H 0.958372 -2.771866 2.598510 0
M  V30 58 H -0.389427 -1.497972 2.920422 0
M  V30 59 H -0.820015 -4.594230 2.323951 0
M  V30 60 H -2.082593 -3.304680 2.694765 0
M  V30 61 H 2.054793 -1.307855 0.545253 0
M  V30 END ATOM
M  V30 BEGIN BOND
M  V30 1 1 1 2
M  V30 2 1 2 3
M  V30 3 1 3 4
M  V30 4 2 4 5
M  V30 5 1 4 6
M  V30 6 1 6 7
M  V30 7 2 7 8
M  V30 8 1 8 9
M  V30 9 2 9 10
M  V30 10 1 10 11
M  V30 11 2 11 12
M  V30 12 1 12 13
M  V30 13 1 13 14
M  V30 14 2 14 15
M  V30 15 1 14 16
M  V30 16 1 16 17
M  V30 17 1 17 18
M  V30 18 1 17 19
M  V30 19 2 19 20
M  V30 20 1 20 21
M  V30 21 1 21 22
M  V30 22 1 21 23
M  V30 23 2 23 24
M  V30 24 1 16 25
M  V30 25 1 25 26
M  V30 26 1 26 27
M  V30 27 1 27 28
M  V30 28 1 27 29
M  V30 29 1 29 30
M  V30 30 2 25 31
M  V30 31 1 31 32
M  V30 32 1 8 33
M  V30 33 1 33 34
M  V30 34 1 34 2
M  V30 35 2 34 6
M  V30 36 1 32 9
M  V30 37 2 32 13
M  V30 38 1 24 19
M  V30 39 1 30 27
M  V30 40 1 1 35
M  V30 41 1 1 36
M  V30 42 1 1 37
M  V30 43 1 2 38 CFG=1
M  V30 44 1 3 39
M  V30 45 1 7 40
M  V30 46 1 10 41
M  V30 47 1 11 42
M  V30 48 1 12 43
M  V30 49 1 17 44 CFG=3
M  V30 50 1 18 45
M  V30 51 1 18 46
M  V30 52 1 18 47
M  V30 53 1 20 48
M  V30 54 1 22 49
M  V30 55 1 22 50
M  V30 56 1 22 51
M  V30 57 1 23 52
M  V30 58 1 26 53
M  V30 59 1 28 54
M  V30 60 1 28 55
M  V30 61 1 28 56
M  V30 62 1 29 57
M  V30 63 1 29 58
M  V30 64 1 30 59
M  V30 65 1 30 60
M  V30 66 1 33 61
M  V30 END BOND
M  V30 END CTAB
M  END
>  <Dataset>  (586) 
ChEMBL_Kinases

>  <Ligand_Instance>  (586) 
nan

>  <PDB_ID>  (586) 
nan

>  <Standardized_SMILES>  (586) 
C[C@H]1NC(=O)c2cc(-c3cccc4c(=O)n([C@@H](C)c5cn(C)cn5)c(NC5(C)CC5)nc34)[nH]c21

>  <Name>  (586) 
nan

>  <Pocket>  (586) 
nan

>  <ATP_Site>  (586) 
nan

>  <Peripheral>  (586) 
nan

>  <Num_H_Atoms_ProtBoundConf>  (586) 
nan

>  <Num_Resolved_Atoms>  (586) 
nan

>  <Num_Not_Resolved_Atoms>  (586) 
nan

$$$$
CHEMBL4450463
     RDKit          3D

  0  0  0  0  0  0  0  0  0  0999 V3000
M  V30 BEGIN CTAB
M  V30 COUNTS 35 36 0 0 0
M  V30 BEGIN ATOM
M  V30 1 C -2.983711 -1.396432 2.693195 0
M  V30 2 C -1.504370 -1.581301 2.404038 0
M  V30 3 C -0.927394 -2.403877 3.549372 0
M  V30 4 O -0.856549 -0.332982 2.373815 0
M  V30 5 C -0.087512 0.164440 1.361644 0
M  V30 6 C 0.243026 -0.420032 0.159594 0
M  V30 7 C 1.037005 0.211227 -0.773313 0
M  V30 8 C 1.365403 -0.445566 -2.034040 0
M  V30 9 C 1.512906 -1.808841 -2.187127 0
M  V30 10 C 1.831773 -2.313341 -3.432683 0
M  V30 11 C 2.020026 -1.522755 -4.574104 0
M  V30 12 N 1.861988 -0.203445 -4.357708 0
M  V30 13 C 1.552173 0.332417 -3.164200 0
M  V30 14 C 1.556078 1.472467 -0.568947 0
M  V30 15 C 1.247587 2.090293 0.622782 0
M  V30 16 C 0.450464 1.420913 1.525877 0
M  V30 17 C 0.189907 2.155987 2.752523 0
M  V30 18 N -0.562751 1.603742 3.824095 0
M  V30 19 O 0.255964 3.134644 3.516971 0
M  V30 20 H -3.084970 -0.659191 3.506587 0
M  V30 21 H -3.487803 -0.981011 1.804525 0
M  V30 22 H -3.448379 -2.334274 3.013220 0
M  V30 23 H -1.340392 -2.153290 1.483250 0
M  V30 24 H -0.731402 -3.454425 3.216243 0
M  V30 25 H -1.655478 -2.488059 4.392173 0
M  V30 26 H 0.027538 -1.987334 3.888354 0
M  V30 27 H -0.172047 -1.424835 -0.005221 0
M  V30 28 H 1.379405 -2.446447 -1.342788 0
M  V30 29 H 1.960058 -3.392727 -3.608405 0
M  V30 30 H 2.266885 -1.974786 -5.524927 0
M  V30 31 H 1.468031 1.417456 -3.185574 0
M  V30 32 H 2.174981 1.929665 -1.325741 0
M  V30 33 H 1.635012 3.074935 0.813986 0
M  V30 34 H -0.697722 0.942531 4.614584 0
M  V30 35 H -0.601568 0.902781 4.597242 0
M  V30 END ATOM
M  V30 BEGIN BOND
M  V30 1 1 1 2
M  V30 2 1 2 3
M  V30 3 1 2 4
M  V30 4 1 4 5
M  V30 5 2 5 6
M  V30 6 1 6 7
M  V30 7 1 7 8
M  V30 8 2 8 9
M  V30 9 1 9 10
M  V30 10 2 10 11
M  V30 11 1 11 12
M  V30 12 2 12 13
M  V30 13 2 7 14
M  V30 14 1 14 15
M  V30 15 2 15 16
M  V30 16 1 16 17
M  V30 17 1 17 18
M  V30 18 2 17 19
M  V30 19 1 16 5
M  V30 20 1 13 8
M  V30 21 1 1 20
M  V30 22 1 1 21
M  V30 23 1 1 22
M  V30 24 1 2 23
M  V30 25 1 3 24
M  V30 26 1 3 25
M  V30 27 1 3 26
M  V30 28 1 6 27
M  V30 29 1 9 28
M  V30 30 1 10 29
M  V30 31 1 11 30
M  V30 32 1 13 31
M  V30 33 1 14 32
M  V30 34 1 15 33
M  V30 35 1 18 34
M  V30 36 1 18 35
M  V30 END BOND
M  V30 END CTAB
M  END
>  <Dataset>  (587) 
ChEMBL_Kinases

>  <Ligand_Instance>  (587) 
nan

>  <PDB_ID>  (587) 
nan

>  <Standardized_SMILES>  (587) 
CC(C)Oc1cc(-c2cccnc2)ccc1C(N)=O

>  <Name>  (587) 
nan

>  <Pocket>  (587) 
nan

>  <ATP_Site>  (587) 
nan

>  <Peripheral>  (587) 
nan

>  <Num_H_Atoms_ProtBoundConf>  (587) 
nan

>  <Num_Resolved_Atoms>  (587) 
nan

>  <Num_Not_Resolved_Atoms>  (587) 
nan

$$$$
CHEMBL3716279
     RDKit          3D

  0  0  0  0  0  0  0  0  0  0999 V3000
M  V30 BEGIN CTAB
M  V30 COUNTS 56 60 0 0 0
M  V30 BEGIN ATOM
M  V30 1 C 1.827136 -1.512806 3.815564 0
M  V30 2 C 2.592702 -1.459724 2.514214 0
M  V30 3 C 3.720075 -2.492216 2.662941 0
M  V30 4 N 3.226525 -0.182671 2.400265 0
M  V30 5 C 2.609613 1.106351 2.400197 0
M  V30 6 C 3.328441 2.303260 2.288704 0
M  V30 7 C 2.719301 3.535212 2.291886 0
M  V30 8 C 1.350646 3.647203 2.407045 0
M  V30 9 Cl 0.671046 5.259556 2.400849 0
M  V30 10 C 0.615307 2.486817 2.518563 0
M  V30 11 C -0.821422 2.700574 2.638548 0
M  V30 12 O -1.253738 3.329932 3.662565 0
M  V30 13 N -1.814049 2.273144 1.715723 0
M  V30 14 C -3.204273 2.572544 1.993250 0
M  V30 15 C -4.204412 1.541859 1.473575 0
M  V30 16 C -4.049803 2.839939 0.778096 0
M  V30 17 C 1.252162 1.266312 2.512285 0
M  V30 18 C 1.695415 -1.823245 1.410641 0
M  V30 19 O 1.219402 -2.974446 1.699177 0
M  V30 20 N 1.317268 -1.171097 0.209351 0
M  V30 21 C 0.388449 -1.825274 -0.685656 0
M  V30 22 N -0.701822 -2.046047 -1.050029 0
M  V30 23 C -1.083765 -2.814259 -2.047850 0
M  V30 24 C -2.379357 -3.092073 -2.498967 0
M  V30 25 C -3.606174 -2.513402 -1.863980 0
M  V30 26 F -4.720035 -2.950780 -2.501485 0
M  V30 27 F -3.666111 -2.804566 -0.519454 0
M  V30 28 F -3.568389 -1.132408 -2.024720 0
M  V30 29 C -2.538758 -3.934172 -3.571594 0
M  V30 30 C -1.546315 -4.558326 -4.279547 0
M  V30 31 N -1.373319 -5.394879 -5.318440 0
M  V30 32 N -0.073560 -5.640389 -5.525480 0
M  V30 33 C 0.676257 -4.969716 -4.622939 0
M  V30 34 C -0.255005 -4.311643 -3.867865 0
M  V30 35 C -0.071721 -3.470699 -2.794900 0
M  V30 36 S 1.436932 -2.861632 -1.908396 0
M  V30 37 H 2.231781 -2.265489 4.534974 0
M  V30 38 H 0.761649 -1.713600 3.599567 0
M  V30 39 H 1.900326 -0.536134 4.325778 0
M  V30 40 H 4.572389 -2.028979 3.191184 0
M  V30 41 H 3.969154 -2.954241 1.699071 0
M  V30 42 H 3.365967 -3.315884 3.334127 0
M  V30 43 H 4.285847 -0.108942 2.299554 0
M  V30 44 H 4.413124 2.230275 2.197020 0
M  V30 45 H 3.380054 4.395822 2.199077 0
M  V30 46 H -1.492636 1.760581 0.876284 0
M  V30 47 H -3.462712 3.118214 2.912062 0
M  V30 48 H -5.064734 1.365659 2.160029 0
M  V30 49 H -3.808781 0.630984 1.005913 0
M  V30 50 H -3.597287 2.806053 -0.226437 0
M  V30 51 H -4.912404 3.555901 0.872374 0
M  V30 52 H 0.584042 0.447095 2.599983 0
M  V30 53 H 1.786262 -0.251647 0.119797 0
M  V30 54 H -3.557895 -4.146143 -3.918273 0
M  V30 55 H -2.203436 -5.770909 -5.856686 0
M  V30 56 H 1.758149 -4.950715 -4.514689 0
M  V30 END ATOM
M  V30 BEGIN BOND
M  V30 1 1 1 2
M  V30 2 1 2 3
M  V30 3 1 2 4
M  V30 4 1 4 5
M  V30 5 2 5 6
M  V30 6 1 6 7
M  V30 7 2 7 8
M  V30 8 1 8 9
M  V30 9 1 8 10
M  V30 10 1 10 11
M  V30 11 2 11 12
M  V30 12 1 11 13
M  V30 13 1 13 14
M  V30 14 1 14 15
M  V30 15 1 15 16
M  V30 16 2 10 17
M  V30 17 1 2 18
M  V30 18 2 18 19
M  V30 19 1 18 20
M  V30 20 1 20 21
M  V30 21 2 21 22
M  V30 22 1 22 23
M  V30 23 2 23 24
M  V30 24 1 24 25
M  V30 25 1 25 26
M  V30 26 1 25 27
M  V30 27 1 25 28
M  V30 28 1 24 29
M  V30 29 2 29 30
M  V30 30 1 30 31
M  V30 31 1 31 32
M  V30 32 2 32 33
M  V30 33 1 33 34
M  V30 34 2 34 35
M  V30 35 1 35 36
M  V30 36 1 17 5
M  V30 37 1 36 21
M  V30 38 1 16 14
M  V30 39 1 35 23
M  V30 40 1 34 30
M  V30 41 1 1 37
M  V30 42 1 1 38
M  V30 43 1 1 39
M  V30 44 1 3 40
M  V30 45 1 3 41
M  V30 46 1 3 42
M  V30 47 1 4 43
M  V30 48 1 6 44
M  V30 49 1 7 45
M  V30 50 1 13 46
M  V30 51 1 14 47
M  V30 52 1 15 48
M  V30 53 1 15 49
M  V30 54 1 16 50
M  V30 55 1 16 51
M  V30 56 1 17 52
M  V30 57 1 20 53
M  V30 58 1 29 54
M  V30 59 1 31 55
M  V30 60 1 33 56
M  V30 END BOND
M  V30 END CTAB
M  END
>  <Dataset>  (588) 
ChEMBL_Kinases

>  <Ligand_Instance>  (588) 
nan

>  <PDB_ID>  (588) 
nan

>  <Standardized_SMILES>  (588) 
CC(C)(Nc1ccc(Cl)c(C(=O)NC2CC2)c1)C(=O)Nc1nc2c(C(F)(F)F)cc3[nH]ncc3c2s1

>  <Name>  (588) 
nan

>  <Pocket>  (588) 
nan

>  <ATP_Site>  (588) 
nan

>  <Peripheral>  (588) 
nan

>  <Num_H_Atoms_ProtBoundConf>  (588) 
nan

>  <Num_Resolved_Atoms>  (588) 
nan

>  <Num_Not_Resolved_Atoms>  (588) 
nan

$$$$
CHEMBL3691553
     RDKit          3D

  0  0  0  0  0  0  0  0  0  0999 V3000
M  V30 BEGIN CTAB
M  V30 COUNTS 68 73 0 0 0
M  V30 BEGIN ATOM
M  V30 1 C 4.548392 -2.294589 1.618085 0
M  V30 2 N 5.461436 -1.655708 0.666411 0
M  V30 3 C 6.531084 -2.498177 0.129446 0
M  V30 4 C 5.512219 -0.308360 0.141768 0
M  V30 5 O 6.314123 0.212581 -0.689562 0
M  V30 6 C 4.410226 0.465115 0.749398 0
M  V30 7 C 4.732934 1.385610 1.723191 0
M  V30 8 C 3.507811 1.914935 2.109134 0
M  V30 9 C 3.191671 2.885649 3.064963 0
M  V30 10 N 1.902894 3.201322 3.241558 0
M  V30 11 C 0.942900 2.599289 2.520073 0
M  V30 12 N -0.479589 2.855456 2.615653 0
M  V30 13 C -1.364987 1.739943 2.361364 0
M  V30 14 C -2.743037 1.800279 2.380206 0
M  V30 15 C -3.499438 0.664734 2.179532 0
M  V30 16 C -2.922952 -0.575290 1.952034 0
M  V30 17 C -3.610789 -1.838350 1.751183 0
M  V30 18 O -3.060416 -2.783248 2.396093 0
M  V30 19 N -4.775060 -2.084114 0.942891 0
M  V30 20 C -5.693886 -1.320015 0.074697 0
M  V30 21 C -5.713641 -2.032518 -1.282277 0 CFG=2
M  V30 22 C -6.837073 -3.028089 -1.367761 0
M  V30 23 N -6.322685 -4.324735 -1.001370 0
M  V30 24 C -4.981208 -4.064241 -0.456637 0 CFG=1
M  V30 25 C -4.485227 -2.918054 -1.361351 0
M  V30 26 C -5.221756 -3.485849 0.922240 0
M  V30 27 C -1.524086 -0.581482 1.942374 0
M  V30 28 N -0.814014 0.535289 2.139802 0
M  V30 29 N 1.309722 1.678556 1.618344 0
M  V30 30 C 2.552060 1.284241 1.351365 0
M  V30 31 N 3.111766 0.376528 0.495279 0
M  V30 32 C 2.369067 -0.392557 -0.448817 0
M  V30 33 C 1.183783 0.365750 -1.020017 0
M  V30 34 C 1.837553 1.442597 -1.856404 0
M  V30 35 C 3.227180 0.884736 -2.197710 0
M  V30 36 C 3.137478 -0.587309 -1.772977 0
M  V30 37 H 3.841457 -1.601840 2.065938 0
M  V30 38 H 3.985819 -3.049406 1.018155 0
M  V30 39 H 5.109087 -2.863364 2.384062 0
M  V30 40 H 6.504705 -2.522833 -0.978221 0
M  V30 41 H 7.491440 -2.097858 0.514800 0
M  V30 42 H 6.408617 -3.550503 0.500868 0
M  V30 43 H 5.687000 1.681967 2.144773 0
M  V30 44 H 3.975017 3.354596 3.630555 0
M  V30 45 H -0.968635 3.745623 2.846406 0
M  V30 46 H -3.187852 2.765111 2.555163 0
M  V30 47 H -4.565273 0.679737 2.186818 0
M  V30 48 H -6.698754 -1.441249 0.538064 0
M  V30 49 H -5.453631 -0.260417 0.009435 0
M  V30 50 H -5.737281 -1.290485 -2.109181 0
M  V30 51 H -7.130387 -3.085787 -2.452036 0
M  V30 52 H -7.723823 -2.752460 -0.751332 0
M  V30 53 H -6.209246 -4.937417 -1.842956 0
M  V30 54 H -4.324419 -4.929648 -0.479587 0
M  V30 55 H -3.594243 -2.503383 -0.895450 0
M  V30 56 H -4.337938 -3.257251 -2.403178 0
M  V30 57 H -4.718915 -4.095153 1.707616 0
M  V30 58 H -6.289869 -3.475060 1.213974 0
M  V30 59 H -0.907265 -1.472653 1.777683 0
M  V30 60 H 2.116025 -1.385279 -0.073433 0
M  V30 61 H 0.436635 0.688066 -0.320368 0
M  V30 62 H 0.679731 -0.334555 -1.743023 0
M  V30 63 H 1.288269 1.608493 -2.813625 0
M  V30 64 H 1.892734 2.424880 -1.350522 0
M  V30 65 H 3.971660 1.401148 -1.570466 0
M  V30 66 H 3.401857 0.992727 -3.269031 0
M  V30 67 H 4.079534 -1.083052 -1.664490 0
M  V30 68 H 2.426266 -1.053480 -2.474842 0
M  V30 END ATOM
M  V30 BEGIN BOND
M  V30 1 1 1 2
M  V30 2 1 2 3
M  V30 3 1 2 4
M  V30 4 2 4 5
M  V30 5 1 4 6
M  V30 6 2 6 7
M  V30 7 1 7 8
M  V30 8 2 8 9
M  V30 9 1 9 10
M  V30 10 2 10 11
M  V30 11 1 11 12
M  V30 12 1 12 13
M  V30 13 2 13 14
M  V30 14 1 14 15
M  V30 15 2 15 16
M  V30 16 1 16 17
M  V30 17 2 17 18
M  V30 18 1 17 19
M  V30 19 1 19 20
M  V30 20 1 20 21
M  V30 21 1 21 22
M  V30 22 1 22 23
M  V30 23 1 23 24
M  V30 24 1 24 25
M  V30 25 1 24 26
M  V30 26 1 16 27
M  V30 27 2 27 28
M  V30 28 1 11 29
M  V30 29 2 29 30
M  V30 30 1 30 31
M  V30 31 1 31 32
M  V30 32 1 32 33
M  V30 33 1 33 34
M  V30 34 1 34 35
M  V30 35 1 35 36
M  V30 36 1 31 6
M  V30 37 1 36 32
M  V30 38 1 30 8
M  V30 39 1 28 13
M  V30 40 1 26 19
M  V30 41 1 25 21
M  V30 42 1 1 37
M  V30 43 1 1 38
M  V30 44 1 1 39
M  V30 45 1 3 40
M  V30 46 1 3 41
M  V30 47 1 3 42
M  V30 48 1 7 43
M  V30 49 1 9 44
M  V30 50 1 12 45
M  V30 51 1 14 46
M  V30 52 1 15 47
M  V30 53 1 20 48
M  V30 54 1 20 49
M  V30 55 1 21 50 CFG=3
M  V30 56 1 22 51
M  V30 57 1 22 52
M  V30 58 1 23 53
M  V30 59 1 24 54 CFG=1
M  V30 60 1 25 55
M  V30 61 1 25 56
M  V30 62 1 26 57
M  V30 63 1 26 58
M  V30 64 1 27 59
M  V30 65 1 32 60
M  V30 66 1 33 61
M  V30 67 1 33 62
M  V30 68 1 34 63
M  V30 69 1 34 64
M  V30 70 1 35 65
M  V30 71 1 35 66
M  V30 72 1 36 67
M  V30 73 1 36 68
M  V30 END BOND
M  V30 END CTAB
M  END
>  <Dataset>  (589) 
ChEMBL_Kinases

>  <Ligand_Instance>  (589) 
nan

>  <PDB_ID>  (589) 
nan

>  <Standardized_SMILES>  (589) 
CN(C)C(=O)c1cc2cnc(Nc3ccc(C(=O)N4C[C@@H]5CN[C@@H](C5)C4)cn3)nc2n1C1CCCC1

>  <Name>  (589) 
nan

>  <Pocket>  (589) 
nan

>  <ATP_Site>  (589) 
nan

>  <Peripheral>  (589) 
nan

>  <Num_H_Atoms_ProtBoundConf>  (589) 
nan

>  <Num_Resolved_Atoms>  (589) 
nan

>  <Num_Not_Resolved_Atoms>  (589) 
nan

$$$$
CHEMBL3716298
     RDKit          3D

  0  0  0  0  0  0  0  0  0  0999 V3000
M  V30 BEGIN CTAB
M  V30 COUNTS 37 40 0 0 0
M  V30 BEGIN ATOM
M  V30 1 O -0.077267 -1.885212 0.217041 0
M  V30 2 C -1.173169 -1.577285 -0.306333 0
M  V30 3 C -2.118943 -1.824280 -1.447520 0
M  V30 4 N -1.531525 -2.835356 -2.305383 0
M  V30 5 C -0.289504 -2.663366 -2.968097 0
M  V30 6 C 0.258660 -3.627716 -3.771256 0
M  V30 7 C 1.451855 -3.523577 -4.440433 0
M  V30 8 C 2.149085 -2.327708 -4.275581 0
M  V30 9 Cl 3.685273 -2.211322 -5.146039 0
M  V30 10 C 1.642356 -1.326890 -3.479612 0
M  V30 11 O 2.440991 -0.187824 -3.403780 0
M  V30 12 C 0.429004 -1.511453 -2.837707 0
M  V30 13 N -1.786852 -0.586153 0.501728 0
M  V30 14 C -1.121790 -0.088146 1.740669 0
M  V30 15 N -0.363752 0.842459 1.815483 0
M  V30 16 C 0.217881 1.270802 2.925820 0
M  V30 17 C 1.096481 2.313394 3.144955 0
M  V30 18 C 1.588185 2.595960 4.376609 0
M  V30 19 C 1.272280 1.887181 5.528323 0
M  V30 20 N 1.536154 1.860727 6.845911 0
M  V30 21 N 0.884467 0.880759 7.445137 0
M  V30 22 C 0.134854 0.183850 6.548290 0
M  V30 23 C 0.399515 0.830849 5.387029 0
M  V30 24 C -0.076934 0.583797 4.095039 0
M  V30 25 S -1.259581 -0.724870 3.450536 0
M  V30 26 H -3.078629 -2.204320 -1.048602 0
M  V30 27 H -2.267830 -0.889258 -2.028302 0
M  V30 28 H -2.036814 -3.758246 -2.460839 0
M  V30 29 H -0.277839 -4.561992 -3.904922 0
M  V30 30 H 1.845657 -4.314525 -5.065454 0
M  V30 31 H 3.198515 -0.150055 -2.710128 0
M  V30 32 H 0.108398 -0.676468 -2.237168 0
M  V30 33 H -2.666584 -0.035334 0.490112 0
M  V30 34 H 1.419388 2.945246 2.308835 0
M  V30 35 H 2.283833 3.423521 4.542222 0
M  V30 36 H 2.196901 2.574242 7.270497 0
M  V30 37 H -0.515073 -0.657854 6.645892 0
M  V30 END ATOM
M  V30 BEGIN BOND
M  V30 1 2 1 2
M  V30 2 1 2 3
M  V30 3 1 3 4
M  V30 4 1 4 5
M  V30 5 2 5 6
M  V30 6 1 6 7
M  V30 7 2 7 8
M  V30 8 1 8 9
M  V30 9 1 8 10
M  V30 10 1 10 11
M  V30 11 2 10 12
M  V30 12 1 2 13
M  V30 13 1 13 14
M  V30 14 2 14 15
M  V30 15 1 15 16
M  V30 16 2 16 17
M  V30 17 1 17 18
M  V30 18 2 18 19
M  V30 19 1 19 20
M  V30 20 1 20 21
M  V30 21 2 21 22
M  V30 22 1 22 23
M  V30 23 2 23 24
M  V30 24 1 24 25
M  V30 25 1 12 5
M  V30 26 1 25 14
M  V30 27 1 24 16
M  V30 28 1 23 19
M  V30 29 1 3 26
M  V30 30 1 3 27
M  V30 31 1 4 28
M  V30 32 1 6 29
M  V30 33 1 7 30
M  V30 34 1 11 31
M  V30 35 1 12 32
M  V30 36 1 13 33
M  V30 37 1 17 34
M  V30 38 1 18 35
M  V30 39 1 20 36
M  V30 40 1 22 37
M  V30 END BOND
M  V30 END CTAB
M  END
>  <Dataset>  (590) 
ChEMBL_Kinases

>  <Ligand_Instance>  (590) 
nan

>  <PDB_ID>  (590) 
nan

>  <Standardized_SMILES>  (590) 
O=C(CNc1ccc(Cl)c(O)c1)Nc1nc2ccc3[nH]ncc3c2s1

>  <Name>  (590) 
nan

>  <Pocket>  (590) 
nan

>  <ATP_Site>  (590) 
nan

>  <Peripheral>  (590) 
nan

>  <Num_H_Atoms_ProtBoundConf>  (590) 
nan

>  <Num_Resolved_Atoms>  (590) 
nan

>  <Num_Not_Resolved_Atoms>  (590) 
nan

$$$$
CHEMBL3715956
     RDKit          3D

  0  0  0  0  0  0  0  0  0  0999 V3000
M  V30 BEGIN CTAB
M  V30 COUNTS 55 57 0 0 0
M  V30 BEGIN ATOM
M  V30 1 C 6.993845 -1.756594 5.935513 0
M  V30 2 C 7.262976 -2.505035 4.631196 0
M  V30 3 C 6.350135 -2.031766 3.563021 0
M  V30 4 C 5.105386 -2.687356 3.513650 0
M  V30 5 C 4.271641 -2.220036 2.528736 0
M  V30 6 C 4.483060 -1.221098 1.604779 0
M  V30 7 C 3.491713 -0.801571 0.627415 0
M  V30 8 C 2.161389 -0.889547 1.065151 0
M  V30 9 C 1.154226 -0.511430 0.195563 0
M  V30 10 C 1.384028 -0.039868 -1.106843 0
M  V30 11 C 0.245728 0.376883 -1.965020 0
M  V30 12 O 0.604693 0.563418 -3.144222 0
M  V30 13 N -1.019868 0.502665 -1.366988 0
M  V30 14 C -2.022352 0.915366 -2.331967 0
M  V30 15 C -3.339187 1.065102 -1.699675 0
M  V30 16 O -4.134743 1.432919 -2.627284 0
M  V30 17 N -3.854661 0.898779 -0.390195 0
M  V30 18 C -5.270360 1.153080 -0.125945 0
M  V30 19 C -6.164890 0.297304 -0.906804 0
M  V30 20 C -6.888351 0.733900 -1.993751 0
M  V30 21 C -7.749764 -0.034023 -2.760321 0
M  V30 22 C -7.908822 -1.380218 -2.408612 0
M  V30 23 C -7.198037 -1.860771 -1.319192 0
M  V30 24 C -6.348539 -1.034298 -0.590921 0
M  V30 25 C -5.620483 -1.592580 0.570945 0
M  V30 26 C 2.719126 0.030611 -1.500407 0
M  V30 27 C 3.730002 -0.343461 -0.642382 0
M  V30 28 C 5.723981 -0.607444 1.694715 0
M  V30 29 C 6.633574 -1.025270 2.672621 0
M  V30 30 H 7.763705 -0.985401 6.143301 0
M  V30 31 H 6.028250 -1.176711 5.852259 0
M  V30 32 H 6.941241 -2.431750 6.808663 0
M  V30 33 H 7.242822 -3.588400 4.735498 0
M  V30 34 H 8.296747 -2.190725 4.337244 0
M  V30 35 H 4.785903 -3.489290 4.165931 0
M  V30 36 H 3.291328 -2.711673 2.461335 0
M  V30 37 H 1.917475 -1.245267 2.069871 0
M  V30 38 H 0.165437 -0.608164 0.599474 0
M  V30 39 H -1.252939 0.335850 -0.373175 0
M  V30 40 H -2.076485 0.128982 -3.133528 0
M  V30 41 H -1.723698 1.838496 -2.870358 0
M  V30 42 H -3.115600 0.593429 0.267181 0
M  V30 43 H -5.477919 1.239205 0.937264 0
M  V30 44 H -5.424047 2.204505 -0.527054 0
M  V30 45 H -6.815024 1.788245 -2.323921 0
M  V30 46 H -8.283716 0.390328 -3.604857 0
M  V30 47 H -8.586116 -1.928624 -3.037439 0
M  V30 48 H -7.345030 -2.926263 -1.075930 0
M  V30 49 H -6.343918 -2.318071 1.046066 0
M  V30 50 H -5.400326 -0.850963 1.351523 0
M  V30 51 H -4.767661 -2.182038 0.226481 0
M  V30 52 H 2.929217 0.388380 -2.499911 0
M  V30 53 H 4.760011 -0.286672 -0.952474 0
M  V30 54 H 6.013087 0.196366 1.019497 0
M  V30 55 H 7.626890 -0.552372 2.761527 0
M  V30 END ATOM
M  V30 BEGIN BOND
M  V30 1 1 1 2
M  V30 2 1 2 3
M  V30 3 2 3 4
M  V30 4 1 4 5
M  V30 5 2 5 6
M  V30 6 1 6 7
M  V30 7 2 7 8
M  V30 8 1 8 9
M  V30 9 2 9 10
M  V30 10 1 10 11
M  V30 11 2 11 12
M  V30 12 1 11 13
M  V30 13 1 13 14
M  V30 14 1 14 15
M  V30 15 2 15 16
M  V30 16 1 15 17
M  V30 17 1 17 18
M  V30 18 1 18 19
M  V30 19 2 19 20
M  V30 20 1 20 21
M  V30 21 2 21 22
M  V30 22 1 22 23
M  V30 23 2 23 24
M  V30 24 1 24 25
M  V30 25 1 10 26
M  V30 26 2 26 27
M  V30 27 1 6 28
M  V30 28 2 28 29
M  V30 29 1 29 3
M  V30 30 1 27 7
M  V30 31 1 24 19
M  V30 32 1 1 30
M  V30 33 1 1 31
M  V30 34 1 1 32
M  V30 35 1 2 33
M  V30 36 1 2 34
M  V30 37 1 4 35
M  V30 38 1 5 36
M  V30 39 1 8 37
M  V30 40 1 9 38
M  V30 41 1 13 39
M  V30 42 1 14 40
M  V30 43 1 14 41
M  V30 44 1 17 42
M  V30 45 1 18 43
M  V30 46 1 18 44
M  V30 47 1 20 45
M  V30 48 1 21 46
M  V30 49 1 22 47
M  V30 50 1 23 48
M  V30 51 1 25 49
M  V30 52 1 25 50
M  V30 53 1 25 51
M  V30 54 1 26 52
M  V30 55 1 27 53
M  V30 56 1 28 54
M  V30 57 1 29 55
M  V30 END BOND
M  V30 END CTAB
M  END
>  <Dataset>  (591) 
ChEMBL_Kinases

>  <Ligand_Instance>  (591) 
nan

>  <PDB_ID>  (591) 
nan

>  <Standardized_SMILES>  (591) 
CCc1ccc(-c2ccc(C(=O)NCC(=O)NCc3ccccc3C)cc2)cc1

>  <Name>  (591) 
nan

>  <Pocket>  (591) 
nan

>  <ATP_Site>  (591) 
nan

>  <Peripheral>  (591) 
nan

>  <Num_H_Atoms_ProtBoundConf>  (591) 
nan

>  <Num_Resolved_Atoms>  (591) 
nan

>  <Num_Not_Resolved_Atoms>  (591) 
nan

$$$$
CHEMBL2425649
     RDKit          3D

  0  0  0  0  0  0  0  0  0  0999 V3000
M  V30 BEGIN CTAB
M  V30 COUNTS 55 59 0 0 0
M  V30 BEGIN ATOM
M  V30 1 O -0.268916 -4.820127 1.114254 0
M  V30 2 C -0.800796 -3.832653 0.521966 0
M  V30 3 C -0.358992 -2.436693 0.782692 0 CFG=1
M  V30 4 C 0.178172 -1.860098 -0.463883 0
M  V30 5 C 0.050170 -0.366098 -0.614803 0
M  V30 6 C -1.409671 -0.023959 -0.406002 0 CFG=2
M  V30 7 N -1.703099 1.339951 -0.777043 0
M  V30 8 C -1.061509 2.430243 -0.144624 0
M  V30 9 N -1.331536 3.703834 -0.486553 0
M  V30 10 C -0.754113 4.779703 0.078298 0
M  V30 11 C 0.178371 4.606775 1.074112 0
M  V30 12 C 0.475368 3.313444 1.445485 0
M  V30 13 N 1.433546 3.080294 2.471155 0
M  V30 14 N 1.079556 3.301205 3.728953 0
M  V30 15 N 2.104300 3.027929 4.535198 0
M  V30 16 C 3.138823 2.619925 3.744665 0
M  V30 17 C 4.451462 2.201695 3.949434 0
M  V30 18 C 5.244044 1.849630 2.864311 0
M  V30 19 C 4.765620 1.902263 1.577707 0
M  V30 20 C 3.465036 2.312801 1.328074 0
M  V30 21 C 2.708726 2.654129 2.428788 0
M  V30 22 N -0.157138 2.317003 0.818780 0
M  V30 23 C -1.679447 -0.295722 1.050305 0
M  V30 24 C -1.547342 -1.737361 1.366076 0
M  V30 25 N -1.772736 -4.409398 -0.310956 0
M  V30 26 C -1.853008 -5.856366 -0.241657 0
M  V30 27 C -1.288139 -6.364677 -1.555553 0
M  V30 28 O -1.857774 -5.671807 -2.598044 0
M  V30 29 C -3.030147 -5.012993 -2.237385 0
M  V30 30 C -2.762976 -3.882972 -1.264708 0
M  V30 31 H 0.450232 -2.508484 1.542776 0
M  V30 32 H 1.292423 -2.061844 -0.487851 0
M  V30 33 H -0.189017 -2.338835 -1.393666 0
M  V30 34 H 0.699921 0.147400 0.122938 0
M  V30 35 H 0.422585 -0.121390 -1.625630 0
M  V30 36 H -2.004982 -0.730109 -1.008949 0
M  V30 37 H -2.400363 1.538153 -1.525094 0
M  V30 38 H -1.070301 5.755376 -0.299502 0
M  V30 39 H 0.625660 5.478964 1.509957 0
M  V30 40 H 4.773751 2.179106 4.972529 0
M  V30 41 H 6.227532 1.547810 3.157806 0
M  V30 42 H 5.413681 1.621238 0.773567 0
M  V30 43 H 3.054908 2.366267 0.326452 0
M  V30 44 H -0.988963 0.269825 1.700434 0
M  V30 45 H -2.708010 0.011430 1.349999 0
M  V30 46 H -1.494111 -1.833581 2.470528 0
M  V30 47 H -2.512347 -2.227609 1.086228 0
M  V30 48 H -2.939501 -6.156955 -0.179368 0
M  V30 49 H -1.342241 -6.305216 0.607951 0
M  V30 50 H -1.410647 -7.471889 -1.652914 0
M  V30 51 H -0.199010 -6.153539 -1.539054 0
M  V30 52 H -3.377473 -4.512514 -3.177911 0
M  V30 53 H -3.850994 -5.672438 -1.940287 0
M  V30 54 H -2.457406 -2.963391 -1.752238 0
M  V30 55 H -3.706099 -3.668609 -0.710493 0
M  V30 END ATOM
M  V30 BEGIN BOND
M  V30 1 2 1 2
M  V30 2 1 2 3
M  V30 3 1 3 4
M  V30 4 1 4 5
M  V30 5 1 5 6
M  V30 6 1 6 7
M  V30 7 1 7 8
M  V30 8 2 8 9
M  V30 9 1 9 10
M  V30 10 2 10 11
M  V30 11 1 11 12
M  V30 12 1 12 13
M  V30 13 1 13 14
M  V30 14 2 14 15
M  V30 15 1 15 16
M  V30 16 2 16 17
M  V30 17 1 17 18
M  V30 18 2 18 19
M  V30 19 1 19 20
M  V30 20 2 20 21
M  V30 21 2 12 22
M  V30 22 1 6 23
M  V30 23 1 23 24
M  V30 24 1 2 25
M  V30 25 1 25 26
M  V30 26 1 26 27
M  V30 27 1 27 28
M  V30 28 1 28 29
M  V30 29 1 29 30
M  V30 30 1 24 3
M  V30 31 1 30 25
M  V30 32 1 22 8
M  V30 33 1 21 13
M  V30 34 1 21 16
M  V30 35 1 3 31 CFG=1
M  V30 36 1 4 32
M  V30 37 1 4 33
M  V30 38 1 5 34
M  V30 39 1 5 35
M  V30 40 1 6 36 CFG=3
M  V30 41 1 7 37
M  V30 42 1 10 38
M  V30 43 1 11 39
M  V30 44 1 17 40
M  V30 45 1 18 41
M  V30 46 1 19 42
M  V30 47 1 20 43
M  V30 48 1 23 44
M  V30 49 1 23 45
M  V30 50 1 24 46
M  V30 51 1 24 47
M  V30 52 1 26 48
M  V30 53 1 26 49
M  V30 54 1 27 50
M  V30 55 1 27 51
M  V30 56 1 29 52
M  V30 57 1 29 53
M  V30 58 1 30 54
M  V30 59 1 30 55
M  V30 END BOND
M  V30 END CTAB
M  END
>  <Dataset>  (592) 
ChEMBL_Kinases

>  <Ligand_Instance>  (592) 
nan

>  <PDB_ID>  (592) 
nan

>  <Standardized_SMILES>  (592) 
O=C([C@H]1CC[C@H](Nc2nccc(-n3nnc4ccccc43)n2)CC1)N1CCOCC1

>  <Name>  (592) 
nan

>  <Pocket>  (592) 
nan

>  <ATP_Site>  (592) 
nan

>  <Peripheral>  (592) 
nan

>  <Num_H_Atoms_ProtBoundConf>  (592) 
nan

>  <Num_Resolved_Atoms>  (592) 
nan

>  <Num_Not_Resolved_Atoms>  (592) 
nan

$$$$
CHEMBL2425650
     RDKit          3D

  0  0  0  0  0  0  0  0  0  0999 V3000
M  V30 BEGIN CTAB
M  V30 COUNTS 54 58 0 0 0
M  V30 BEGIN ATOM
M  V30 1 O -4.390208 -4.201044 1.126204 0
M  V30 2 C -3.426443 -3.842795 0.366220 0
M  V30 3 C -2.564575 -2.716438 0.809351 0 CFG=1
M  V30 4 C -2.595608 -1.543989 -0.148248 0
M  V30 5 C -1.519429 -0.582678 0.303240 0
M  V30 6 C -1.682873 -0.090961 1.702472 0 CFG=2
M  V30 7 N -0.455194 0.503378 2.158787 0
M  V30 8 C 0.131311 1.624696 1.508253 0
M  V30 9 N -0.436681 2.188091 0.429263 0
M  V30 10 C 0.107687 3.247644 -0.194886 0
M  V30 11 C 1.285975 3.814115 0.244504 0
M  V30 12 C 1.876458 3.241835 1.352307 0
M  V30 13 N 3.093135 3.693381 1.944046 0
M  V30 14 N 3.357747 4.627921 2.824738 0
M  V30 15 N 4.674933 4.671647 3.065306 0
M  V30 16 C 5.305546 3.739642 2.323685 0
M  V30 17 C 6.627576 3.363469 2.187399 0
M  V30 18 C 6.970038 2.329019 1.309548 0
M  V30 19 C 5.954198 1.710904 0.598562 0
M  V30 20 C 4.633901 2.098917 0.745728 0
M  V30 21 C 4.272650 3.120669 1.609287 0
M  V30 22 N 1.259853 2.185478 1.910186 0
M  V30 23 C -2.081944 -1.169111 2.669024 0
M  V30 24 C -3.055946 -2.165640 2.141864 0
M  V30 25 N -3.120867 -4.456928 -0.888291 0
M  V30 26 C -2.126533 -4.270608 -1.920011 0
M  V30 27 C -1.802799 -5.647379 -2.457970 0
M  V30 28 C -2.988748 -6.481549 -2.110311 0
M  V30 29 C -3.908683 -5.548713 -1.394786 0
M  V30 30 H -1.499395 -3.079563 0.912324 0
M  V30 31 H -3.598978 -1.076089 -0.007517 0
M  V30 32 H -2.397035 -1.805298 -1.193469 0
M  V30 33 H -1.595443 0.291161 -0.405729 0
M  V30 34 H -0.546062 -1.057905 0.141137 0
M  V30 35 H -2.531603 0.652887 1.710656 0
M  V30 36 H 0.064141 0.123620 3.006095 0
M  V30 37 H -0.358548 3.704443 -1.074826 0
M  V30 38 H 1.794572 4.659922 -0.189073 0
M  V30 39 H 7.366911 3.893048 2.776561 0
M  V30 40 H 8.005679 2.032792 1.201294 0
M  V30 41 H 6.205572 0.908282 -0.084870 0
M  V30 42 H 3.884760 1.575094 0.160376 0
M  V30 43 H -1.146383 -1.721020 2.945002 0
M  V30 44 H -2.480720 -0.698527 3.588764 0
M  V30 45 H -3.070708 -3.018041 2.850551 0
M  V30 46 H -4.049662 -1.734239 1.942923 0
M  V30 47 H -2.577588 -3.652746 -2.711983 0
M  V30 48 H -1.176534 -3.831895 -1.550494 0
M  V30 49 H -0.870519 -6.028368 -1.950049 0
M  V30 50 H -1.629904 -5.656168 -3.543205 0
M  V30 51 H -2.728797 -7.391337 -1.527321 0
M  V30 52 H -3.471920 -6.843605 -3.056216 0
M  V30 53 H -4.464314 -6.094181 -0.604817 0
M  V30 54 H -4.631040 -5.118693 -2.142885 0
M  V30 END ATOM
M  V30 BEGIN BOND
M  V30 1 2 1 2
M  V30 2 1 2 3
M  V30 3 1 3 4
M  V30 4 1 4 5
M  V30 5 1 5 6
M  V30 6 1 6 7
M  V30 7 1 7 8
M  V30 8 2 8 9
M  V30 9 1 9 10
M  V30 10 2 10 11
M  V30 11 1 11 12
M  V30 12 1 12 13
M  V30 13 1 13 14
M  V30 14 2 14 15
M  V30 15 1 15 16
M  V30 16 2 16 17
M  V30 17 1 17 18
M  V30 18 2 18 19
M  V30 19 1 19 20
M  V30 20 2 20 21
M  V30 21 2 12 22
M  V30 22 1 6 23
M  V30 23 1 23 24
M  V30 24 1 2 25
M  V30 25 1 25 26
M  V30 26 1 26 27
M  V30 27 1 27 28
M  V30 28 1 28 29
M  V30 29 1 24 3
M  V30 30 1 29 25
M  V30 31 1 22 8
M  V30 32 1 21 13
M  V30 33 1 21 16
M  V30 34 1 3 30 CFG=1
M  V30 35 1 4 31
M  V30 36 1 4 32
M  V30 37 1 5 33
M  V30 38 1 5 34
M  V30 39 1 6 35 CFG=3
M  V30 40 1 7 36
M  V30 41 1 10 37
M  V30 42 1 11 38
M  V30 43 1 17 39
M  V30 44 1 18 40
M  V30 45 1 19 41
M  V30 46 1 20 42
M  V30 47 1 23 43
M  V30 48 1 23 44
M  V30 49 1 24 45
M  V30 50 1 24 46
M  V30 51 1 26 47
M  V30 52 1 26 48
M  V30 53 1 27 49
M  V30 54 1 27 50
M  V30 55 1 28 51
M  V30 56 1 28 52
M  V30 57 1 29 53
M  V30 58 1 29 54
M  V30 END BOND
M  V30 END CTAB
M  END
>  <Dataset>  (593) 
ChEMBL_Kinases

>  <Ligand_Instance>  (593) 
nan

>  <PDB_ID>  (593) 
nan

>  <Standardized_SMILES>  (593) 
O=C([C@H]1CC[C@H](Nc2nccc(-n3nnc4ccccc43)n2)CC1)N1CCCC1

>  <Name>  (593) 
nan

>  <Pocket>  (593) 
nan

>  <ATP_Site>  (593) 
nan

>  <Peripheral>  (593) 
nan

>  <Num_H_Atoms_ProtBoundConf>  (593) 
nan

>  <Num_Resolved_Atoms>  (593) 
nan

>  <Num_Not_Resolved_Atoms>  (593) 
nan

$$$$
CHEMBL2425651
     RDKit          3D

  0  0  0  0  0  0  0  0  0  0999 V3000
M  V30 BEGIN CTAB
M  V30 COUNTS 47 50 0 0 0
M  V30 BEGIN ATOM
M  V30 1 C -6.390803 -2.068912 0.567004 0
M  V30 2 C -5.360781 -2.342735 -0.480000 0
M  V30 3 O -5.866371 -2.813264 -1.548538 0
M  V30 4 N -3.963721 -2.120988 -0.348377 0
M  V30 5 C -3.092838 -2.438026 -1.457137 0 CFG=1
M  V30 6 C -2.487190 -1.155187 -1.969933 0
M  V30 7 C -1.473591 -0.538976 -1.066975 0
M  V30 8 C -0.762919 -1.536354 -0.179228 0 CFG=2
M  V30 9 N 0.577412 -1.064982 0.082305 0
M  V30 10 C 0.804007 0.180672 0.730628 0
M  V30 11 N -0.216507 0.960382 1.121557 0
M  V30 12 C 0.003164 2.137437 1.734280 0
M  V30 13 C 1.274331 2.604086 1.992383 0
M  V30 14 C 2.321103 1.801238 1.589816 0
M  V30 15 N 3.710241 2.062074 1.742871 0
M  V30 16 N 4.547181 2.827770 1.061012 0
M  V30 17 N 5.768658 2.740207 1.598689 0
M  V30 18 C 5.686314 1.884014 2.659023 0
M  V30 19 C 6.674977 1.462582 3.540079 0
M  V30 20 C 6.339572 0.572816 4.554768 0
M  V30 21 C 5.018185 0.132423 4.653773 0
M  V30 22 C 4.038688 0.554569 3.774982 0
M  V30 23 C 4.371005 1.441660 2.762649 0
M  V30 24 N 2.020248 0.639085 0.983770 0
M  V30 25 C -0.667045 -2.831619 -0.970686 0
M  V30 26 C -2.041343 -3.437339 -1.145451 0
M  V30 27 H -6.473203 -2.985377 1.170102 0
M  V30 28 H -6.018971 -1.266941 1.232235 0
M  V30 29 H -7.338683 -1.717486 0.128068 0
M  V30 30 H -3.711125 -1.732390 0.586841 0
M  V30 31 H -3.750816 -2.824685 -2.260699 0
M  V30 32 H -2.137452 -1.293747 -3.025032 0
M  V30 33 H -3.337144 -0.418581 -2.054453 0
M  V30 34 H -0.663566 -0.108047 -1.721483 0
M  V30 35 H -1.883736 0.274087 -0.430222 0
M  V30 36 H -1.319076 -1.710259 0.772444 0
M  V30 37 H 1.421329 -1.629101 -0.199040 0
M  V30 38 H -0.790556 2.819164 2.077274 0
M  V30 39 H 1.552967 3.526256 2.473821 0
M  V30 40 H 7.703044 1.797600 3.472766 0
M  V30 41 H 7.098270 0.236189 5.247752 0
M  V30 42 H 4.793409 -0.556706 5.451874 0
M  V30 43 H 3.025294 0.225023 3.840438 0
M  V30 44 H 0.029063 -3.501564 -0.458132 0
M  V30 45 H -0.222832 -2.546124 -1.948871 0
M  V30 46 H -2.244045 -4.015324 -0.240815 0
M  V30 47 H -1.974060 -4.168894 -1.976538 0
M  V30 END ATOM
M  V30 BEGIN BOND
M  V30 1 1 1 2
M  V30 2 2 2 3
M  V30 3 1 2 4
M  V30 4 1 4 5
M  V30 5 1 5 6
M  V30 6 1 6 7
M  V30 7 1 7 8
M  V30 8 1 8 9
M  V30 9 1 9 10
M  V30 10 2 10 11
M  V30 11 1 11 12
M  V30 12 2 12 13
M  V30 13 1 13 14
M  V30 14 1 14 15
M  V30 15 1 15 16
M  V30 16 2 16 17
M  V30 17 1 17 18
M  V30 18 2 18 19
M  V30 19 1 19 20
M  V30 20 2 20 21
M  V30 21 1 21 22
M  V30 22 2 22 23
M  V30 23 2 14 24
M  V30 24 1 8 25
M  V30 25 1 25 26
M  V30 26 1 26 5
M  V30 27 1 24 10
M  V30 28 1 23 15
M  V30 29 1 23 18
M  V30 30 1 1 27
M  V30 31 1 1 28
M  V30 32 1 1 29
M  V30 33 1 4 30
M  V30 34 1 5 31 CFG=3
M  V30 35 1 6 32
M  V30 36 1 6 33
M  V30 37 1 7 34
M  V30 38 1 7 35
M  V30 39 1 8 36 CFG=1
M  V30 40 1 9 37
M  V30 41 1 12 38
M  V30 42 1 13 39
M  V30 43 1 19 40
M  V30 44 1 20 41
M  V30 45 1 21 42
M  V30 46 1 22 43
M  V30 47 1 25 44
M  V30 48 1 25 45
M  V30 49 1 26 46
M  V30 50 1 26 47
M  V30 END BOND
M  V30 END CTAB
M  END
>  <Dataset>  (594) 
ChEMBL_Kinases

>  <Ligand_Instance>  (594) 
nan

>  <PDB_ID>  (594) 
nan

>  <Standardized_SMILES>  (594) 
CC(=O)N[C@H]1CC[C@H](Nc2nccc(-n3nnc4ccccc43)n2)CC1

>  <Name>  (594) 
nan

>  <Pocket>  (594) 
nan

>  <ATP_Site>  (594) 
nan

>  <Peripheral>  (594) 
nan

>  <Num_H_Atoms_ProtBoundConf>  (594) 
nan

>  <Num_Resolved_Atoms>  (594) 
nan

>  <Num_Not_Resolved_Atoms>  (594) 
nan

$$$$
CHEMBL2425652
     RDKit          3D

  0  0  0  0  0  0  0  0  0  0999 V3000
M  V30 BEGIN CTAB
M  V30 COUNTS 42 45 0 0 0
M  V30 BEGIN ATOM
M  V30 1 N 0.083448 -5.201429 1.818091 0
M  V30 2 C 1.063007 -4.323920 1.213479 0 CFG=1
M  V30 3 C 0.368306 -3.084209 0.693602 0
M  V30 4 C 0.807530 -1.869630 1.520633 0
M  V30 5 C 2.290647 -1.712810 1.277317 0 CFG=2
M  V30 6 N 2.584052 -1.471057 -0.128517 0
M  V30 7 C 2.057738 -0.329061 -0.795507 0
M  V30 8 N 2.327892 -0.104376 -2.098516 0
M  V30 9 C 1.847920 0.959917 -2.750208 0
M  V30 10 C 1.046633 1.891239 -2.124367 0
M  V30 11 C 0.762888 1.672857 -0.791547 0
M  V30 12 N -0.061279 2.606105 -0.098022 0
M  V30 13 N 0.280372 3.899007 -0.086109 0
M  V30 14 N -0.606258 4.602585 0.606404 0
M  V30 15 C -1.566508 3.764930 1.071316 0
M  V30 16 C -2.718472 3.871027 1.827045 0
M  V30 17 C -3.466362 2.738265 2.103520 0
M  V30 18 C -3.067492 1.491855 1.626236 0
M  V30 19 C -1.916016 1.362612 0.866700 0
M  V30 20 C -1.199094 2.516122 0.613735 0
M  V30 21 N 1.286519 0.577116 -0.213048 0
M  V30 22 C 3.040815 -2.894524 1.813596 0
M  V30 23 C 2.124561 -4.023942 2.239671 0
M  V30 24 H -0.120215 -6.027245 1.201509 0
M  V30 25 H 0.393334 -5.530398 2.751833 0
M  V30 26 H 1.548927 -4.891098 0.393855 0
M  V30 27 H -0.735878 -3.171903 0.844697 0
M  V30 28 H 0.547349 -2.904717 -0.389895 0
M  V30 29 H 0.674072 -2.145683 2.581832 0
M  V30 30 H 0.233466 -0.994424 1.223233 0
M  V30 31 H 2.651664 -0.832932 1.888119 0
M  V30 32 H 3.185132 -2.133140 -0.666250 0
M  V30 33 H 2.133438 1.036364 -3.800749 0
M  V30 34 H 0.679284 2.737893 -2.688236 0
M  V30 35 H -2.952347 4.874571 2.155525 0
M  V30 36 H -4.352048 2.912233 2.701043 0
M  V30 37 H -3.681729 0.635041 1.866347 0
M  V30 38 H -1.606034 0.390668 0.495198 0
M  V30 39 H 3.768418 -3.273570 1.036808 0
M  V30 40 H 3.687831 -2.667366 2.686071 0
M  V30 41 H 2.768077 -4.918911 2.332757 0
M  V30 42 H 1.671305 -3.826608 3.212513 0
M  V30 END ATOM
M  V30 BEGIN BOND
M  V30 1 1 1 2
M  V30 2 1 2 3
M  V30 3 1 3 4
M  V30 4 1 4 5
M  V30 5 1 5 6
M  V30 6 1 6 7
M  V30 7 2 7 8
M  V30 8 1 8 9
M  V30 9 2 9 10
M  V30 10 1 10 11
M  V30 11 1 11 12
M  V30 12 1 12 13
M  V30 13 2 13 14
M  V30 14 1 14 15
M  V30 15 2 15 16
M  V30 16 1 16 17
M  V30 17 2 17 18
M  V30 18 1 18 19
M  V30 19 2 19 20
M  V30 20 2 11 21
M  V30 21 1 5 22
M  V30 22 1 22 23
M  V30 23 1 23 2
M  V30 24 1 21 7
M  V30 25 1 20 12
M  V30 26 1 20 15
M  V30 27 1 1 24
M  V30 28 1 1 25
M  V30 29 1 2 26 CFG=3
M  V30 30 1 3 27
M  V30 31 1 3 28
M  V30 32 1 4 29
M  V30 33 1 4 30
M  V30 34 1 5 31 CFG=1
M  V30 35 1 6 32
M  V30 36 1 9 33
M  V30 37 1 10 34
M  V30 38 1 16 35
M  V30 39 1 17 36
M  V30 40 1 18 37
M  V30 41 1 19 38
M  V30 42 1 22 39
M  V30 43 1 22 40
M  V30 44 1 23 41
M  V30 45 1 23 42
M  V30 END BOND
M  V30 END CTAB
M  END
>  <Dataset>  (595) 
ChEMBL_Kinases

>  <Ligand_Instance>  (595) 
nan

>  <PDB_ID>  (595) 
nan

>  <Standardized_SMILES>  (595) 
N[C@H]1CC[C@H](Nc2nccc(-n3nnc4ccccc43)n2)CC1

>  <Name>  (595) 
nan

>  <Pocket>  (595) 
nan

>  <ATP_Site>  (595) 
nan

>  <Peripheral>  (595) 
nan

>  <Num_H_Atoms_ProtBoundConf>  (595) 
nan

>  <Num_Resolved_Atoms>  (595) 
nan

>  <Num_Not_Resolved_Atoms>  (595) 
nan

$$$$
CHEMBL2425653
     RDKit          3D

  0  0  0  0  0  0  0  0  0  0999 V3000
M  V30 BEGIN CTAB
M  V30 COUNTS 53 56 0 0 0
M  V30 BEGIN ATOM
M  V30 1 C 0.690507 -3.151240 3.903014 0
M  V30 2 N 0.969283 -1.811136 3.486373 0
M  V30 3 C 0.087317 -0.819497 4.074902 0
M  V30 4 S 2.620742 -1.369753 3.556486 0
M  V30 5 O 2.676305 0.134653 3.739686 0
M  V30 6 O 3.342719 -2.073103 4.668213 0
M  V30 7 N 3.361649 -1.753982 2.021665 0
M  V30 8 C 2.726512 -0.996783 0.981959 0 CFG=1
M  V30 9 C 3.667696 -0.091740 0.216570 0
M  V30 10 C 3.195269 0.074673 -1.221456 0
M  V30 11 C 1.688355 0.215497 -1.282816 0 CFG=2
M  V30 12 N 1.262660 1.428423 -0.619402 0
M  V30 13 C -0.065499 1.867624 -0.490579 0
M  V30 14 N -0.427005 3.006902 0.136278 0
M  V30 15 C -1.695056 3.402527 0.245498 0
M  V30 16 C -2.665019 2.615162 -0.303528 0
M  V30 17 C -2.318741 1.445859 -0.949254 0
M  V30 18 N -3.280122 0.576091 -1.545293 0
M  V30 19 N -4.119408 0.719515 -2.576889 0
M  V30 20 N -4.813923 -0.406053 -2.725914 0
M  V30 21 C -4.401669 -1.280223 -1.764027 0
M  V30 22 C -4.811654 -2.570643 -1.497440 0
M  V30 23 C -4.263401 -3.303132 -0.461763 0
M  V30 24 C -3.287460 -2.688430 0.295218 0
M  V30 25 C -2.883549 -1.395639 0.020416 0
M  V30 26 C -3.423167 -0.662495 -1.005845 0
M  V30 27 N -1.023584 1.095614 -1.029561 0
M  V30 28 C 1.011399 -1.005837 -0.758261 0
M  V30 29 C 2.023062 -1.882823 -0.053212 0
M  V30 30 H 0.201136 -3.201966 4.906941 0
M  V30 31 H -0.035277 -3.624247 3.181383 0
M  V30 32 H 1.596815 -3.790023 3.875880 0
M  V30 33 H -0.138834 -1.058745 5.122190 0
M  V30 34 H 0.583330 0.162912 3.966591 0
M  V30 35 H -0.847180 -0.824371 3.477751 0
M  V30 36 H 3.122855 -2.766602 1.843020 0
M  V30 37 H 1.923494 -0.354897 1.402891 0
M  V30 38 H 3.818465 0.877639 0.723019 0
M  V30 39 H 4.659766 -0.589665 0.159515 0
M  V30 40 H 3.715611 0.937016 -1.658677 0
M  V30 41 H 3.491089 -0.838648 -1.775742 0
M  V30 42 H 1.433411 0.330315 -2.353085 0
M  V30 43 H 2.003363 2.055413 -0.185289 0
M  V30 44 H -1.941847 4.316324 0.752362 0
M  V30 45 H -3.732312 2.862508 -0.261317 0
M  V30 46 H -5.580336 -3.094220 -2.071296 0
M  V30 47 H -4.522318 -4.317012 -0.180721 0
M  V30 48 H -2.813525 -3.183014 1.112012 0
M  V30 49 H -2.116323 -0.919489 0.619475 0
M  V30 50 H 0.280674 -0.704851 0.043222 0
M  V30 51 H 0.460367 -1.571528 -1.535756 0
M  V30 52 H 2.718957 -2.401646 -0.717098 0
M  V30 53 H 1.460463 -2.635216 0.559292 0
M  V30 END ATOM
M  V30 BEGIN BOND
M  V30 1 1 1 2
M  V30 2 1 2 3
M  V30 3 1 2 4
M  V30 4 2 4 5
M  V30 5 2 4 6
M  V30 6 1 4 7
M  V30 7 1 7 8
M  V30 8 1 8 9
M  V30 9 1 9 10
M  V30 10 1 10 11
M  V30 11 1 11 12
M  V30 12 1 12 13
M  V30 13 2 13 14
M  V30 14 1 14 15
M  V30 15 2 15 16
M  V30 16 1 16 17
M  V30 17 1 17 18
M  V30 18 1 18 19
M  V30 19 2 19 20
M  V30 20 1 20 21
M  V30 21 2 21 22
M  V30 22 1 22 23
M  V30 23 2 23 24
M  V30 24 1 24 25
M  V30 25 2 25 26
M  V30 26 2 17 27
M  V30 27 1 11 28
M  V30 28 1 28 29
M  V30 29 1 29 8
M  V30 30 1 27 13
M  V30 31 1 26 18
M  V30 32 1 26 21
M  V30 33 1 1 30
M  V30 34 1 1 31
M  V30 35 1 1 32
M  V30 36 1 3 33
M  V30 37 1 3 34
M  V30 38 1 3 35
M  V30 39 1 7 36
M  V30 40 1 8 37 CFG=1
M  V30 41 1 9 38
M  V30 42 1 9 39
M  V30 43 1 10 40
M  V30 44 1 10 41
M  V30 45 1 11 42 CFG=3
M  V30 46 1 12 43
M  V30 47 1 15 44
M  V30 48 1 16 45
M  V30 49 1 22 46
M  V30 50 1 23 47
M  V30 51 1 24 48
M  V30 52 1 25 49
M  V30 53 1 28 50
M  V30 54 1 28 51
M  V30 55 1 29 52
M  V30 56 1 29 53
M  V30 END BOND
M  V30 END CTAB
M  END
>  <Dataset>  (596) 
ChEMBL_Kinases

>  <Ligand_Instance>  (596) 
nan

>  <PDB_ID>  (596) 
nan

>  <Standardized_SMILES>  (596) 
CN(C)S(=O)(=O)N[C@H]1CC[C@H](Nc2nccc(-n3nnc4ccccc43)n2)CC1

>  <Name>  (596) 
nan

>  <Pocket>  (596) 
nan

>  <ATP_Site>  (596) 
nan

>  <Peripheral>  (596) 
nan

>  <Num_H_Atoms_ProtBoundConf>  (596) 
nan

>  <Num_Resolved_Atoms>  (596) 
nan

>  <Num_Not_Resolved_Atoms>  (596) 
nan

$$$$
CHEMBL2425654
     RDKit          3D

  0  0  0  0  0  0  0  0  0  0999 V3000
M  V30 BEGIN CTAB
M  V30 COUNTS 41 44 0 0 0
M  V30 BEGIN ATOM
M  V30 1 O -0.111840 -6.107175 2.540246 0
M  V30 2 C 0.071488 -4.835268 2.010132 0 CFG=1
M  V30 3 C -0.895449 -4.675423 0.866579 0
M  V30 4 C -0.893568 -3.236355 0.374726 0
M  V30 5 C -1.467979 -2.352002 1.464316 0 CFG=2
M  V30 6 N -0.668986 -1.126506 1.496191 0
M  V30 7 C -0.650559 -0.362632 0.291230 0
M  V30 8 N -1.332342 -0.760502 -0.797777 0
M  V30 9 C -1.342216 -0.063762 -1.965059 0
M  V30 10 C -0.604490 1.122181 -2.024960 0
M  V30 11 C 0.097743 1.538289 -0.913618 0
M  V30 12 N 0.863809 2.742035 -0.930354 0
M  V30 13 N 0.816479 3.703735 -1.837374 0
M  V30 14 N 1.664487 4.669327 -1.534337 0
M  V30 15 C 2.294153 4.323328 -0.377695 0
M  V30 16 C 3.265727 4.992906 0.352247 0
M  V30 17 C 3.701960 4.360899 1.497388 0
M  V30 18 C 3.243020 3.146937 1.939335 0
M  V30 19 C 2.265202 2.523570 1.160431 0
M  V30 20 C 1.774896 3.094141 -0.004145 0
M  V30 21 N 0.046720 0.783561 0.193198 0
M  V30 22 C -1.464066 -3.046065 2.803357 0
M  V30 23 C -0.171767 -3.792512 3.053019 0
M  V30 24 H 0.757151 -6.562722 2.648883 0
M  V30 25 H 1.123078 -4.738094 1.652500 0
M  V30 26 H -0.545665 -5.299874 -0.002751 0
M  V30 27 H -1.908939 -4.930253 1.170022 0
M  V30 28 H 0.148449 -2.935058 0.140942 0
M  V30 29 H -1.465655 -3.168108 -0.575001 0
M  V30 30 H -2.530352 -2.166387 1.202293 0
M  V30 31 H -0.121010 -0.769170 2.309948 0
M  V30 32 H -1.899788 -0.407007 -2.826363 0
M  V30 33 H -0.582200 1.711069 -2.933285 0
M  V30 34 H 3.663964 5.951282 0.052040 0
M  V30 35 H 4.465687 4.801371 2.146421 0
M  V30 36 H 3.586015 2.652222 2.837774 0
M  V30 37 H 1.886641 1.567100 1.485633 0
M  V30 38 H -2.291687 -3.768906 2.802395 0
M  V30 39 H -1.646795 -2.292034 3.569818 0
M  V30 40 H -0.277592 -4.289452 4.038939 0
M  V30 41 H 0.689111 -3.094738 3.177798 0
M  V30 END ATOM
M  V30 BEGIN BOND
M  V30 1 1 1 2
M  V30 2 1 2 3
M  V30 3 1 3 4
M  V30 4 1 4 5
M  V30 5 1 5 6
M  V30 6 1 6 7
M  V30 7 2 7 8
M  V30 8 1 8 9
M  V30 9 2 9 10
M  V30 10 1 10 11
M  V30 11 1 11 12
M  V30 12 1 12 13
M  V30 13 2 13 14
M  V30 14 1 14 15
M  V30 15 2 15 16
M  V30 16 1 16 17
M  V30 17 2 17 18
M  V30 18 1 18 19
M  V30 19 2 19 20
M  V30 20 2 11 21
M  V30 21 1 5 22
M  V30 22 1 22 23
M  V30 23 1 23 2
M  V30 24 1 21 7
M  V30 25 1 20 12
M  V30 26 1 20 15
M  V30 27 1 1 24
M  V30 28 1 2 25 CFG=3
M  V30 29 1 3 26
M  V30 30 1 3 27
M  V30 31 1 4 28
M  V30 32 1 4 29
M  V30 33 1 5 30 CFG=3
M  V30 34 1 6 31
M  V30 35 1 9 32
M  V30 36 1 10 33
M  V30 37 1 16 34
M  V30 38 1 17 35
M  V30 39 1 18 36
M  V30 40 1 19 37
M  V30 41 1 22 38
M  V30 42 1 22 39
M  V30 43 1 23 40
M  V30 44 1 23 41
M  V30 END BOND
M  V30 END CTAB
M  END
>  <Dataset>  (597) 
ChEMBL_Kinases

>  <Ligand_Instance>  (597) 
nan

>  <PDB_ID>  (597) 
nan

>  <Standardized_SMILES>  (597) 
O[C@H]1CC[C@H](Nc2nccc(-n3nnc4ccccc43)n2)CC1

>  <Name>  (597) 
nan

>  <Pocket>  (597) 
nan

>  <ATP_Site>  (597) 
nan

>  <Peripheral>  (597) 
nan

>  <Num_H_Atoms_ProtBoundConf>  (597) 
nan

>  <Num_Resolved_Atoms>  (597) 
nan

>  <Num_Not_Resolved_Atoms>  (597) 
nan

$$$$
CHEMBL3702095
     RDKit          3D

  0  0  0  0  0  0  0  0  0  0999 V3000
M  V30 BEGIN CTAB
M  V30 COUNTS 65 70 0 0 0
M  V30 BEGIN ATOM
M  V30 1 O 4.074998 1.333673 4.569395 0
M  V30 2 C 3.387999 2.513024 4.891922 0
M  V30 3 C 3.119409 3.231242 3.615797 0
M  V30 4 C 2.386575 4.540402 3.756646 0
M  V30 5 C 1.040185 4.451484 4.375702 0
M  V30 6 C -0.068295 4.160088 3.414217 0
M  V30 7 N 0.416458 4.081961 2.031945 0
M  V30 8 C 0.266688 3.019186 1.132305 0
M  V30 9 C 0.792139 3.025856 -0.142297 0
M  V30 10 C 0.616400 1.954404 -0.991593 0
M  V30 11 C -0.082344 0.816334 -0.643681 0
M  V30 12 N -0.254625 -0.281197 -1.532240 0
M  V30 13 C -0.995752 -1.401048 -1.058278 0
M  V30 14 N -1.483092 -1.347356 0.194495 0
M  V30 15 C -2.204666 -2.374000 0.732450 0
M  V30 16 C -2.420350 -3.487845 -0.067504 0
M  V30 17 C -3.066097 -4.693397 0.070801 0
M  V30 18 C -3.755097 -5.161372 1.192310 0
M  V30 19 C -4.345624 -6.409381 1.143762 0
M  V30 20 N -4.229329 -7.123485 0.008733 0
M  V30 21 C -3.561365 -6.655746 -1.061827 0
M  V30 22 F -3.484450 -7.428422 -2.174617 0
M  V30 23 C -2.944346 -5.421803 -1.094418 0
M  V30 24 N -2.227777 -4.682784 -1.961185 0
M  V30 25 C -1.947726 -5.213541 -3.276672 0
M  V30 26 C -1.426918 -4.226770 -4.256106 0
M  V30 27 C 0.056720 -4.193359 -4.133471 0
M  V30 28 C 0.390994 -5.252118 -3.083592 0
M  V30 29 C -0.798240 -6.188341 -3.138244 0
M  V30 30 C -1.919720 -3.541005 -1.352015 0
M  V30 31 N -1.216984 -2.493466 -1.819198 0
M  V30 32 N -0.598701 0.815499 0.615796 0
M  V30 33 C -0.423169 1.866696 1.441376 0
M  V30 34 C 1.089725 5.297574 1.728967 0
M  V30 35 C 2.404494 5.336241 2.472640 0
M  V30 36 H 3.438605 0.581509 4.666116 0
M  V30 37 H 2.452540 2.283440 5.422365 0
M  V30 38 H 4.073802 3.079918 5.567583 0
M  V30 39 H 2.510380 2.557535 2.971654 0
M  V30 40 H 4.095617 3.391182 3.115643 0
M  V30 41 H 3.016007 5.149750 4.471497 0
M  V30 42 H 1.029916 3.673091 5.154402 0
M  V30 43 H 0.789602 5.407798 4.919149 0
M  V30 44 H -0.789686 4.999511 3.419068 0
M  V30 45 H -0.624112 3.252242 3.620521 0
M  V30 46 H 1.348085 3.848091 -0.515480 0
M  V30 47 H 1.032980 1.975479 -1.983143 0
M  V30 48 H 0.167797 -0.200353 -2.467370 0
M  V30 49 H -2.608712 -2.358573 1.736473 0
M  V30 50 H -3.831938 -4.562662 2.093493 0
M  V30 51 H -4.866525 -6.729766 2.031631 0
M  V30 52 H -2.858237 -5.720010 -3.685809 0
M  V30 53 H -1.907489 -3.232748 -4.203607 0
M  V30 54 H -1.702150 -4.616900 -5.278137 0
M  V30 55 H 0.499520 -3.221643 -3.899147 0
M  V30 56 H 0.541845 -4.588275 -5.075615 0
M  V30 57 H 1.340859 -5.773638 -3.318182 0
M  V30 58 H 0.421688 -4.742207 -2.099805 0
M  V30 59 H -0.725101 -6.843684 -4.030552 0
M  V30 60 H -0.866139 -6.792425 -2.191580 0
M  V30 61 H -0.897306 1.695061 2.393674 0
M  V30 62 H 0.475042 6.184757 2.029791 0
M  V30 63 H 1.328310 5.471837 0.662344 0
M  V30 64 H 3.209235 4.929177 1.825678 0
M  V30 65 H 2.636389 6.427473 2.649815 0
M  V30 END ATOM
M  V30 BEGIN BOND
M  V30 1 1 1 2
M  V30 2 1 2 3
M  V30 3 1 3 4
M  V30 4 1 4 5
M  V30 5 1 5 6
M  V30 6 1 6 7
M  V30 7 1 7 8
M  V30 8 2 8 9
M  V30 9 1 9 10
M  V30 10 2 10 11
M  V30 11 1 11 12
M  V30 12 1 12 13
M  V30 13 2 13 14
M  V30 14 1 14 15
M  V30 15 2 15 16
M  V30 16 1 16 17
M  V30 17 2 17 18
M  V30 18 1 18 19
M  V30 19 2 19 20
M  V30 20 1 20 21
M  V30 21 1 21 22
M  V30 22 2 21 23
M  V30 23 1 23 24
M  V30 24 1 24 25
M  V30 25 1 25 26
M  V30 26 1 26 27
M  V30 27 1 27 28
M  V30 28 1 28 29
M  V30 29 1 24 30
M  V30 30 2 30 31
M  V30 31 1 11 32
M  V30 32 2 32 33
M  V30 33 1 7 34
M  V30 34 1 34 35
M  V30 35 1 35 4
M  V30 36 1 33 8
M  V30 37 1 31 13
M  V30 38 1 30 16
M  V30 39 1 23 17
M  V30 40 1 29 25
M  V30 41 1 1 36
M  V30 42 1 2 37
M  V30 43 1 2 38
M  V30 44 1 3 39
M  V30 45 1 3 40
M  V30 46 1 4 41
M  V30 47 1 5 42
M  V30 48 1 5 43
M  V30 49 1 6 44
M  V30 50 1 6 45
M  V30 51 1 9 46
M  V30 52 1 10 47
M  V30 53 1 12 48
M  V30 54 1 15 49
M  V30 55 1 18 50
M  V30 56 1 19 51
M  V30 57 1 25 52
M  V30 58 1 26 53
M  V30 59 1 26 54
M  V30 60 1 27 55
M  V30 61 1 27 56
M  V30 62 1 28 57
M  V30 63 1 28 58
M  V30 64 1 29 59
M  V30 65 1 29 60
M  V30 66 1 33 61
M  V30 67 1 34 62
M  V30 68 1 34 63
M  V30 69 1 35 64
M  V30 70 1 35 65
M  V30 END BOND
M  V30 END CTAB
M  END
>  <Dataset>  (598) 
ChEMBL_Kinases

>  <Ligand_Instance>  (598) 
nan

>  <PDB_ID>  (598) 
nan

>  <Standardized_SMILES>  (598) 
OCCC1CCN(c2ccc(Nc3ncc4c5ccnc(F)c5n(C5CCCC5)c4n3)nc2)CC1

>  <Name>  (598) 
nan

>  <Pocket>  (598) 
nan

>  <ATP_Site>  (598) 
nan

>  <Peripheral>  (598) 
nan

>  <Num_H_Atoms_ProtBoundConf>  (598) 
nan

>  <Num_Resolved_Atoms>  (598) 
nan

>  <Num_Not_Resolved_Atoms>  (598) 
nan

$$$$
CHEMBL3715310
     RDKit          3D

  0  0  0  0  0  0  0  0  0  0999 V3000
M  V30 BEGIN CTAB
M  V30 COUNTS 50 54 0 0 0
M  V30 BEGIN ATOM
M  V30 1 C 6.170848 -2.479056 0.217195 0
M  V30 2 C 5.089995 -2.209393 1.231772 0
M  V30 3 C 3.785514 -2.658156 0.625222 0
M  V30 4 O 3.851240 -3.113391 -0.537450 0
M  V30 5 N 2.511713 -2.606159 1.258551 0
M  V30 6 C 1.584403 -3.138902 0.292545 0
M  V30 7 C 0.973735 -2.230212 -0.579486 0
M  V30 8 C 0.096829 -2.759361 -1.497857 0
M  V30 9 N -0.592095 -1.926216 -2.421044 0
M  V30 10 C -0.472862 -0.495042 -2.454466 0
M  V30 11 C -0.973127 0.172915 -1.217610 0
M  V30 12 O -1.469661 -0.660772 -0.378284 0
M  V30 13 N -0.989021 1.531112 -0.833422 0
M  V30 14 C -1.584643 1.764461 0.499148 0
M  V30 15 N -1.135456 1.817243 1.559751 0
M  V30 16 C -1.752066 2.029220 2.703041 0
M  V30 17 C -1.233347 2.096404 3.981489 0
M  V30 18 C -2.040729 2.328592 5.072015 0
M  V30 19 C -3.407169 2.512844 5.006773 0
M  V30 20 N -4.476438 2.746864 5.785983 0
M  V30 21 N -5.582767 2.821774 5.058353 0
M  V30 22 C -5.297814 2.638419 3.740394 0
M  V30 23 C -3.937880 2.448679 3.737060 0
M  V30 24 C -3.092452 2.212051 2.652990 0
M  V30 25 S -3.417812 2.066231 0.900702 0
M  V30 26 C -0.831133 0.157226 -3.756418 0
M  V30 27 C 0.587052 0.127090 -3.278692 0
M  V30 28 C -0.116585 -4.123753 -1.497308 0
M  V30 29 C 0.490796 -5.005574 -0.633922 0
M  V30 30 C 1.375045 -4.502321 0.298447 0
M  V30 31 F 2.006349 -5.299533 1.175441 0
M  V30 32 H 6.923810 -3.208834 0.616670 0
M  V30 33 H 5.788832 -2.973876 -0.713960 0
M  V30 34 H 6.643689 -1.494106 -0.023710 0
M  V30 35 H 4.987996 -1.145622 1.506974 0
M  V30 36 H 5.291846 -2.813439 2.141963 0
M  V30 37 H 2.503751 -2.220332 2.226191 0
M  V30 38 H 1.199523 -1.177055 -0.515666 0
M  V30 39 H -1.233344 -2.389185 -3.126211 0
M  V30 40 H -0.583586 2.151479 -1.541543 0
M  V30 41 H -0.189428 1.977570 4.234611 0
M  V30 42 H -1.638227 2.384733 6.097869 0
M  V30 43 H -4.355829 2.843607 6.828661 0
M  V30 44 H -5.927002 2.632280 2.876439 0
M  V30 45 H -1.361027 1.138904 -3.767828 0
M  V30 46 H -1.054080 -0.491458 -4.654625 0
M  V30 47 H 1.025993 1.092142 -3.028514 0
M  V30 48 H 1.299104 -0.593388 -3.778310 0
M  V30 49 H -0.815681 -4.545922 -2.230241 0
M  V30 50 H 0.274721 -6.072224 -0.690418 0
M  V30 END ATOM
M  V30 BEGIN BOND
M  V30 1 1 1 2
M  V30 2 1 2 3
M  V30 3 2 3 4
M  V30 4 1 3 5
M  V30 5 1 5 6
M  V30 6 2 6 7
M  V30 7 1 7 8
M  V30 8 1 8 9
M  V30 9 1 9 10
M  V30 10 1 10 11
M  V30 11 2 11 12
M  V30 12 1 11 13
M  V30 13 1 13 14
M  V30 14 2 14 15
M  V30 15 1 15 16
M  V30 16 2 16 17
M  V30 17 1 17 18
M  V30 18 2 18 19
M  V30 19 1 19 20
M  V30 20 1 20 21
M  V30 21 2 21 22
M  V30 22 1 22 23
M  V30 23 2 23 24
M  V30 24 1 24 25
M  V30 25 1 10 26
M  V30 26 1 26 27
M  V30 27 2 8 28
M  V30 28 1 28 29
M  V30 29 2 29 30
M  V30 30 1 30 31
M  V30 31 1 30 6
M  V30 32 1 27 10
M  V30 33 1 25 14
M  V30 34 1 24 16
M  V30 35 1 23 19
M  V30 36 1 1 32
M  V30 37 1 1 33
M  V30 38 1 1 34
M  V30 39 1 2 35
M  V30 40 1 2 36
M  V30 41 1 5 37
M  V30 42 1 7 38
M  V30 43 1 9 39
M  V30 44 1 13 40
M  V30 45 1 17 41
M  V30 46 1 18 42
M  V30 47 1 20 43
M  V30 48 1 22 44
M  V30 49 1 26 45
M  V30 50 1 26 46
M  V30 51 1 27 47
M  V30 52 1 27 48
M  V30 53 1 28 49
M  V30 54 1 29 50
M  V30 END BOND
M  V30 END CTAB
M  END
>  <Dataset>  (599) 
ChEMBL_Kinases

>  <Ligand_Instance>  (599) 
nan

>  <PDB_ID>  (599) 
nan

>  <Standardized_SMILES>  (599) 
CCC(=O)Nc1cc(NC2(C(=O)Nc3nc4ccc5[nH]ncc5c4s3)CC2)ccc1F

>  <Name>  (599) 
nan

>  <Pocket>  (599) 
nan

>  <ATP_Site>  (599) 
nan

>  <Peripheral>  (599) 
nan

>  <Num_H_Atoms_ProtBoundConf>  (599) 
nan

>  <Num_Resolved_Atoms>  (599) 
nan

>  <Num_Not_Resolved_Atoms>  (599) 
nan

$$$$
CHEMBL371543
     RDKit          3D

  0  0  0  0  0  0  0  0  0  0999 V3000
M  V30 BEGIN CTAB
M  V30 COUNTS 74 78 0 0 0
M  V30 BEGIN ATOM
M  V30 1 C 0.013789 -2.844530 5.367706 0
M  V30 2 C 1.260871 -2.114449 4.911596 0
M  V30 3 C 1.718215 -1.225164 5.994116 0
M  V30 4 O 0.833681 -1.311374 3.823536 0
M  V30 5 C 2.220907 -3.130610 4.400455 0
M  V30 6 C 3.526740 -2.641752 3.903362 0
M  V30 7 C 3.430853 -1.669423 2.774098 0
M  V30 8 C 3.389944 -1.940532 1.426206 0
M  V30 9 C 3.294501 -0.917714 0.537882 0
M  V30 10 C 3.247785 0.330327 1.076633 0
M  V30 11 C 3.152905 1.548585 0.246924 0
M  V30 12 C 3.164168 2.803974 0.801906 0
M  V30 13 C 3.048871 3.851105 -0.113621 0
M  V30 14 N 2.930165 3.692359 -1.457977 0
M  V30 15 C 2.922774 2.450183 -1.957506 0
M  V30 16 N 2.793566 1.766905 -3.228579 0
M  V30 17 C 1.425158 1.301885 -3.383277 0
M  V30 18 C 1.262285 0.257272 -4.299736 0
M  V30 19 C -0.017352 -0.233299 -4.489225 0
M  V30 20 C -1.077378 0.277583 -3.814320 0
M  V30 21 C -2.475225 -0.119080 -3.882895 0
M  V30 22 O -3.291441 0.735142 -4.348048 0
M  V30 23 N -2.800811 -1.443828 -3.414911 0
M  V30 24 C -2.021871 -2.553515 -2.860924 0
M  V30 25 C -2.790002 -3.096988 -1.684053 0
M  V30 26 C -3.685896 -2.031399 -1.070320 0
M  V30 27 N -2.918017 -0.872118 -0.673443 0
M  V30 28 C -3.748691 0.126970 -0.069481 0
M  V30 29 C -2.748487 1.001440 0.668051 0
M  V30 30 C -1.785829 -0.013116 1.238253 0
M  V30 31 C -1.961541 -1.219884 0.368780 0
M  V30 32 C -4.738238 -1.631961 -2.057323 0
M  V30 33 C -4.220509 -1.762339 -3.496625 0
M  V30 34 C -0.896566 1.312284 -2.912244 0
M  V30 35 C 0.359444 1.842566 -2.680188 0
M  V30 36 N 3.035049 1.464367 -1.076985 0
M  V30 37 S 3.329755 0.132717 2.794556 0
M  V30 38 H 0.197095 -3.910888 5.612122 0
M  V30 39 H -0.423393 -2.299222 6.238044 0
M  V30 40 H -0.772654 -2.833996 4.589118 0
M  V30 41 H 1.437756 -0.153584 5.769407 0
M  V30 42 H 1.242522 -1.414145 6.978152 0
M  V30 43 H 2.808910 -1.178820 6.159899 0
M  V30 44 H -0.126141 -1.326053 3.699173 0
M  V30 45 H 1.704514 -3.624372 3.520608 0
M  V30 46 H 2.381729 -3.963337 5.106333 0
M  V30 47 H 4.204438 -2.259610 4.700143 0
M  V30 48 H 4.080612 -3.501880 3.480605 0
M  V30 49 H 3.433012 -3.008240 1.127527 0
M  V30 50 H 3.261423 -1.136829 -0.543928 0
M  V30 51 H 3.252597 2.978447 1.859135 0
M  V30 52 H 3.042949 4.886250 0.191849 0
M  V30 53 H 3.505582 1.591184 -3.964958 0
M  V30 54 H 2.115414 -0.137579 -4.822260 0
M  V30 55 H -0.227614 -1.038695 -5.172855 0
M  V30 56 H -1.902660 -3.339215 -3.627772 0
M  V30 57 H -1.000173 -2.215831 -2.557393 0
M  V30 58 H -3.475305 -3.905920 -2.020036 0
M  V30 59 H -2.159329 -3.541050 -0.911649 0
M  V30 60 H -4.152530 -2.469559 -0.177391 0
M  V30 61 H -4.244565 0.786273 -0.820598 0
M  V30 62 H -4.472396 -0.265148 0.673237 0
M  V30 63 H -2.221731 1.712215 0.001449 0
M  V30 64 H -3.247053 1.552756 1.515317 0
M  V30 65 H -0.741216 0.367633 1.228973 0
M  V30 66 H -2.145469 -0.274391 2.242942 0
M  V30 67 H -0.984425 -1.519560 -0.048554 0
M  V30 68 H -2.325491 -2.108180 0.955710 0
M  V30 69 H -5.111236 -0.606612 -1.952337 0
M  V30 70 H -5.639066 -2.295755 -1.964233 0
M  V30 71 H -4.780599 -1.113735 -4.174528 0
M  V30 72 H -4.376594 -2.846695 -3.762024 0
M  V30 73 H -1.656890 1.813666 -2.317817 0
M  V30 74 H 0.570615 2.662679 -1.982327 0
M  V30 END ATOM
M  V30 BEGIN BOND
M  V30 1 1 1 2
M  V30 2 1 2 3
M  V30 3 1 2 4
M  V30 4 1 2 5
M  V30 5 1 5 6
M  V30 6 1 6 7
M  V30 7 2 7 8
M  V30 8 1 8 9
M  V30 9 2 9 10
M  V30 10 1 10 11
M  V30 11 2 11 12
M  V30 12 1 12 13
M  V30 13 2 13 14
M  V30 14 1 14 15
M  V30 15 1 15 16
M  V30 16 1 16 17
M  V30 17 2 17 18
M  V30 18 1 18 19
M  V30 19 2 19 20
M  V30 20 1 20 21
M  V30 21 2 21 22
M  V30 22 1 21 23
M  V30 23 1 23 24
M  V30 24 1 24 25
M  V30 25 1 25 26
M  V30 26 1 26 27
M  V30 27 1 27 28
M  V30 28 1 28 29
M  V30 29 1 29 30
M  V30 30 1 30 31
M  V30 31 1 26 32
M  V30 32 1 32 33
M  V30 33 1 20 34
M  V30 34 2 34 35
M  V30 35 2 15 36
M  V30 36 1 10 37
M  V30 37 1 37 7
M  V30 38 1 36 11
M  V30 39 1 35 17
M  V30 40 1 33 23
M  V30 41 1 31 27
M  V30 42 1 1 38
M  V30 43 1 1 39
M  V30 44 1 1 40
M  V30 45 1 3 41
M  V30 46 1 3 42
M  V30 47 1 3 43
M  V30 48 1 4 44
M  V30 49 1 5 45
M  V30 50 1 5 46
M  V30 51 1 6 47
M  V30 52 1 6 48
M  V30 53 1 8 49
M  V30 54 1 9 50
M  V30 55 1 12 51
M  V30 56 1 13 52
M  V30 57 1 16 53
M  V30 58 1 18 54
M  V30 59 1 19 55
M  V30 60 1 24 56
M  V30 61 1 24 57
M  V30 62 1 25 58
M  V30 63 1 25 59
M  V30 64 1 26 60
M  V30 65 1 28 61
M  V30 66 1 28 62
M  V30 67 1 29 63
M  V30 68 1 29 64
M  V30 69 1 30 65
M  V30 70 1 30 66
M  V30 71 1 31 67
M  V30 72 1 31 68
M  V30 73 1 32 69
M  V30 74 1 32 70
M  V30 75 1 33 71
M  V30 76 1 33 72
M  V30 77 1 34 73
M  V30 78 1 35 74
M  V30 END BOND
M  V30 END CTAB
M  END
>  <Dataset>  (600) 
ChEMBL_Kinases

>  <Ligand_Instance>  (600) 
nan

>  <PDB_ID>  (600) 
nan

>  <Standardized_SMILES>  (600) 
CC(C)(O)CCc1ccc(-c2ccnc(Nc3ccc(C(=O)N4CCC(N5CCCC5)CC4)cc3)n2)s1

>  <Name>  (600) 
nan

>  <Pocket>  (600) 
nan

>  <ATP_Site>  (600) 
nan

>  <Peripheral>  (600) 
nan

>  <Num_H_Atoms_ProtBoundConf>  (600) 
nan

>  <Num_Resolved_Atoms>  (600) 
nan

>  <Num_Not_Resolved_Atoms>  (600) 
nan

$$$$
CHEMBL2425656
     RDKit          3D

  0  0  0  0  0  0  0  0  0  0999 V3000
M  V30 BEGIN CTAB
M  V30 COUNTS 40 43 0 0 0
M  V30 BEGIN ATOM
M  V30 1 C 2.230135 -4.508776 0.838910 0
M  V30 2 C 1.891179 -3.493711 1.709183 0
M  V30 3 C 2.082218 -2.184871 1.318047 0
M  V30 4 C 2.601891 -1.829405 0.084770 0
M  V30 5 C 2.934026 -2.837983 -0.768719 0
M  V30 6 C 2.747947 -4.148870 -0.389647 0
M  V30 7 N 3.404366 -2.229113 -1.869760 0
M  V30 8 N 3.354014 -0.920505 -1.679327 0
M  V30 9 N 2.871346 -0.627676 -0.500956 0
M  V30 10 C 2.613384 0.593449 0.185060 0
M  V30 11 C 3.547601 1.560916 0.492362 0
M  V30 12 C 3.102857 2.680706 1.164612 0
M  V30 13 N 1.806524 2.797366 1.493948 0
M  V30 14 C 0.881125 1.859237 1.200013 0
M  V30 15 N -0.485130 2.024901 1.569397 0
M  V30 16 C -1.410897 0.980392 1.220188 0
M  V30 17 C -1.531489 0.699600 -0.240292 0
M  V30 18 C -2.410996 -0.520852 -0.401704 0
M  V30 19 C -2.817791 -1.168867 0.878368 0
M  V30 20 C -3.422400 -0.208561 1.873966 0
M  V30 21 C -2.775292 1.165357 1.795908 0
M  V30 22 N 1.355537 0.801409 0.553702 0
M  V30 23 H 2.072491 -5.526791 1.164956 0
M  V30 24 H 1.473105 -3.687198 2.706259 0
M  V30 25 H 1.807544 -1.410038 2.020756 0
M  V30 26 H 3.006757 -4.959874 -1.056032 0
M  V30 27 H 4.562854 1.371702 0.183762 0
M  V30 28 H 3.826921 3.439908 1.407640 0
M  V30 29 H -0.756076 2.889783 2.073856 0
M  V30 30 H -1.021576 0.023901 1.679670 0
M  V30 31 H -0.596299 0.627933 -0.795530 0
M  V30 32 H -2.105725 1.560219 -0.689589 0
M  V30 33 H -1.795286 -1.276158 -0.954301 0
M  V30 34 H -3.307934 -0.318668 -1.030014 0
M  V30 35 H -3.643652 -1.873671 0.621665 0
M  V30 36 H -2.021001 -1.818229 1.324453 0
M  V30 37 H -4.521324 -0.172843 1.816680 0
M  V30 38 H -3.160703 -0.618272 2.879964 0
M  V30 39 H -2.787686 1.683770 2.761938 0
M  V30 40 H -3.399081 1.731939 1.061663 0
M  V30 END ATOM
M  V30 BEGIN BOND
M  V30 1 2 1 2
M  V30 2 1 2 3
M  V30 3 2 3 4
M  V30 4 1 4 5
M  V30 5 2 5 6
M  V30 6 1 5 7
M  V30 7 2 7 8
M  V30 8 1 8 9
M  V30 9 1 9 10
M  V30 10 2 10 11
M  V30 11 1 11 12
M  V30 12 2 12 13
M  V30 13 1 13 14
M  V30 14 1 14 15
M  V30 15 1 15 16
M  V30 16 1 16 17
M  V30 17 1 17 18
M  V30 18 1 18 19
M  V30 19 1 19 20
M  V30 20 1 20 21
M  V30 21 2 14 22
M  V30 22 1 6 1
M  V30 23 1 22 10
M  V30 24 1 9 4
M  V30 25 1 21 16
M  V30 26 1 1 23
M  V30 27 1 2 24
M  V30 28 1 3 25
M  V30 29 1 6 26
M  V30 30 1 11 27
M  V30 31 1 12 28
M  V30 32 1 15 29
M  V30 33 1 16 30
M  V30 34 1 17 31
M  V30 35 1 17 32
M  V30 36 1 18 33
M  V30 37 1 18 34
M  V30 38 1 19 35
M  V30 39 1 19 36
M  V30 40 1 20 37
M  V30 41 1 20 38
M  V30 42 1 21 39
M  V30 43 1 21 40
M  V30 END BOND
M  V30 END CTAB
M  END
>  <Dataset>  (601) 
ChEMBL_Kinases

>  <Ligand_Instance>  (601) 
nan

>  <PDB_ID>  (601) 
nan

>  <Standardized_SMILES>  (601) 
c1ccc2c(c1)nnn2-c1ccnc(NC2CCCCC2)n1

>  <Name>  (601) 
nan

>  <Pocket>  (601) 
nan

>  <ATP_Site>  (601) 
nan

>  <Peripheral>  (601) 
nan

>  <Num_H_Atoms_ProtBoundConf>  (601) 
nan

>  <Num_Resolved_Atoms>  (601) 
nan

>  <Num_Not_Resolved_Atoms>  (601) 
nan

$$$$
CHEMBL3691625
     RDKit          3D

  0  0  0  0  0  0  0  0  0  0999 V3000
M  V30 BEGIN CTAB
M  V30 COUNTS 74 79 0 0 0
M  V30 BEGIN ATOM
M  V30 1 C 5.055645 -2.785377 1.079445 0
M  V30 2 N 5.615209 -1.730349 0.219456 0
M  V30 3 C 6.653148 -2.278352 -0.640525 0
M  V30 4 C 5.325053 -0.325034 0.092356 0
M  V30 5 O 5.950635 0.419922 -0.739984 0
M  V30 6 C 4.284564 0.211047 0.957252 0
M  V30 7 C 4.585070 0.946814 2.082918 0
M  V30 8 C 3.347642 1.254509 2.606340 0
M  V30 9 C 3.132224 1.998972 3.771553 0
M  V30 10 N 1.851013 2.197908 4.133601 0
M  V30 11 C 0.852702 1.674459 3.364177 0
M  V30 12 N -0.489845 1.903545 3.771772 0
M  V30 13 C -1.616153 1.366441 3.087655 0
M  V30 14 C -2.940734 1.566160 3.435769 0
M  V30 15 C -3.983342 1.001723 2.733280 0
M  V30 16 C -3.726692 0.197589 1.631666 0
M  V30 17 N -4.740107 -0.437735 0.844401 0
M  V30 18 C -5.114780 -1.772362 1.292159 0
M  V30 19 C -5.032347 -2.785199 0.185447 0 CFG=1
M  V30 20 C -6.234687 -3.714934 0.184869 0
M  V30 21 N -6.385204 -4.185566 -1.164454 0
M  V30 22 C -5.628475 -3.305771 -2.030362 0
M  V30 23 C -5.125077 -2.161865 -1.182395 0 CFG=1
M  V30 24 C -6.052414 -0.968272 -1.191268 0
M  V30 25 C -5.423922 0.071865 -0.319769 0
M  V30 26 O -5.359016 1.337961 -0.380969 0
M  V30 27 C -2.385633 0.008087 1.295497 0
M  V30 28 N -1.419749 0.581415 2.013805 0
M  V30 29 N 1.135138 0.973075 2.264647 0
M  V30 30 C 2.371874 0.710468 1.803887 0
M  V30 31 N 2.970771 0.062847 0.778001 0
M  V30 32 C 2.095210 -0.563654 -0.172357 0
M  V30 33 C 1.124399 0.452167 -0.751549 0
M  V30 34 C 1.815824 1.479989 -1.600985 0
M  V30 35 C 2.393632 0.905177 -2.860271 0
M  V30 36 C 1.640251 -0.313057 -3.314087 0
M  V30 37 C 1.843335 -1.531364 -2.461209 0
M  V30 38 C 2.773598 -1.292307 -1.283351 0
M  V30 39 H 4.527816 -3.556374 0.497157 0
M  V30 40 H 4.397797 -2.322823 1.855978 0
M  V30 41 H 5.892439 -3.286922 1.634058 0
M  V30 42 H 6.171931 -2.872181 -1.443787 0
M  V30 43 H 7.341470 -2.931758 -0.034280 0
M  V30 44 H 7.261354 -1.456758 -1.098719 0
M  V30 45 H 5.576817 1.207840 2.450419 0
M  V30 46 H 3.951176 2.397083 4.353135 0
M  V30 47 H -0.714256 2.487794 4.604950 0
M  V30 48 H -3.125297 2.200995 4.302769 0
M  V30 49 H -5.004375 1.164539 3.013613 0
M  V30 50 H -4.497882 -2.140458 2.126344 0
M  V30 51 H -6.155340 -1.669450 1.701738 0
M  V30 52 H -4.098283 -3.380050 0.223077 0
M  V30 53 H -7.115707 -3.122577 0.532762 0
M  V30 54 H -5.974810 -4.545082 0.876937 0
M  V30 55 H -7.380665 -4.115411 -1.451547 0
M  V30 56 H -6.197234 -2.967659 -2.913580 0
M  V30 57 H -4.758257 -3.889508 -2.432870 0
M  V30 58 H -4.106299 -1.912086 -1.530197 0
M  V30 59 H -7.029265 -1.282995 -0.823129 0
M  V30 60 H -6.110783 -0.618186 -2.243830 0
M  V30 61 H -2.093364 -0.606207 0.444230 0
M  V30 62 H 1.433644 -1.274936 0.408757 0
M  V30 63 H 0.422911 -0.114153 -1.418140 0
M  V30 64 H 0.493910 0.916275 -0.000120 0
M  V30 65 H 1.048445 2.245488 -1.851058 0
M  V30 66 H 2.634302 2.014261 -1.081995 0
M  V30 67 H 3.496059 0.776620 -2.845681 0
M  V30 68 H 2.232017 1.673497 -3.674546 0
M  V30 69 H 1.990585 -0.504810 -4.373673 0
M  V30 70 H 0.578241 -0.019709 -3.443535 0
M  V30 71 H 0.922383 -1.987298 -2.070384 0
M  V30 72 H 2.325460 -2.324679 -3.082855 0
M  V30 73 H 3.024757 -2.319315 -0.919525 0
M  V30 74 H 3.715753 -0.849154 -1.637422 0
M  V30 END ATOM
M  V30 BEGIN BOND
M  V30 1 1 1 2
M  V30 2 1 2 3
M  V30 3 1 2 4
M  V30 4 2 4 5
M  V30 5 1 4 6
M  V30 6 2 6 7
M  V30 7 1 7 8
M  V30 8 2 8 9
M  V30 9 1 9 10
M  V30 10 2 10 11
M  V30 11 1 11 12
M  V30 12 1 12 13
M  V30 13 2 13 14
M  V30 14 1 14 15
M  V30 15 2 15 16
M  V30 16 1 16 17
M  V30 17 1 17 18
M  V30 18 1 18 19
M  V30 19 1 19 20
M  V30 20 1 20 21
M  V30 21 1 21 22
M  V30 22 1 22 23
M  V30 23 1 23 24
M  V30 24 1 24 25
M  V30 25 2 25 26
M  V30 26 1 16 27
M  V30 27 2 27 28
M  V30 28 1 11 29
M  V30 29 2 29 30
M  V30 30 1 30 31
M  V30 31 1 31 32
M  V30 32 1 32 33
M  V30 33 1 33 34
M  V30 34 1 34 35
M  V30 35 1 35 36
M  V30 36 1 36 37
M  V30 37 1 37 38
M  V30 38 1 31 6
M  V30 39 1 38 32
M  V30 40 1 30 8
M  V30 41 1 28 13
M  V30 42 1 25 17
M  V30 43 1 23 19
M  V30 44 1 1 39
M  V30 45 1 1 40
M  V30 46 1 1 41
M  V30 47 1 3 42
M  V30 48 1 3 43
M  V30 49 1 3 44
M  V30 50 1 7 45
M  V30 51 1 9 46
M  V30 52 1 12 47
M  V30 53 1 14 48
M  V30 54 1 15 49
M  V30 55 1 18 50
M  V30 56 1 18 51
M  V30 57 1 19 52 CFG=3
M  V30 58 1 20 53
M  V30 59 1 20 54
M  V30 60 1 21 55
M  V30 61 1 22 56
M  V30 62 1 22 57
M  V30 63 1 23 58 CFG=3
M  V30 64 1 24 59
M  V30 65 1 24 60
M  V30 66 1 27 61
M  V30 67 1 32 62
M  V30 68 1 33 63
M  V30 69 1 33 64
M  V30 70 1 34 65
M  V30 71 1 34 66
M  V30 72 1 35 67
M  V30 73 1 35 68
M  V30 74 1 36 69
M  V30 75 1 36 70
M  V30 76 1 37 71
M  V30 77 1 37 72
M  V30 78 1 38 73
M  V30 79 1 38 74
M  V30 END BOND
M  V30 END CTAB
M  END
>  <Dataset>  (602) 
ChEMBL_Kinases

>  <Ligand_Instance>  (602) 
nan

>  <PDB_ID>  (602) 
nan

>  <Standardized_SMILES>  (602) 
CN(C)C(=O)c1cc2cnc(Nc3ccc(N4C[C@H]5CNC[C@H]5CC4=O)cn3)nc2n1C1CCCCCC1

>  <Name>  (602) 
nan

>  <Pocket>  (602) 
nan

>  <ATP_Site>  (602) 
nan

>  <Peripheral>  (602) 
nan

>  <Num_H_Atoms_ProtBoundConf>  (602) 
nan

>  <Num_Resolved_Atoms>  (602) 
nan

>  <Num_Not_Resolved_Atoms>  (602) 
nan

$$$$
CHEMBL4451444
     RDKit          3D

  0  0  0  0  0  0  0  0  0  0999 V3000
M  V30 BEGIN CTAB
M  V30 COUNTS 43 46 0 0 0
M  V30 BEGIN ATOM
M  V30 1 O -0.468709 -3.238371 2.395399 0
M  V30 2 C 0.561954 -3.959818 2.571998 0
M  V30 3 N 1.791308 -3.249163 2.674228 0
M  V30 4 C 1.641061 -1.830116 2.557838 0
M  V30 5 C 1.722268 -1.276707 1.296218 0
M  V30 6 C 1.574142 0.093170 1.210941 0
M  V30 7 C 1.654190 0.719418 -0.113800 0
M  V30 8 N 2.567600 0.824732 -1.072506 0
M  V30 9 C 2.076780 1.537744 -2.104839 0
M  V30 10 C 2.820292 1.858336 -3.357522 0
M  V30 11 O 3.512098 3.057342 -3.231215 0
M  V30 12 N 0.805688 1.888775 -1.771226 0
M  V30 13 C 0.504639 1.397069 -0.536334 0
M  V30 14 C -0.815694 1.651497 0.031684 0
M  V30 15 C -1.065862 3.017341 0.201708 0
M  V30 16 C -2.270256 3.454440 0.729578 0
M  V30 17 C -3.243150 2.547042 1.096298 0
M  V30 18 F -4.417585 2.982038 1.611464 0
M  V30 19 C -2.980116 1.208245 0.922140 0
M  V30 20 C -1.793138 0.750716 0.400633 0
M  V30 21 C 1.352709 0.906489 2.321732 0
M  V30 22 C 1.282841 0.279025 3.558973 0
M  V30 23 N 1.427852 -1.063512 3.643992 0
M  V30 24 C 0.399448 -5.432169 2.653599 0
M  V30 25 C -0.918937 -5.929302 3.285318 0
M  V30 26 C -0.650934 -6.044971 1.778374 0
M  V30 27 H 2.653631 -3.839111 2.821018 0
M  V30 28 H 1.893041 -1.862446 0.397830 0
M  V30 29 H 3.492021 0.381226 -0.936573 0
M  V30 30 H 3.508244 0.984916 -3.542452 0
M  V30 31 H 2.114345 1.855865 -4.209718 0
M  V30 32 H 4.024964 3.178627 -4.077478 0
M  V30 33 H -0.369653 3.807899 -0.054063 0
M  V30 34 H -2.478979 4.494732 0.866717 0
M  V30 35 H -3.704009 0.447044 1.190960 0
M  V30 36 H -1.503098 -0.270269 0.230170 0
M  V30 37 H 1.243938 1.968898 2.202780 0
M  V30 38 H 1.110837 0.917264 4.415156 0
M  V30 39 H 1.279739 -6.086770 2.807273 0
M  V30 40 H -1.663673 -5.160157 3.575581 0
M  V30 41 H -0.886282 -6.833424 3.905774 0
M  V30 42 H -1.256742 -5.414868 1.106979 0
M  V30 43 H -0.553845 -7.098096 1.434166 0
M  V30 END ATOM
M  V30 BEGIN BOND
M  V30 1 2 1 2
M  V30 2 1 2 3
M  V30 3 1 3 4
M  V30 4 2 4 5
M  V30 5 1 5 6
M  V30 6 1 6 7
M  V30 7 1 7 8
M  V30 8 1 8 9
M  V30 9 1 9 10
M  V30 10 1 10 11
M  V30 11 2 9 12
M  V30 12 1 12 13
M  V30 13 1 13 14
M  V30 14 2 14 15
M  V30 15 1 15 16
M  V30 16 2 16 17
M  V30 17 1 17 18
M  V30 18 1 17 19
M  V30 19 2 19 20
M  V30 20 2 6 21
M  V30 21 1 21 22
M  V30 22 2 22 23
M  V30 23 1 2 24
M  V30 24 1 24 25
M  V30 25 1 25 26
M  V30 26 1 23 4
M  V30 27 1 26 24
M  V30 28 2 13 7
M  V30 29 1 20 14
M  V30 30 1 3 27
M  V30 31 1 5 28
M  V30 32 1 8 29
M  V30 33 1 10 30
M  V30 34 1 10 31
M  V30 35 1 11 32
M  V30 36 1 15 33
M  V30 37 1 16 34
M  V30 38 1 19 35
M  V30 39 1 20 36
M  V30 40 1 21 37
M  V30 41 1 22 38
M  V30 42 1 24 39
M  V30 43 1 25 40
M  V30 44 1 25 41
M  V30 45 1 26 42
M  V30 46 1 26 43
M  V30 END BOND
M  V30 END CTAB
M  END
>  <Dataset>  (603) 
ChEMBL_Kinases

>  <Ligand_Instance>  (603) 
nan

>  <PDB_ID>  (603) 
nan

>  <Standardized_SMILES>  (603) 
O=C(Nc1cc(-c2[nH]c(CO)nc2-c2ccc(F)cc2)ccn1)C1CC1

>  <Name>  (603) 
nan

>  <Pocket>  (603) 
nan

>  <ATP_Site>  (603) 
nan

>  <Peripheral>  (603) 
nan

>  <Num_H_Atoms_ProtBoundConf>  (603) 
nan

>  <Num_Resolved_Atoms>  (603) 
nan

>  <Num_Not_Resolved_Atoms>  (603) 
nan

$$$$
CHEMBL3715362
     RDKit          3D

  0  0  0  0  0  0  0  0  0  0999 V3000
M  V30 BEGIN CTAB
M  V30 COUNTS 57 60 0 0 0
M  V30 BEGIN ATOM
M  V30 1 C 5.477584 -2.666508 1.985131 0
M  V30 2 C 6.670214 -1.804857 2.204717 0
M  V30 3 O 6.491105 -0.456148 2.096820 0
M  V30 4 C 5.609196 0.136005 2.956782 0
M  V30 5 C 5.584096 1.619195 2.674429 0
M  V30 6 C 5.139696 1.980785 1.288517 0
M  V30 7 N 3.803352 1.563853 0.955984 0
M  V30 8 C 2.855112 2.488410 1.298835 0
M  V30 9 S 3.222612 3.917219 2.023605 0
M  V30 10 N 1.538037 2.323154 1.079485 0
M  V30 11 C 1.066244 1.209133 0.494730 0
M  V30 12 C -0.263921 0.980762 0.243961 0
M  V30 13 C -0.734848 -0.166192 -0.356441 0
M  V30 14 C -2.132157 -0.447026 -0.639434 0
M  V30 15 O -2.420269 -1.542156 -1.194143 0
M  V30 16 N -3.199672 0.425888 -0.335226 0
M  V30 17 C -4.607091 0.275197 -0.553581 0
M  V30 18 C -5.243212 -0.889444 0.141873 0
M  V30 19 C -6.739685 -0.809188 -0.146742 0
M  V30 20 O -7.008679 -1.336004 -1.428129 0
M  V30 21 C -6.610154 -2.631628 -1.691834 0
M  V30 22 C -7.207077 -3.576259 -2.490669 0
M  V30 23 C -6.691484 -4.830785 -2.657398 0
M  V30 24 C -5.519418 -5.212421 -2.014263 0
M  V30 25 C -4.904350 -4.266189 -1.202348 0
M  V30 26 C -5.430361 -3.006851 -1.040756 0
M  V30 27 O -4.741437 -2.136339 -0.209716 0
M  V30 28 C 0.241754 -1.078375 -0.690553 0
M  V30 29 C 1.591796 -0.910939 -0.466926 0
M  V30 30 C 1.996087 0.257503 0.136725 0
M  V30 31 C 3.338343 0.448686 0.370995 0
M  V30 32 O 4.213959 -0.375645 0.066803 0
M  V30 33 H 5.480207 -3.012165 0.915756 0
M  V30 34 H 4.563491 -2.108033 2.170930 0
M  V30 35 H 5.530878 -3.599854 2.591200 0
M  V30 36 H 7.451672 -2.076681 1.432819 0
M  V30 37 H 7.161444 -2.098331 3.175024 0
M  V30 38 H 5.921721 0.011076 4.036311 0
M  V30 39 H 4.572821 -0.258035 2.928990 0
M  V30 40 H 4.940683 2.109121 3.446995 0
M  V30 41 H 6.601167 2.061915 2.824279 0
M  V30 42 H 5.256937 3.075373 1.119175 0
M  V30 43 H 5.835204 1.515032 0.534683 0
M  V30 44 H 0.810327 3.023505 1.338190 0
M  V30 45 H -0.940704 1.744395 0.538629 0
M  V30 46 H -2.861016 1.310516 0.121449 0
M  V30 47 H -4.756112 0.168429 -1.668407 0
M  V30 48 H -5.130606 1.205369 -0.270573 0
M  V30 49 H -5.157037 -0.725895 1.237516 0
M  V30 50 H -7.045639 0.256134 -0.145983 0
M  V30 51 H -7.278943 -1.393266 0.596951 0
M  V30 52 H -8.117648 -3.228207 -2.968991 0
M  V30 53 H -7.283709 -5.458655 -3.321959 0
M  V30 54 H -5.173291 -6.214387 -2.192316 0
M  V30 55 H -3.996153 -4.611746 -0.724623 0
M  V30 56 H -0.022804 -2.027682 -1.174219 0
M  V30 57 H 2.313751 -1.664517 -0.751972 0
M  V30 END ATOM
M  V30 BEGIN BOND
M  V30 1 1 1 2
M  V30 2 1 2 3
M  V30 3 1 3 4
M  V30 4 1 4 5
M  V30 5 1 5 6
M  V30 6 1 6 7
M  V30 7 1 7 8
M  V30 8 2 8 9
M  V30 9 1 8 10
M  V30 10 1 10 11
M  V30 11 2 11 12
M  V30 12 1 12 13
M  V30 13 1 13 14
M  V30 14 2 14 15
M  V30 15 1 14 16
M  V30 16 1 16 17
M  V30 17 1 17 18
M  V30 18 1 18 19
M  V30 19 1 19 20
M  V30 20 1 20 21
M  V30 21 2 21 22
M  V30 22 1 22 23
M  V30 23 2 23 24
M  V30 24 1 24 25
M  V30 25 2 25 26
M  V30 26 1 26 27
M  V30 27 2 13 28
M  V30 28 1 28 29
M  V30 29 2 29 30
M  V30 30 1 30 31
M  V30 31 2 31 32
M  V30 32 1 31 7
M  V30 33 1 30 11
M  V30 34 1 27 18
M  V30 35 1 26 21
M  V30 36 1 1 33
M  V30 37 1 1 34
M  V30 38 1 1 35
M  V30 39 1 2 36
M  V30 40 1 2 37
M  V30 41 1 4 38
M  V30 42 1 4 39
M  V30 43 1 5 40
M  V30 44 1 5 41
M  V30 45 1 6 42
M  V30 46 1 6 43
M  V30 47 1 10 44
M  V30 48 1 12 45
M  V30 49 1 16 46
M  V30 50 1 17 47
M  V30 51 1 17 48
M  V30 52 1 18 49
M  V30 53 1 19 50
M  V30 54 1 19 51
M  V30 55 1 22 52
M  V30 56 1 23 53
M  V30 57 1 24 54
M  V30 58 1 25 55
M  V30 59 1 28 56
M  V30 60 1 29 57
M  V30 END BOND
M  V30 END CTAB
M  END
>  <Dataset>  (604) 
ChEMBL_Kinases

>  <Ligand_Instance>  (604) 
nan

>  <PDB_ID>  (604) 
nan

>  <Standardized_SMILES>  (604) 
CCOCCCn1c(=S)[nH]c2cc(C(=O)NCC3COc4ccccc4O3)ccc2c1=O

>  <Name>  (604) 
nan

>  <Pocket>  (604) 
nan

>  <ATP_Site>  (604) 
nan

>  <Peripheral>  (604) 
nan

>  <Num_H_Atoms_ProtBoundConf>  (604) 
nan

>  <Num_Resolved_Atoms>  (604) 
nan

>  <Num_Not_Resolved_Atoms>  (604) 
nan

$$$$
CHEMBL3691623
     RDKit          3D

  0  0  0  0  0  0  0  0  0  0999 V3000
M  V30 BEGIN CTAB
M  V30 COUNTS 65 70 0 0 0
M  V30 BEGIN ATOM
M  V30 1 C 3.339697 1.985729 6.699498 0
M  V30 2 N 3.628066 1.988621 5.278388 0
M  V30 3 C 4.286961 3.136853 4.650155 0
M  V30 4 C 3.167299 0.752869 4.735418 0
M  V30 5 O 2.760966 0.358277 5.858007 0
M  V30 6 C 3.255160 0.336437 3.341465 0
M  V30 7 C 4.475562 0.209110 2.704604 0
M  V30 8 C 4.117868 -0.199299 1.434760 0
M  V30 9 C 4.893273 -0.494232 0.333699 0
M  V30 10 N 4.309642 -0.877523 -0.809488 0
M  V30 11 C 2.965661 -0.992841 -0.941691 0
M  V30 12 N 2.425807 -1.401720 -2.185665 0
M  V30 13 C 1.071820 -1.623233 -2.536542 0
M  V30 14 C -0.022015 -1.492520 -1.712304 0
M  V30 15 C -1.330582 -1.704867 -2.051284 0
M  V30 16 C -1.570361 -2.088495 -3.351397 0
M  V30 17 N -2.888755 -2.340447 -3.817397 0
M  V30 18 C -3.937037 -1.547717 -4.423695 0
M  V30 19 C -5.223974 -2.286270 -4.182700 0 CFG=2
M  V30 20 C -6.059775 -1.684265 -3.082036 0
M  V30 21 N -5.870850 -2.470425 -1.899687 0
M  V30 22 C -5.353464 -3.762412 -2.277108 0
M  V30 23 C -4.864633 -3.650263 -3.697981 0 CFG=2
M  V30 24 C -3.360862 -3.674776 -3.687743 0
M  V30 25 O -2.791304 -4.807996 -3.572550 0
M  V30 26 C -0.500499 -2.228264 -4.200585 0
M  V30 27 N 0.754414 -1.999774 -3.786538 0
M  V30 28 N 2.251918 -0.696850 0.151065 0
M  V30 29 C 2.748559 -0.305872 1.334361 0
M  V30 30 N 2.224191 0.033984 2.538612 0
M  V30 31 C 0.815411 0.015666 2.722396 0
M  V30 32 C 0.317137 0.567077 4.026941 0
M  V30 33 C -1.157849 0.889669 3.729258 0
M  V30 34 C -1.237827 1.123545 2.233851 0
M  V30 35 C 0.195839 1.032166 1.750081 0
M  V30 36 H 3.842901 1.150788 7.235437 0
M  V30 37 H 2.244006 1.874591 6.917428 0
M  V30 38 H 3.622147 2.973634 7.100664 0
M  V30 39 H 3.567975 3.968642 4.677330 0
M  V30 40 H 5.151236 3.464917 5.300608 0
M  V30 41 H 4.689371 2.885114 3.668955 0
M  V30 42 H 5.460060 0.373737 3.064167 0
M  V30 43 H 5.970456 -0.425410 0.363240 0
M  V30 44 H 3.128105 -1.565813 -2.966467 0
M  V30 45 H 0.140980 -1.194844 -0.687652 0
M  V30 46 H -2.134680 -1.577934 -1.335233 0
M  V30 47 H -3.723727 -1.541749 -5.519074 0
M  V30 48 H -3.962681 -0.515859 -3.999066 0
M  V30 49 H -5.844328 -2.350606 -5.119346 0
M  V30 50 H -5.776726 -0.637856 -2.856261 0
M  V30 51 H -7.153446 -1.711091 -3.329013 0
M  V30 52 H -6.760787 -2.570579 -1.347837 0
M  V30 53 H -4.514628 -4.096397 -1.620675 0
M  V30 54 H -6.148214 -4.525419 -2.172716 0
M  V30 55 H -5.278019 -4.486058 -4.275056 0
M  V30 56 H -0.678728 -2.529092 -5.224013 0
M  V30 57 H 0.336452 -0.952030 2.468014 0
M  V30 58 H 0.872810 1.500071 4.250328 0
M  V30 59 H 0.278660 -0.157574 4.847598 0
M  V30 60 H -1.802580 0.018467 4.004351 0
M  V30 61 H -1.480130 1.739669 4.333538 0
M  V30 62 H -1.683735 2.127507 2.082023 0
M  V30 63 H -1.840104 0.308536 1.763705 0
M  V30 64 H 0.312046 0.729316 0.712627 0
M  V30 65 H 0.648782 2.015574 1.961020 0
M  V30 END ATOM
M  V30 BEGIN BOND
M  V30 1 1 1 2
M  V30 2 1 2 3
M  V30 3 1 2 4
M  V30 4 2 4 5
M  V30 5 1 4 6
M  V30 6 2 6 7
M  V30 7 1 7 8
M  V30 8 2 8 9
M  V30 9 1 9 10
M  V30 10 2 10 11
M  V30 11 1 11 12
M  V30 12 1 12 13
M  V30 13 2 13 14
M  V30 14 1 14 15
M  V30 15 2 15 16
M  V30 16 1 16 17
M  V30 17 1 17 18
M  V30 18 1 18 19
M  V30 19 1 19 20
M  V30 20 1 20 21
M  V30 21 1 21 22
M  V30 22 1 22 23
M  V30 23 1 23 24
M  V30 24 2 24 25
M  V30 25 1 16 26
M  V30 26 2 26 27
M  V30 27 1 11 28
M  V30 28 2 28 29
M  V30 29 1 29 30
M  V30 30 1 30 31
M  V30 31 1 31 32
M  V30 32 1 32 33
M  V30 33 1 33 34
M  V30 34 1 34 35
M  V30 35 1 30 6
M  V30 36 1 35 31
M  V30 37 1 29 8
M  V30 38 1 27 13
M  V30 39 1 24 17
M  V30 40 1 23 19
M  V30 41 1 1 36
M  V30 42 1 1 37
M  V30 43 1 1 38
M  V30 44 1 3 39
M  V30 45 1 3 40
M  V30 46 1 3 41
M  V30 47 1 7 42
M  V30 48 1 9 43
M  V30 49 1 12 44
M  V30 50 1 14 45
M  V30 51 1 15 46
M  V30 52 1 18 47
M  V30 53 1 18 48
M  V30 54 1 19 49 CFG=3
M  V30 55 1 20 50
M  V30 56 1 20 51
M  V30 57 1 21 52
M  V30 58 1 22 53
M  V30 59 1 22 54
M  V30 60 1 23 55 CFG=3
M  V30 61 1 26 56
M  V30 62 1 31 57
M  V30 63 1 32 58
M  V30 64 1 32 59
M  V30 65 1 33 60
M  V30 66 1 33 61
M  V30 67 1 34 62
M  V30 68 1 34 63
M  V30 69 1 35 64
M  V30 70 1 35 65
M  V30 END BOND
M  V30 END CTAB
M  END
>  <Dataset>  (605) 
ChEMBL_Kinases

>  <Ligand_Instance>  (605) 
nan

>  <PDB_ID>  (605) 
nan

>  <Standardized_SMILES>  (605) 
CN(C)C(=O)c1cc2cnc(Nc3ccc(N4C[C@@H]5CNC[C@@H]5C4=O)cn3)nc2n1C1CCCC1

>  <Name>  (605) 
nan

>  <Pocket>  (605) 
nan

>  <ATP_Site>  (605) 
nan

>  <Peripheral>  (605) 
nan

>  <Num_H_Atoms_ProtBoundConf>  (605) 
nan

>  <Num_Resolved_Atoms>  (605) 
nan

>  <Num_Not_Resolved_Atoms>  (605) 
nan

$$$$
CHEMBL3691621
     RDKit          3D

  0  0  0  0  0  0  0  0  0  0999 V3000
M  V30 BEGIN CTAB
M  V30 COUNTS 71 76 0 0 0
M  V30 BEGIN ATOM
M  V30 1 C 2.756242 -3.676345 3.013076 0
M  V30 2 N 4.152923 -3.487491 2.591864 0
M  V30 3 C 4.961519 -4.681438 2.545406 0
M  V30 4 C 4.673557 -2.189109 2.247184 0
M  V30 5 O 5.895019 -2.162375 1.900135 0
M  V30 6 C 3.715475 -1.066129 2.343912 0
M  V30 7 C 3.611923 -0.339715 3.487909 0
M  V30 8 C 2.650923 0.633852 3.304426 0
M  V30 9 C 2.098459 1.636275 4.036890 0
M  V30 10 N 1.128083 2.446856 3.534823 0
M  V30 11 C 0.698838 2.244688 2.255205 0
M  V30 12 N -0.300989 2.968196 1.562269 0
M  V30 13 C -1.490984 2.333961 1.140850 0
M  V30 14 C -1.653309 0.996861 1.401738 0
M  V30 15 C -2.785470 0.325135 1.004457 0
M  V30 16 C -3.778382 1.028263 0.324813 0
M  V30 17 N -4.951694 0.308483 -0.100443 0
M  V30 18 C -4.692159 -0.178092 -1.462133 0
M  V30 19 C -5.968644 -0.861195 -1.825427 0 CFG=2
M  V30 20 C -7.076011 0.090633 -2.219154 0
M  V30 21 N -8.280008 -0.557888 -1.793036 0
M  V30 22 C -7.938642 -1.553962 -0.795285 0
M  V30 23 C -6.479292 -1.331215 -0.465822 0 CFG=2
M  V30 24 C -6.257152 -0.085383 0.334707 0
M  V30 25 O -6.710969 0.740573 1.199911 0
M  V30 26 C -3.571853 2.369998 0.085868 0
M  V30 27 N -2.456085 3.000365 0.485896 0
M  V30 28 N 1.241460 1.250423 1.517806 0
M  V30 29 C 2.200085 0.443729 2.005554 0
M  V30 30 N 2.839731 -0.587794 1.410653 0
M  V30 31 C 2.734255 -1.178182 0.102721 0
M  V30 32 C 1.380321 -1.071714 -0.513698 0
M  V30 33 C 1.378167 -1.341006 -2.000656 0
M  V30 34 C 2.150890 -0.313662 -2.777218 0
M  V30 35 C 3.473060 -0.893504 -3.148226 0
M  V30 36 C 4.150914 -1.492110 -1.945269 0
M  V30 37 C 3.853209 -0.640962 -0.740999 0
M  V30 38 H 2.435501 -4.707946 2.898960 0
M  V30 39 H 2.605377 -3.240926 4.033528 0
M  V30 40 H 2.151406 -3.026310 2.332642 0
M  V30 41 H 4.960285 -5.136502 3.555494 0
M  V30 42 H 5.979854 -4.462895 2.158389 0
M  V30 43 H 4.410214 -5.402937 1.882037 0
M  V30 44 H 4.147242 -0.435804 4.428680 0
M  V30 45 H 2.441324 1.791988 5.045308 0
M  V30 46 H -0.184136 4.000432 1.339710 0
M  V30 47 H -0.936644 0.364108 1.924581 0
M  V30 48 H -2.963535 -0.736667 1.186838 0
M  V30 49 H -3.883644 -0.911237 -1.480613 0
M  V30 50 H -4.511157 0.652187 -2.172585 0
M  V30 51 H -5.855031 -1.697199 -2.548075 0
M  V30 52 H -6.940976 1.016274 -1.598308 0
M  V30 53 H -7.056614 0.335652 -3.299590 0
M  V30 54 H -8.979165 0.095228 -1.333657 0
M  V30 55 H -8.004995 -2.557558 -1.268733 0
M  V30 56 H -8.585553 -1.552438 0.088630 0
M  V30 57 H -5.968311 -2.208138 -0.077844 0
M  V30 58 H -4.378319 2.888149 -0.451389 0
M  V30 59 H 2.946572 -2.285463 0.191811 0
M  V30 60 H 0.689594 -1.816246 -0.061831 0
M  V30 61 H 0.886594 -0.085323 -0.395860 0
M  V30 62 H 1.702281 -2.376532 -2.235316 0
M  V30 63 H 0.319061 -1.268996 -2.333077 0
M  V30 64 H 1.625615 -0.098701 -3.758182 0
M  V30 65 H 2.175058 0.664992 -2.274564 0
M  V30 66 H 4.146519 -0.093927 -3.552755 0
M  V30 67 H 3.267766 -1.664214 -3.935382 0
M  V30 68 H 5.241161 -1.493773 -2.151311 0
M  V30 69 H 3.884774 -2.557100 -1.790172 0
M  V30 70 H 4.765643 -0.669479 -0.101156 0
M  V30 71 H 3.750104 0.418847 -1.027315 0
M  V30 END ATOM
M  V30 BEGIN BOND
M  V30 1 1 1 2
M  V30 2 1 2 3
M  V30 3 1 2 4
M  V30 4 2 4 5
M  V30 5 1 4 6
M  V30 6 2 6 7
M  V30 7 1 7 8
M  V30 8 2 8 9
M  V30 9 1 9 10
M  V30 10 2 10 11
M  V30 11 1 11 12
M  V30 12 1 12 13
M  V30 13 2 13 14
M  V30 14 1 14 15
M  V30 15 2 15 16
M  V30 16 1 16 17
M  V30 17 1 17 18
M  V30 18 1 18 19
M  V30 19 1 19 20
M  V30 20 1 20 21
M  V30 21 1 21 22
M  V30 22 1 22 23
M  V30 23 1 23 24
M  V30 24 2 24 25
M  V30 25 1 16 26
M  V30 26 2 26 27
M  V30 27 1 11 28
M  V30 28 2 28 29
M  V30 29 1 29 30
M  V30 30 1 30 31
M  V30 31 1 31 32
M  V30 32 1 32 33
M  V30 33 1 33 34
M  V30 34 1 34 35
M  V30 35 1 35 36
M  V30 36 1 36 37
M  V30 37 1 30 6
M  V30 38 1 37 31
M  V30 39 1 29 8
M  V30 40 1 27 13
M  V30 41 1 24 17
M  V30 42 1 23 19
M  V30 43 1 1 38
M  V30 44 1 1 39
M  V30 45 1 1 40
M  V30 46 1 3 41
M  V30 47 1 3 42
M  V30 48 1 3 43
M  V30 49 1 7 44
M  V30 50 1 9 45
M  V30 51 1 12 46
M  V30 52 1 14 47
M  V30 53 1 15 48
M  V30 54 1 18 49
M  V30 55 1 18 50
M  V30 56 1 19 51 CFG=3
M  V30 57 1 20 52
M  V30 58 1 20 53
M  V30 59 1 21 54
M  V30 60 1 22 55
M  V30 61 1 22 56
M  V30 62 1 23 57 CFG=1
M  V30 63 1 26 58
M  V30 64 1 31 59
M  V30 65 1 32 60
M  V30 66 1 32 61
M  V30 67 1 33 62
M  V30 68 1 33 63
M  V30 69 1 34 64
M  V30 70 1 34 65
M  V30 71 1 35 66
M  V30 72 1 35 67
M  V30 73 1 36 68
M  V30 74 1 36 69
M  V30 75 1 37 70
M  V30 76 1 37 71
M  V30 END BOND
M  V30 END CTAB
M  END
>  <Dataset>  (606) 
ChEMBL_Kinases

>  <Ligand_Instance>  (606) 
nan

>  <PDB_ID>  (606) 
nan

>  <Standardized_SMILES>  (606) 
CN(C)C(=O)c1cc2cnc(Nc3ccc(N4C[C@@H]5CNC[C@@H]5C4=O)cn3)nc2n1C1CCCCCC1

>  <Name>  (606) 
nan

>  <Pocket>  (606) 
nan

>  <ATP_Site>  (606) 
nan

>  <Peripheral>  (606) 
nan

>  <Num_H_Atoms_ProtBoundConf>  (606) 
nan

>  <Num_Resolved_Atoms>  (606) 
nan

>  <Num_Not_Resolved_Atoms>  (606) 
nan

$$$$
CHEMBL3691620
     RDKit          3D

  0  0  0  0  0  0  0  0  0  0999 V3000
M  V30 BEGIN CTAB
M  V30 COUNTS 71 76 0 0 0
M  V30 BEGIN ATOM
M  V30 1 C 1.834059 -2.659111 4.628855 0
M  V30 2 N 3.250736 -2.808587 4.350314 0
M  V30 3 C 3.881287 -4.016418 4.890075 0
M  V30 4 C 4.084907 -1.903543 3.608742 0
M  V30 5 O 5.313393 -2.137711 3.428577 0
M  V30 6 C 3.462147 -0.687932 3.061204 0
M  V30 7 C 3.523887 0.588760 3.566720 0
M  V30 8 C 2.795719 1.378813 2.724424 0
M  V30 9 C 2.512860 2.730525 2.740457 0
M  V30 10 N 1.751089 3.279748 1.775007 0
M  V30 11 C 1.264481 2.477109 0.780033 0
M  V30 12 N 0.441923 2.830717 -0.321581 0
M  V30 13 C -0.847650 2.262436 -0.499454 0
M  V30 14 C -1.351178 1.327058 0.381078 0
M  V30 15 C -2.612785 0.798230 0.162998 0
M  V30 16 C -3.387466 1.178272 -0.911231 0
M  V30 17 N -4.668716 0.650437 -1.169691 0
M  V30 18 C -5.557403 1.007337 -2.246965 0
M  V30 19 C -6.429567 -0.182685 -2.488607 0 CFG=1
M  V30 20 C -6.046206 -0.912370 -3.755424 0
M  V30 21 N -4.939305 -1.760233 -3.359776 0
M  V30 22 C -5.264392 -2.227592 -2.024821 0
M  V30 23 C -6.130106 -1.158058 -1.408150 0 CFG=1
M  V30 24 C -5.357795 -0.351942 -0.415024 0
M  V30 25 O -5.286971 -0.479422 0.839792 0
M  V30 26 C -2.841883 2.114779 -1.761350 0
M  V30 27 N -1.606220 2.632160 -1.547998 0
M  V30 28 N 1.553739 1.148564 0.781162 0
M  V30 29 C 2.307051 0.557250 1.721920 0
M  V30 30 N 2.711998 -0.730478 1.916600 0
M  V30 31 C 2.409261 -1.869224 1.095786 0
M  V30 32 C 0.984655 -1.968003 0.639759 0
M  V30 33 C 0.882655 -2.327681 -0.826837 0
M  V30 34 C 1.109110 -1.151675 -1.730371 0
M  V30 35 C 2.476070 -0.630908 -1.886226 0
M  V30 36 C 3.557708 -1.045992 -1.020796 0
M  V30 37 C 3.393309 -2.102404 -0.008109 0
M  V30 38 H 1.218115 -3.402497 4.068542 0
M  V30 39 H 1.592865 -2.796751 5.700166 0
M  V30 40 H 1.456640 -1.655133 4.345321 0
M  V30 41 H 3.862056 -4.029766 6.005334 0
M  V30 42 H 4.888682 -4.159207 4.456169 0
M  V30 43 H 3.242822 -4.869103 4.523381 0
M  V30 44 H 4.058169 0.882305 4.468485 0
M  V30 45 H 2.882587 3.391902 3.511768 0
M  V30 46 H 0.797835 3.525639 -1.017740 0
M  V30 47 H -0.778630 0.998884 1.236100 0
M  V30 48 H -2.989705 0.059099 0.873258 0
M  V30 49 H -4.967300 1.264070 -3.144672 0
M  V30 50 H -6.225752 1.853791 -1.955676 0
M  V30 51 H -7.509687 0.074352 -2.556547 0
M  V30 52 H -6.896518 -1.446417 -4.185618 0
M  V30 53 H -5.660927 -0.127434 -4.459421 0
M  V30 54 H -4.808577 -2.561757 -3.999249 0
M  V30 55 H -4.357154 -2.329761 -1.420676 0
M  V30 56 H -5.835782 -3.177817 -2.109089 0
M  V30 57 H -7.048413 -1.613095 -0.972052 0
M  V30 58 H -3.400697 2.459567 -2.628691 0
M  V30 59 H 2.571472 -2.771193 1.764682 0
M  V30 60 H 0.396123 -2.740832 1.186724 0
M  V30 61 H 0.403750 -1.045246 0.764621 0
M  V30 62 H -0.199311 -2.593284 -0.972286 0
M  V30 63 H 1.408261 -3.244449 -1.114406 0
M  V30 64 H 0.637464 -1.436666 -2.699520 0
M  V30 65 H 0.393460 -0.364207 -1.341748 0
M  V30 66 H 2.399158 0.501927 -1.884167 0
M  V30 67 H 2.771572 -0.785070 -2.966229 0
M  V30 68 H 4.006483 -0.165771 -0.462234 0
M  V30 69 H 4.459764 -1.389931 -1.615475 0
M  V30 70 H 3.305144 -3.140878 -0.376591 0
M  V30 71 H 4.388905 -2.144929 0.536039 0
M  V30 END ATOM
M  V30 BEGIN BOND
M  V30 1 1 1 2
M  V30 2 1 2 3
M  V30 3 1 2 4
M  V30 4 2 4 5
M  V30 5 1 4 6
M  V30 6 2 6 7
M  V30 7 1 7 8
M  V30 8 2 8 9
M  V30 9 1 9 10
M  V30 10 2 10 11
M  V30 11 1 11 12
M  V30 12 1 12 13
M  V30 13 2 13 14
M  V30 14 1 14 15
M  V30 15 2 15 16
M  V30 16 1 16 17
M  V30 17 1 17 18
M  V30 18 1 18 19
M  V30 19 1 19 20
M  V30 20 1 20 21
M  V30 21 1 21 22
M  V30 22 1 22 23
M  V30 23 1 23 24
M  V30 24 2 24 25
M  V30 25 1 16 26
M  V30 26 2 26 27
M  V30 27 1 11 28
M  V30 28 2 28 29
M  V30 29 1 29 30
M  V30 30 1 30 31
M  V30 31 1 31 32
M  V30 32 1 32 33
M  V30 33 1 33 34
M  V30 34 1 34 35
M  V30 35 1 35 36
M  V30 36 1 36 37
M  V30 37 1 30 6
M  V30 38 1 37 31
M  V30 39 1 29 8
M  V30 40 1 27 13
M  V30 41 1 24 17
M  V30 42 1 23 19
M  V30 43 1 1 38
M  V30 44 1 1 39
M  V30 45 1 1 40
M  V30 46 1 3 41
M  V30 47 1 3 42
M  V30 48 1 3 43
M  V30 49 1 7 44
M  V30 50 1 9 45
M  V30 51 1 12 46
M  V30 52 1 14 47
M  V30 53 1 15 48
M  V30 54 1 18 49
M  V30 55 1 18 50
M  V30 56 1 19 51 CFG=3
M  V30 57 1 20 52
M  V30 58 1 20 53
M  V30 59 1 21 54
M  V30 60 1 22 55
M  V30 61 1 22 56
M  V30 62 1 23 57 CFG=1
M  V30 63 1 26 58
M  V30 64 1 31 59
M  V30 65 1 32 60
M  V30 66 1 32 61
M  V30 67 1 33 62
M  V30 68 1 33 63
M  V30 69 1 34 64
M  V30 70 1 34 65
M  V30 71 1 35 66
M  V30 72 1 35 67
M  V30 73 1 36 68
M  V30 74 1 36 69
M  V30 75 1 37 70
M  V30 76 1 37 71
M  V30 END BOND
M  V30 END CTAB
M  END
>  <Dataset>  (607) 
ChEMBL_Kinases

>  <Ligand_Instance>  (607) 
nan

>  <PDB_ID>  (607) 
nan

>  <Standardized_SMILES>  (607) 
CN(C)C(=O)c1cc2cnc(Nc3ccc(N4C[C@H]5CNC[C@H]5C4=O)cn3)nc2n1C1CCCCCC1

>  <Name>  (607) 
nan

>  <Pocket>  (607) 
nan

>  <ATP_Site>  (607) 
nan

>  <Peripheral>  (607) 
nan

>  <Num_H_Atoms_ProtBoundConf>  (607) 
nan

>  <Num_Resolved_Atoms>  (607) 
nan

>  <Num_Not_Resolved_Atoms>  (607) 
nan

$$$$
CHEMBL3715386
     RDKit          3D

  0  0  0  0  0  0  0  0  0  0999 V3000
M  V30 BEGIN CTAB
M  V30 COUNTS 49 53 0 0 0
M  V30 BEGIN ATOM
M  V30 1 C 5.796959 0.890069 -2.302055 0
M  V30 2 C 5.474323 -0.586564 -2.122729 0
M  V30 3 O 4.100641 -0.840277 -2.105858 0
M  V30 4 C 3.598903 -2.156337 -2.076647 0
M  V30 5 O 4.486030 -3.001983 -2.087097 0
M  V30 6 C 2.145765 -2.289515 -2.034358 0
M  V30 7 C 1.288555 -1.206654 -1.828875 0
M  V30 8 C -0.102526 -1.414072 -1.751176 0
M  V30 9 N -0.648798 -0.086189 -1.571392 0
M  V30 10 C -1.778490 0.742449 -1.303669 0
M  V30 11 C -2.147519 0.870076 0.157631 0
M  V30 12 O -3.368771 0.521748 0.337647 0
M  V30 13 N -1.374394 1.290406 1.229625 0
M  V30 14 C -2.054212 1.177861 2.564165 0
M  V30 15 N -1.429550 0.199422 2.939593 0
M  V30 16 C -1.513052 -0.469955 4.064364 0
M  V30 17 C -0.811485 -1.589187 4.572552 0
M  V30 18 C -1.078000 -2.090000 5.796845 0
M  V30 19 C -2.024954 -1.580788 6.650839 0
M  V30 20 N -2.516394 -1.827688 7.880724 0
M  V30 21 N -3.447887 -0.957394 8.131703 0
M  V30 22 C -3.655916 -0.079605 7.143654 0
M  V30 23 C -2.731920 -0.496324 6.201861 0
M  V30 24 C -2.458813 0.022696 4.933501 0
M  V30 25 S -3.110284 1.432598 3.971555 0
M  V30 26 C -1.786115 2.068982 -2.044476 0
M  V30 27 C -2.822603 1.078477 -2.311634 0
M  V30 28 C -0.547474 -2.732742 -1.887548 0
M  V30 29 C 0.239667 -3.843344 -2.093802 0
M  V30 30 C 1.559366 -3.510255 -2.149895 0
M  V30 31 Cl 2.584376 -4.897352 -2.412317 0
M  V30 32 H 6.578997 0.933130 -3.118539 0
M  V30 33 H 4.885891 1.432862 -2.574411 0
M  V30 34 H 6.219599 1.378621 -1.415503 0
M  V30 35 H 5.813783 -0.793399 -1.051250 0
M  V30 36 H 6.012184 -1.258275 -2.792579 0
M  V30 37 H 1.832170 -0.270081 -1.749221 0
M  V30 38 H -1.514911 -0.623403 -1.439317 0
M  V30 39 H -0.485831 1.700100 1.005961 0
M  V30 40 H -0.051396 -1.990667 3.907368 0
M  V30 41 H -0.503348 -2.949481 6.126235 0
M  V30 42 H -2.136720 -2.625444 8.437794 0
M  V30 43 H -4.276533 0.764945 6.914256 0
M  V30 44 H -1.007272 2.210991 -2.842421 0
M  V30 45 H -1.957973 2.963670 -1.432901 0
M  V30 46 H -2.865516 0.527869 -3.281165 0
M  V30 47 H -3.851702 1.372201 -1.958449 0
M  V30 48 H -1.629318 -2.776413 -1.812446 0
M  V30 49 H -0.334633 -4.743237 -2.170542 0
M  V30 END ATOM
M  V30 BEGIN BOND
M  V30 1 1 1 2
M  V30 2 1 2 3
M  V30 3 1 3 4
M  V30 4 2 4 5
M  V30 5 1 4 6
M  V30 6 2 6 7
M  V30 7 1 7 8
M  V30 8 1 8 9
M  V30 9 1 9 10
M  V30 10 1 10 11
M  V30 11 2 11 12
M  V30 12 1 11 13
M  V30 13 1 13 14
M  V30 14 2 14 15
M  V30 15 1 15 16
M  V30 16 2 16 17
M  V30 17 1 17 18
M  V30 18 2 18 19
M  V30 19 1 19 20
M  V30 20 1 20 21
M  V30 21 2 21 22
M  V30 22 1 22 23
M  V30 23 2 23 24
M  V30 24 1 24 25
M  V30 25 1 10 26
M  V30 26 1 26 27
M  V30 27 2 8 28
M  V30 28 1 28 29
M  V30 29 2 29 30
M  V30 30 1 30 31
M  V30 31 1 30 6
M  V30 32 1 27 10
M  V30 33 1 25 14
M  V30 34 1 24 16
M  V30 35 1 23 19
M  V30 36 1 1 32
M  V30 37 1 1 33
M  V30 38 1 1 34
M  V30 39 1 2 35
M  V30 40 1 2 36
M  V30 41 1 7 37
M  V30 42 1 9 38
M  V30 43 1 13 39
M  V30 44 1 17 40
M  V30 45 1 18 41
M  V30 46 1 20 42
M  V30 47 1 22 43
M  V30 48 1 26 44
M  V30 49 1 26 45
M  V30 50 1 27 46
M  V30 51 1 27 47
M  V30 52 1 28 48
M  V30 53 1 29 49
M  V30 END BOND
M  V30 END CTAB
M  END
>  <Dataset>  (608) 
ChEMBL_Kinases

>  <Ligand_Instance>  (608) 
nan

>  <PDB_ID>  (608) 
nan

>  <Standardized_SMILES>  (608) 
CCOC(=O)c1cc(NC2(C(=O)Nc3nc4ccc5[nH]ncc5c4s3)CC2)ccc1Cl

>  <Name>  (608) 
nan

>  <Pocket>  (608) 
nan

>  <ATP_Site>  (608) 
nan

>  <Peripheral>  (608) 
nan

>  <Num_H_Atoms_ProtBoundConf>  (608) 
nan

>  <Num_Resolved_Atoms>  (608) 
nan

>  <Num_Not_Resolved_Atoms>  (608) 
nan

$$$$
CHEMBL4451407
     RDKit          3D

  0  0  0  0  0  0  0  0  0  0999 V3000
M  V30 BEGIN CTAB
M  V30 COUNTS 49 52 0 0 0
M  V30 BEGIN ATOM
M  V30 1 O 2.955491 -2.448991 2.771548 0
M  V30 2 C 3.108372 -1.210786 2.492037 0
M  V30 3 C 3.503348 -0.527888 3.724746 0
M  V30 4 O 3.703673 0.848753 3.586459 0
M  V30 5 C 2.667425 1.670563 3.208244 0
M  V30 6 C 3.120600 2.992202 3.132883 0
M  V30 7 C 2.287830 4.035793 2.775583 0
M  V30 8 C 0.971066 3.787867 2.481646 0
M  V30 9 C 0.073974 4.772732 2.116668 0
M  V30 10 O 0.441406 5.951140 2.040300 0
M  V30 11 C -1.220174 4.318402 1.857865 0
M  V30 12 C -1.643243 3.022395 1.937101 0
M  V30 13 O -0.718205 2.170036 2.290158 0
M  V30 14 C 0.516670 2.496510 2.552384 0
M  V30 15 C 1.337051 1.450495 2.906926 0
M  V30 16 N 2.869500 -0.847645 1.137280 0
M  V30 17 C 2.482380 -1.873086 0.228462 0
M  V30 18 C 3.377292 -2.629798 -0.514398 0
M  V30 19 C 2.857179 -3.588039 -1.354107 0
M  V30 20 C 1.514353 -3.856368 -1.516142 0
M  V30 21 C 0.598591 -3.106073 -0.777842 0
M  V30 22 N -0.810427 -3.272133 -0.843124 0
M  V30 23 C -1.773359 -2.660543 -1.676227 0
M  V30 24 O -1.282434 -1.841161 -2.481761 0
M  V30 25 C -3.181693 -3.021108 -1.529721 0
M  V30 26 C -3.735067 -3.923352 -0.643775 0
M  V30 27 C -5.091869 -4.147477 -0.636563 0
M  V30 28 C -5.896814 -3.462727 -1.522806 0
M  V30 29 Br -7.775436 -3.787827 -1.496579 0
M  V30 30 C -5.411123 -2.538993 -2.444000 0
M  V30 31 C -4.026434 -2.352667 -2.405163 0
M  V30 32 C 1.118837 -2.133819 0.074612 0
M  V30 33 H 4.419172 -1.004088 4.141881 0
M  V30 34 H 2.681239 -0.654521 4.462146 0
M  V30 35 H 4.138947 3.360411 3.335037 0
M  V30 36 H 2.586104 5.071326 2.702281 0
M  V30 37 H -1.920109 5.113981 1.569177 0
M  V30 38 H -2.661879 2.819733 1.711274 0
M  V30 39 H 1.108227 0.395087 3.000385 0
M  V30 40 H 3.035482 0.175773 1.024323 0
M  V30 41 H 4.429929 -2.435361 -0.401910 0
M  V30 42 H 3.533534 -4.201410 -1.953252 0
M  V30 43 H 1.120966 -4.607506 -2.175268 0
M  V30 44 H -1.029944 -3.982746 -0.108633 0
M  V30 45 H -3.021379 -4.407802 0.008391 0
M  V30 46 H -5.481469 -4.861898 0.073461 0
M  V30 47 H -6.038588 -2.007894 -3.131959 0
M  V30 48 H -3.669034 -1.622691 -3.137761 0
M  V30 49 H 0.422942 -1.544251 0.653333 0
M  V30 END ATOM
M  V30 BEGIN BOND
M  V30 1 2 1 2
M  V30 2 1 2 3
M  V30 3 1 3 4
M  V30 4 1 4 5
M  V30 5 2 5 6
M  V30 6 1 6 7
M  V30 7 2 7 8
M  V30 8 1 8 9
M  V30 9 2 9 10
M  V30 10 1 9 11
M  V30 11 2 11 12
M  V30 12 1 12 13
M  V30 13 1 13 14
M  V30 14 2 14 15
M  V30 15 1 2 16
M  V30 16 1 16 17
M  V30 17 2 17 18
M  V30 18 1 18 19
M  V30 19 2 19 20
M  V30 20 1 20 21
M  V30 21 1 21 22
M  V30 22 1 22 23
M  V30 23 2 23 24
M  V30 24 1 23 25
M  V30 25 2 25 26
M  V30 26 1 26 27
M  V30 27 2 27 28
M  V30 28 1 28 29
M  V30 29 1 28 30
M  V30 30 2 30 31
M  V30 31 2 21 32
M  V30 32 1 15 5
M  V30 33 1 32 17
M  V30 34 1 14 8
M  V30 35 1 31 25
M  V30 36 1 3 33
M  V30 37 1 3 34
M  V30 38 1 6 35
M  V30 39 1 7 36
M  V30 40 1 11 37
M  V30 41 1 12 38
M  V30 42 1 15 39
M  V30 43 1 16 40
M  V30 44 1 18 41
M  V30 45 1 19 42
M  V30 46 1 20 43
M  V30 47 1 22 44
M  V30 48 1 26 45
M  V30 49 1 27 46
M  V30 50 1 30 47
M  V30 51 1 31 48
M  V30 52 1 32 49
M  V30 END BOND
M  V30 END CTAB
M  END
>  <Dataset>  (609) 
ChEMBL_Kinases

>  <Ligand_Instance>  (609) 
nan

>  <PDB_ID>  (609) 
nan

>  <Standardized_SMILES>  (609) 
O=C(COc1ccc2c(=O)ccoc2c1)Nc1cccc(NC(=O)c2ccc(Br)cc2)c1

>  <Name>  (609) 
nan

>  <Pocket>  (609) 
nan

>  <ATP_Site>  (609) 
nan

>  <Peripheral>  (609) 
nan

>  <Num_H_Atoms_ProtBoundConf>  (609) 
nan

>  <Num_Resolved_Atoms>  (609) 
nan

>  <Num_Not_Resolved_Atoms>  (609) 
nan

$$$$
CHEMBL3691626
     RDKit          3D

  0  0  0  0  0  0  0  0  0  0999 V3000
M  V30 BEGIN CTAB
M  V30 COUNTS 74 79 0 0 0
M  V30 BEGIN ATOM
M  V30 1 C 7.070073 1.150970 3.838319 0
M  V30 2 N 5.638585 0.939089 3.745645 0
M  V30 3 C 4.756200 0.753267 4.880510 0
M  V30 4 C 5.122246 0.921358 2.416642 0
M  V30 5 O 6.202843 1.115041 1.762459 0
M  V30 6 C 3.728826 0.728238 2.028379 0
M  V30 7 C 3.297577 -0.605601 2.013256 0
M  V30 8 C 1.953474 -0.614307 1.627315 0
M  V30 9 C 1.026795 -1.612889 1.437524 0
M  V30 10 N -0.224348 -1.233750 1.042287 0
M  V30 11 C -0.535451 0.061288 0.847908 0
M  V30 12 N -1.874422 0.347501 0.416611 0
M  V30 13 C -2.722728 -0.757121 0.134441 0
M  V30 14 C -4.052206 -0.602210 -0.282916 0
M  V30 15 C -4.810299 -1.727765 -0.558992 0
M  V30 16 C -4.345559 -3.015394 -0.451920 0
M  V30 17 N -5.112990 -4.171594 -0.729948 0
M  V30 18 C -4.552050 -5.521145 -0.709547 0
M  V30 19 C -5.122174 -6.441480 -1.729053 0 CFG=2
M  V30 20 C -3.984488 -6.896613 -2.648041 0
M  V30 21 N -3.816807 -5.824883 -3.601719 0
M  V30 22 C -4.978660 -4.992944 -3.568394 0
M  V30 23 C -5.988507 -5.775103 -2.774413 0 CFG=2
M  V30 24 C -7.062726 -4.921555 -2.159850 0
M  V30 25 C -6.489934 -4.074598 -1.065376 0
M  V30 26 O -7.228919 -3.263414 -0.427804 0
M  V30 27 C -3.034584 -3.101554 -0.037653 0
M  V30 28 N -2.281981 -2.022845 0.234991 0
M  V30 29 N 0.392138 1.010258 1.042033 0
M  V30 30 C 1.644536 0.713491 1.430370 0
M  V30 31 N 2.692569 1.523690 1.665226 0
M  V30 32 C 2.868845 2.937191 1.591393 0
M  V30 33 C 4.126320 3.342749 0.856906 0
M  V30 34 C 3.980313 4.564136 0.006620 0
M  V30 35 C 3.457791 4.194893 -1.374364 0
M  V30 36 C 1.947231 4.462959 -1.320777 0
M  V30 37 C 1.406575 3.350782 -0.410100 0
M  V30 38 C 1.646754 3.626462 1.035348 0
M  V30 39 H 7.353859 1.640002 4.816213 0
M  V30 40 H 7.454461 1.800941 3.041355 0
M  V30 41 H 7.582600 0.168503 3.809688 0
M  V30 42 H 4.082486 1.638106 5.046685 0
M  V30 43 H 5.323976 0.568419 5.804938 0
M  V30 44 H 4.078383 -0.109989 4.758849 0
M  V30 45 H 3.785034 -1.547229 2.231242 0
M  V30 46 H 1.269205 -2.646529 1.591916 0
M  V30 47 H -2.268559 1.302753 0.294772 0
M  V30 48 H -4.455800 0.397634 -0.380631 0
M  V30 49 H -5.806722 -1.528176 -0.873855 0
M  V30 50 H -3.451271 -5.488835 -0.829646 0
M  V30 51 H -4.768298 -5.966447 0.286667 0
M  V30 52 H -5.623168 -7.325463 -1.280717 0
M  V30 53 H -4.254209 -7.847737 -3.143930 0
M  V30 54 H -3.026209 -7.009104 -2.103260 0
M  V30 55 H -3.708876 -6.205796 -4.567785 0
M  V30 56 H -4.794504 -3.986307 -3.148830 0
M  V30 57 H -5.369703 -4.780582 -4.610361 0
M  V30 58 H -6.383343 -6.557365 -3.435621 0
M  V30 59 H -7.791714 -5.606893 -1.682373 0
M  V30 60 H -7.596137 -4.337979 -2.923726 0
M  V30 61 H -2.504724 -4.013920 0.107023 0
M  V30 62 H 2.991891 3.309948 2.636362 0
M  V30 63 H 4.473264 2.533123 0.183118 0
M  V30 64 H 4.965726 3.551435 1.562814 0
M  V30 65 H 3.446473 5.403134 0.447649 0
M  V30 66 H 5.023191 4.954636 -0.187500 0
M  V30 67 H 3.542915 3.078352 -1.502134 0
M  V30 68 H 3.945167 4.722018 -2.192970 0
M  V30 69 H 1.807410 5.459941 -0.909641 0
M  V30 70 H 1.483758 4.303050 -2.305924 0
M  V30 71 H 0.316304 3.312073 -0.609423 0
M  V30 72 H 1.908821 2.435246 -0.788083 0
M  V30 73 H 1.691335 4.717315 1.225711 0
M  V30 74 H 0.772330 3.279921 1.619550 0
M  V30 END ATOM
M  V30 BEGIN BOND
M  V30 1 1 1 2
M  V30 2 1 2 3
M  V30 3 1 2 4
M  V30 4 2 4 5
M  V30 5 1 4 6
M  V30 6 2 6 7
M  V30 7 1 7 8
M  V30 8 2 8 9
M  V30 9 1 9 10
M  V30 10 2 10 11
M  V30 11 1 11 12
M  V30 12 1 12 13
M  V30 13 2 13 14
M  V30 14 1 14 15
M  V30 15 2 15 16
M  V30 16 1 16 17
M  V30 17 1 17 18
M  V30 18 1 18 19
M  V30 19 1 19 20
M  V30 20 1 20 21
M  V30 21 1 21 22
M  V30 22 1 22 23
M  V30 23 1 23 24
M  V30 24 1 24 25
M  V30 25 2 25 26
M  V30 26 1 16 27
M  V30 27 2 27 28
M  V30 28 1 11 29
M  V30 29 2 29 30
M  V30 30 1 30 31
M  V30 31 1 31 32
M  V30 32 1 32 33
M  V30 33 1 33 34
M  V30 34 1 34 35
M  V30 35 1 35 36
M  V30 36 1 36 37
M  V30 37 1 37 38
M  V30 38 1 31 6
M  V30 39 1 38 32
M  V30 40 1 30 8
M  V30 41 1 28 13
M  V30 42 1 25 17
M  V30 43 1 23 19
M  V30 44 1 1 39
M  V30 45 1 1 40
M  V30 46 1 1 41
M  V30 47 1 3 42
M  V30 48 1 3 43
M  V30 49 1 3 44
M  V30 50 1 7 45
M  V30 51 1 9 46
M  V30 52 1 12 47
M  V30 53 1 14 48
M  V30 54 1 15 49
M  V30 55 1 18 50
M  V30 56 1 18 51
M  V30 57 1 19 52 CFG=1
M  V30 58 1 20 53
M  V30 59 1 20 54
M  V30 60 1 21 55
M  V30 61 1 22 56
M  V30 62 1 22 57
M  V30 63 1 23 58 CFG=3
M  V30 64 1 24 59
M  V30 65 1 24 60
M  V30 66 1 27 61
M  V30 67 1 32 62
M  V30 68 1 33 63
M  V30 69 1 33 64
M  V30 70 1 34 65
M  V30 71 1 34 66
M  V30 72 1 35 67
M  V30 73 1 35 68
M  V30 74 1 36 69
M  V30 75 1 36 70
M  V30 76 1 37 71
M  V30 77 1 37 72
M  V30 78 1 38 73
M  V30 79 1 38 74
M  V30 END BOND
M  V30 END CTAB
M  END
>  <Dataset>  (610) 
ChEMBL_Kinases

>  <Ligand_Instance>  (610) 
nan

>  <PDB_ID>  (610) 
nan

>  <Standardized_SMILES>  (610) 
CN(C)C(=O)c1cc2cnc(Nc3ccc(N4C[C@@H]5CNC[C@@H]5CC4=O)cn3)nc2n1C1CCCCCC1

>  <Name>  (610) 
nan

>  <Pocket>  (610) 
nan

>  <ATP_Site>  (610) 
nan

>  <Peripheral>  (610) 
nan

>  <Num_H_Atoms_ProtBoundConf>  (610) 
nan

>  <Num_Resolved_Atoms>  (610) 
nan

>  <Num_Not_Resolved_Atoms>  (610) 
nan

$$$$
CHEMBL3702092
     RDKit          3D

  0  0  0  0  0  0  0  0  0  0999 V3000
M  V30 BEGIN CTAB
M  V30 COUNTS 56 61 0 0 0
M  V30 BEGIN ATOM
M  V30 1 O 1.966692 -6.615736 2.530041 0
M  V30 2 C 2.139454 -5.253328 2.382323 0 CFG=1
M  V30 3 C 3.495421 -4.817897 2.920278 0
M  V30 4 C 4.211288 -4.269055 1.695902 0
M  V30 5 N 3.140070 -3.741426 0.863127 0
M  V30 6 C 2.832143 -2.553193 0.138808 0
M  V30 7 C 2.057674 -1.617692 0.816467 0
M  V30 8 C 1.716566 -0.434835 0.157803 0
M  V30 9 C 2.139037 -0.214334 -1.120136 0
M  V30 10 N 1.775861 0.982969 -1.819219 0
M  V30 11 C 0.959294 1.882869 -1.079222 0
M  V30 12 N 1.147766 3.110952 -0.544237 0
M  V30 13 C 0.170098 3.730814 0.128312 0
M  V30 14 C -1.090758 3.170559 0.325559 0
M  V30 15 C -2.246592 3.576139 0.960374 0
M  V30 16 C -2.573527 4.725189 1.644438 0
M  V30 17 C -3.877971 4.764352 2.149404 0
M  V30 18 N -4.731527 3.745295 1.969938 0
M  V30 19 C -4.408364 2.612139 1.296412 0
M  V30 20 F -5.305007 1.610184 1.142879 0
M  V30 21 C -3.127321 2.527416 0.777072 0
M  V30 22 N -2.532904 1.547431 0.071206 0
M  V30 23 C -3.055937 0.263250 -0.347466 0
M  V30 24 C -2.428545 -0.860762 0.492326 0
M  V30 25 C -2.446657 -2.080508 -0.393505 0
M  V30 26 C -2.352314 -1.541344 -1.791636 0
M  V30 27 C -2.776163 -0.092626 -1.768471 0
M  V30 28 C -1.269748 1.914402 -0.225986 0
M  V30 29 N -0.273199 1.322837 -0.892064 0
M  V30 30 N 2.898482 -1.140051 -1.771819 0
M  V30 31 C 3.236924 -2.285439 -1.153720 0
M  V30 32 C 2.236617 -4.898027 0.909770 0
M  V30 33 H 1.002504 -6.860827 2.447678 0
M  V30 34 H 1.336517 -4.695218 2.881005 0
M  V30 35 H 3.345078 -4.015423 3.650021 0
M  V30 36 H 4.016376 -5.669288 3.365068 0
M  V30 37 H 4.743843 -5.054550 1.129871 0
M  V30 38 H 4.929456 -3.479260 1.983808 0
M  V30 39 H 1.715486 -1.788107 1.844778 0
M  V30 40 H 1.114734 0.274364 0.714811 0
M  V30 41 H 2.112849 1.138945 -2.799348 0
M  V30 42 H 0.371568 4.696278 0.531078 0
M  V30 43 H -1.829035 5.501589 1.745956 0
M  V30 44 H -4.159916 5.675739 2.699555 0
M  V30 45 H -4.129634 0.161213 -0.182622 0
M  V30 46 H -3.032579 -1.090823 1.391569 0
M  V30 47 H -1.397151 -0.577057 0.791874 0
M  V30 48 H -3.347371 -2.714052 -0.242808 0
M  V30 49 H -1.574373 -2.725493 -0.126510 0
M  V30 50 H -1.319710 -1.584415 -2.193778 0
M  V30 51 H -2.985328 -2.181323 -2.427136 0
M  V30 52 H -2.052568 0.559227 -2.270574 0
M  V30 53 H -3.705162 -0.052132 -2.406798 0
M  V30 54 H 3.841464 -3.030225 -1.664031 0
M  V30 55 H 1.266550 -4.665626 0.454854 0
M  V30 56 H 2.733052 -5.699946 0.339565 0
M  V30 END ATOM
M  V30 BEGIN BOND
M  V30 1 1 1 2
M  V30 2 1 2 3
M  V30 3 1 3 4
M  V30 4 1 4 5
M  V30 5 1 5 6
M  V30 6 2 6 7
M  V30 7 1 7 8
M  V30 8 2 8 9
M  V30 9 1 9 10
M  V30 10 1 10 11
M  V30 11 2 11 12
M  V30 12 1 12 13
M  V30 13 2 13 14
M  V30 14 1 14 15
M  V30 15 2 15 16
M  V30 16 1 16 17
M  V30 17 2 17 18
M  V30 18 1 18 19
M  V30 19 1 19 20
M  V30 20 2 19 21
M  V30 21 1 21 22
M  V30 22 1 22 23
M  V30 23 1 23 24
M  V30 24 1 24 25
M  V30 25 1 25 26
M  V30 26 1 26 27
M  V30 27 1 22 28
M  V30 28 2 28 29
M  V30 29 1 9 30
M  V30 30 2 30 31
M  V30 31 1 5 32
M  V30 32 1 32 2
M  V30 33 1 31 6
M  V30 34 1 29 11
M  V30 35 1 28 14
M  V30 36 1 21 15
M  V30 37 1 27 23
M  V30 38 1 1 33
M  V30 39 1 2 34 CFG=1
M  V30 40 1 3 35
M  V30 41 1 3 36
M  V30 42 1 4 37
M  V30 43 1 4 38
M  V30 44 1 7 39
M  V30 45 1 8 40
M  V30 46 1 10 41
M  V30 47 1 13 42
M  V30 48 1 16 43
M  V30 49 1 17 44
M  V30 50 1 23 45
M  V30 51 1 24 46
M  V30 52 1 24 47
M  V30 53 1 25 48
M  V30 54 1 25 49
M  V30 55 1 26 50
M  V30 56 1 26 51
M  V30 57 1 27 52
M  V30 58 1 27 53
M  V30 59 1 31 54
M  V30 60 1 32 55
M  V30 61 1 32 56
M  V30 END BOND
M  V30 END CTAB
M  END
>  <Dataset>  (611) 
ChEMBL_Kinases

>  <Ligand_Instance>  (611) 
nan

>  <PDB_ID>  (611) 
nan

>  <Standardized_SMILES>  (611) 
O[C@H]1CCN(c2ccc(Nc3ncc4c5ccnc(F)c5n(C5CCCC5)c4n3)nc2)C1

>  <Name>  (611) 
nan

>  <Pocket>  (611) 
nan

>  <ATP_Site>  (611) 
nan

>  <Peripheral>  (611) 
nan

>  <Num_H_Atoms_ProtBoundConf>  (611) 
nan

>  <Num_Resolved_Atoms>  (611) 
nan

>  <Num_Not_Resolved_Atoms>  (611) 
nan

$$$$
CHEMBL3716774
     RDKit          3D

  0  0  0  0  0  0  0  0  0  0999 V3000
M  V30 BEGIN CTAB
M  V30 COUNTS 58 60 0 0 0
M  V30 BEGIN ATOM
M  V30 1 C 2.272499 -3.316383 8.796139 0
M  V30 2 C 3.164455 -3.728803 7.670197 0
M  V30 3 C 2.916032 -3.034630 6.397909 0
M  V30 4 C 3.596128 -1.855040 6.134332 0
M  V30 5 C 3.356345 -1.212406 4.934364 0
M  V30 6 C 2.468393 -1.693482 3.984718 0
M  V30 7 C 2.202298 -1.031621 2.713993 0
M  V30 8 C 2.232583 0.328129 2.483608 0
M  V30 9 C 1.962240 0.832631 1.228515 0
M  V30 10 C 1.652339 0.031529 0.151251 0
M  V30 11 C 1.357005 0.499927 -1.200002 0
M  V30 12 O 1.088232 -0.356565 -2.109066 0
M  V30 13 N 1.344099 1.857106 -1.593339 0
M  V30 14 C 1.051788 2.315142 -2.909089 0
M  V30 15 C -0.272321 2.006831 -3.437307 0
M  V30 16 O -0.394407 2.455973 -4.626973 0
M  V30 17 N -1.408219 1.334117 -2.912534 0
M  V30 18 C -2.605980 1.180283 -3.698638 0
M  V30 19 C -3.761421 1.831141 -2.926574 0
M  V30 20 C -5.059919 1.722915 -3.667820 0
M  V30 21 C -2.937061 -0.261206 -3.916775 0
M  V30 22 C -2.850944 -1.089820 -2.801587 0
M  V30 23 C -3.122338 -2.446191 -2.831512 0
M  V30 24 C -3.503598 -3.027875 -4.036411 0
M  V30 25 C -3.587951 -2.192188 -5.149320 0
M  V30 26 C -3.316862 -0.857490 -5.101505 0
M  V30 27 C 1.631002 -1.321376 0.417223 0
M  V30 28 C 1.895619 -1.862219 1.657935 0
M  V30 29 C 1.824658 -2.874448 4.312920 0
M  V30 30 C 2.017284 -3.565402 5.490493 0
M  V30 31 H 2.149422 -2.232058 8.868742 0
M  V30 32 H 2.744265 -3.672129 9.734453 0
M  V30 33 H 1.273855 -3.821109 8.740795 0
M  V30 34 H 3.005294 -4.817186 7.508204 0
M  V30 35 H 4.216926 -3.590277 7.992827 0
M  V30 36 H 4.299312 -1.444571 6.851142 0
M  V30 37 H 3.855105 -0.280979 4.660688 0
M  V30 38 H 2.472640 0.954380 3.317294 0
M  V30 39 H 1.991717 1.896361 1.071220 0
M  V30 40 H 1.576742 2.533101 -0.806639 0
M  V30 41 H 1.128932 3.441996 -2.907547 0
M  V30 42 H 1.832011 2.004106 -3.649357 0
M  V30 43 H -1.245319 1.003134 -1.939979 0
M  V30 44 H -2.453782 1.645650 -4.679146 0
M  V30 45 H -3.829119 1.237023 -1.970102 0
M  V30 46 H -3.500442 2.858972 -2.624555 0
M  V30 47 H -5.640028 0.838429 -3.281593 0
M  V30 48 H -4.916164 1.523072 -4.760455 0
M  V30 49 H -5.711385 2.619594 -3.515720 0
M  V30 50 H -2.557407 -0.687835 -1.833595 0
M  V30 51 H -3.033798 -3.040204 -1.911786 0
M  V30 52 H -3.718544 -4.087714 -4.069262 0
M  V30 53 H -3.885567 -2.656811 -6.078345 0
M  V30 54 H -3.375552 -0.192146 -5.949344 0
M  V30 55 H 1.389121 -2.007467 -0.406422 0
M  V30 56 H 1.849840 -2.949520 1.753333 0
M  V30 57 H 1.122739 -3.306456 3.625102 0
M  V30 58 H 1.491815 -4.475784 5.692167 0
M  V30 END ATOM
M  V30 BEGIN BOND
M  V30 1 1 1 2
M  V30 2 1 2 3
M  V30 3 2 3 4
M  V30 4 1 4 5
M  V30 5 2 5 6
M  V30 6 1 6 7
M  V30 7 2 7 8
M  V30 8 1 8 9
M  V30 9 2 9 10
M  V30 10 1 10 11
M  V30 11 2 11 12
M  V30 12 1 11 13
M  V30 13 1 13 14
M  V30 14 1 14 15
M  V30 15 2 15 16
M  V30 16 1 15 17
M  V30 17 1 17 18
M  V30 18 1 18 19
M  V30 19 1 19 20
M  V30 20 1 18 21
M  V30 21 2 21 22
M  V30 22 1 22 23
M  V30 23 2 23 24
M  V30 24 1 24 25
M  V30 25 2 25 26
M  V30 26 1 10 27
M  V30 27 2 27 28
M  V30 28 1 6 29
M  V30 29 2 29 30
M  V30 30 1 30 3
M  V30 31 1 28 7
M  V30 32 1 26 21
M  V30 33 1 1 31
M  V30 34 1 1 32
M  V30 35 1 1 33
M  V30 36 1 2 34
M  V30 37 1 2 35
M  V30 38 1 4 36
M  V30 39 1 5 37
M  V30 40 1 8 38
M  V30 41 1 9 39
M  V30 42 1 13 40
M  V30 43 1 14 41
M  V30 44 1 14 42
M  V30 45 1 17 43
M  V30 46 1 18 44
M  V30 47 1 19 45
M  V30 48 1 19 46
M  V30 49 1 20 47
M  V30 50 1 20 48
M  V30 51 1 20 49
M  V30 52 1 22 50
M  V30 53 1 23 51
M  V30 54 1 24 52
M  V30 55 1 25 53
M  V30 56 1 26 54
M  V30 57 1 27 55
M  V30 58 1 28 56
M  V30 59 1 29 57
M  V30 60 1 30 58
M  V30 END BOND
M  V30 END CTAB
M  END
>  <Dataset>  (612) 
ChEMBL_Kinases

>  <Ligand_Instance>  (612) 
nan

>  <PDB_ID>  (612) 
nan

>  <Standardized_SMILES>  (612) 
CCc1ccc(-c2ccc(C(=O)NCC(=O)NC(CC)c3ccccc3)cc2)cc1

>  <Name>  (612) 
nan

>  <Pocket>  (612) 
nan

>  <ATP_Site>  (612) 
nan

>  <Peripheral>  (612) 
nan

>  <Num_H_Atoms_ProtBoundConf>  (612) 
nan

>  <Num_Resolved_Atoms>  (612) 
nan

>  <Num_Not_Resolved_Atoms>  (612) 
nan

$$$$
CHEMBL3716786
     RDKit          3D

  0  0  0  0  0  0  0  0  0  0999 V3000
M  V30 BEGIN CTAB
M  V30 COUNTS 56 59 0 0 0
M  V30 BEGIN ATOM
M  V30 1 C 0.246986 0.108768 4.180280 0
M  V30 2 C 0.590527 -1.222484 3.579812 0
M  V30 3 C 0.309086 -2.262449 4.680016 0
M  V30 4 N 1.990439 -1.339059 3.231903 0
M  V30 5 C 2.652216 -0.474894 2.328985 0
M  V30 6 C 4.007134 -0.604052 2.001726 0
M  V30 7 C 4.654940 0.238142 1.124111 0
M  V30 8 C 3.974141 1.270435 0.516750 0
M  V30 9 Cl 4.792271 2.334920 -0.592067 0
M  V30 10 C 2.637268 1.448573 0.799140 0
M  V30 11 C 1.911791 2.537189 0.161245 0
M  V30 12 O 2.459211 3.624533 0.550097 0
M  V30 13 N 0.819900 2.548037 -0.719934 0
M  V30 14 C 0.428369 3.891988 -1.101075 0
M  V30 15 C 0.033909 4.699063 0.098362 0
M  V30 16 N 0.023795 4.259851 1.460309 0
M  V30 17 O -0.343334 5.884080 0.049480 0
M  V30 18 C 2.043679 0.574760 1.684770 0
M  V30 19 C -0.334965 -1.545505 2.483668 0
M  V30 20 O -1.593126 -1.460566 2.649670 0
M  V30 21 N 0.104888 -1.964169 1.198466 0
M  V30 22 C -0.760534 -2.292274 0.089956 0
M  V30 23 N -1.266807 -3.253162 -0.286496 0
M  V30 24 C -2.047949 -3.464691 -1.317164 0
M  V30 25 C -2.650477 -4.652542 -1.749823 0
M  V30 26 C -2.500974 -5.983576 -1.067010 0
M  V30 27 F -3.210455 -6.969448 -1.722178 0
M  V30 28 F -1.192370 -6.385436 -0.993611 0
M  V30 29 F -2.981929 -5.929041 0.227409 0
M  V30 30 C -3.436468 -4.615743 -2.875586 0
M  V30 31 C -3.717958 -3.521108 -3.661521 0
M  V30 32 N -4.394358 -3.139563 -4.754087 0
M  V30 33 N -4.247375 -1.852612 -5.001384 0
M  V30 34 C -3.449616 -1.313397 -4.062816 0
M  V30 35 C -3.108316 -2.344895 -3.214623 0
M  V30 36 C -2.300993 -2.340504 -2.073203 0
M  V30 37 S -1.416957 -1.090833 -1.264319 0
M  V30 38 H -0.574403 0.634381 3.659377 0
M  V30 39 H -0.088331 0.044895 5.254458 0
M  V30 40 H 1.169356 0.752548 4.244224 0
M  V30 41 H 0.571388 -3.250697 4.246677 0
M  V30 42 H -0.765467 -2.184809 4.882118 0
M  V30 43 H 0.939013 -2.057790 5.579491 0
M  V30 44 H 2.602469 -2.102549 3.651780 0
M  V30 45 H 4.575479 -1.416777 2.469607 0
M  V30 46 H 5.697639 0.076398 0.921967 0
M  V30 47 H 0.496676 1.571192 -0.933280 0
M  V30 48 H 1.226300 4.416468 -1.660357 0
M  V30 49 H -0.450158 3.840700 -1.769229 0
M  V30 50 H -0.189574 3.695434 2.305348 0
M  V30 51 H 0.536832 4.741669 2.234070 0
M  V30 52 H 0.995289 0.775304 1.856086 0
M  V30 53 H 1.114090 -2.063232 0.978245 0
M  V30 54 H -3.918574 -5.541486 -3.230508 0
M  V30 55 H -4.947978 -3.854641 -5.284686 0
M  V30 56 H -3.092130 -0.281205 -3.921805 0
M  V30 END ATOM
M  V30 BEGIN BOND
M  V30 1 1 1 2
M  V30 2 1 2 3
M  V30 3 1 2 4
M  V30 4 1 4 5
M  V30 5 2 5 6
M  V30 6 1 6 7
M  V30 7 2 7 8
M  V30 8 1 8 9
M  V30 9 1 8 10
M  V30 10 1 10 11
M  V30 11 2 11 12
M  V30 12 1 11 13
M  V30 13 1 13 14
M  V30 14 1 14 15
M  V30 15 1 15 16
M  V30 16 2 15 17
M  V30 17 2 10 18
M  V30 18 1 2 19
M  V30 19 2 19 20
M  V30 20 1 19 21
M  V30 21 1 21 22
M  V30 22 2 22 23
M  V30 23 1 23 24
M  V30 24 2 24 25
M  V30 25 1 25 26
M  V30 26 1 26 27
M  V30 27 1 26 28
M  V30 28 1 26 29
M  V30 29 1 25 30
M  V30 30 2 30 31
M  V30 31 1 31 32
M  V30 32 1 32 33
M  V30 33 2 33 34
M  V30 34 1 34 35
M  V30 35 2 35 36
M  V30 36 1 36 37
M  V30 37 1 18 5
M  V30 38 1 37 22
M  V30 39 1 36 24
M  V30 40 1 35 31
M  V30 41 1 1 38
M  V30 42 1 1 39
M  V30 43 1 1 40
M  V30 44 1 3 41
M  V30 45 1 3 42
M  V30 46 1 3 43
M  V30 47 1 4 44
M  V30 48 1 6 45
M  V30 49 1 7 46
M  V30 50 1 13 47
M  V30 51 1 14 48
M  V30 52 1 14 49
M  V30 53 1 16 50
M  V30 54 1 16 51
M  V30 55 1 18 52
M  V30 56 1 21 53
M  V30 57 1 30 54
M  V30 58 1 32 55
M  V30 59 1 34 56
M  V30 END BOND
M  V30 END CTAB
M  END
>  <Dataset>  (613) 
ChEMBL_Kinases

>  <Ligand_Instance>  (613) 
nan

>  <PDB_ID>  (613) 
nan

>  <Standardized_SMILES>  (613) 
CC(C)(Nc1ccc(Cl)c(C(=O)NCC(N)=O)c1)C(=O)Nc1nc2c(C(F)(F)F)cc3[nH]ncc3c2s1

>  <Name>  (613) 
nan

>  <Pocket>  (613) 
nan

>  <ATP_Site>  (613) 
nan

>  <Peripheral>  (613) 
nan

>  <Num_H_Atoms_ProtBoundConf>  (613) 
nan

>  <Num_Resolved_Atoms>  (613) 
nan

>  <Num_Not_Resolved_Atoms>  (613) 
nan

$$$$
CHEMBL4574237
     RDKit          3D

  0  0  0  0  0  0  0  0  0  0999 V3000
M  V30 BEGIN CTAB
M  V30 COUNTS 49 52 0 0 0
M  V30 BEGIN ATOM
M  V30 1 C 3.956797 -5.061917 2.093574 0
M  V30 2 S 4.558972 -4.055456 0.721788 0
M  V30 3 C 3.795343 -2.458098 0.681374 0
M  V30 4 N 4.083689 -1.531715 -0.252140 0
M  V30 5 C 3.335997 -0.428033 -0.005914 0
M  V30 6 C 3.277453 0.836015 -0.717705 0
M  V30 7 C 3.625281 2.107292 -0.334544 0
M  V30 8 C 3.472230 3.167702 -1.202166 0
M  V30 9 C 2.960604 2.977486 -2.490527 0
M  V30 10 F 2.879057 4.127805 -3.205225 0
M  V30 11 C 2.609785 1.708568 -2.882916 0
M  V30 12 C 2.766199 0.649445 -2.006769 0
M  V30 13 C 2.553382 -0.641721 1.100843 0
M  V30 14 C 1.566901 0.117555 1.859257 0
M  V30 15 C 1.688738 1.271785 2.604852 0
M  V30 16 C 0.580460 1.798763 3.234720 0
M  V30 17 N -0.626191 1.209891 3.138933 0
M  V30 18 C -0.804442 0.071157 2.417890 0
M  V30 19 N -2.103240 -0.505653 2.353067 0
M  V30 20 C -3.029390 -0.139285 1.325710 0
M  V30 21 O -2.675820 0.698237 0.484917 0
M  V30 22 C -4.326923 -0.858514 1.441217 0
M  V30 23 C -4.048977 -2.328268 1.336449 0
M  V30 24 C -4.874122 -2.876720 0.196817 0
M  V30 25 C -5.464768 -1.701658 -0.517327 0
M  V30 26 C -5.312337 -0.488880 0.370216 0
M  V30 27 C 0.300132 -0.474205 1.776565 0
M  V30 28 N 2.858222 -1.906916 1.505961 0
M  V30 29 H 4.592770 -4.857204 2.980421 0
M  V30 30 H 2.902333 -4.878927 2.307578 0
M  V30 31 H 4.042787 -6.162632 1.861326 0
M  V30 32 H 4.006818 2.139196 0.667343 0
M  V30 33 H 3.789181 4.103495 -0.756875 0
M  V30 34 H 2.224689 1.634879 -3.883439 0
M  V30 35 H 2.446149 -0.291580 -2.458358 0
M  V30 36 H 2.704517 1.642040 2.603369 0
M  V30 37 H 0.777996 2.708630 3.797234 0
M  V30 38 H -2.304451 -1.213236 3.122876 0
M  V30 39 H -4.698747 -0.649892 2.462527 0
M  V30 40 H -2.984189 -2.535921 1.112011 0
M  V30 41 H -4.299730 -2.887857 2.271198 0
M  V30 42 H -5.668204 -3.537337 0.601445 0
M  V30 43 H -4.245318 -3.489690 -0.495172 0
M  V30 44 H -6.529329 -1.895052 -0.766177 0
M  V30 45 H -4.944628 -1.460158 -1.466012 0
M  V30 46 H -6.296300 -0.339744 0.878536 0
M  V30 47 H -5.080686 0.438249 -0.165917 0
M  V30 48 H 0.056332 -1.376054 1.231063 0
M  V30 49 H 2.497881 -2.483322 2.311704 0
M  V30 END ATOM
M  V30 BEGIN BOND
M  V30 1 1 1 2
M  V30 2 1 2 3
M  V30 3 2 3 4
M  V30 4 1 4 5
M  V30 5 1 5 6
M  V30 6 2 6 7
M  V30 7 1 7 8
M  V30 8 2 8 9
M  V30 9 1 9 10
M  V30 10 1 9 11
M  V30 11 2 11 12
M  V30 12 2 5 13
M  V30 13 1 13 14
M  V30 14 2 14 15
M  V30 15 1 15 16
M  V30 16 2 16 17
M  V30 17 1 17 18
M  V30 18 1 18 19
M  V30 19 1 19 20
M  V30 20 2 20 21
M  V30 21 1 20 22
M  V30 22 1 22 23
M  V30 23 1 23 24
M  V30 24 1 24 25
M  V30 25 1 25 26
M  V30 26 2 18 27
M  V30 27 1 13 28
M  V30 28 1 28 3
M  V30 29 1 12 6
M  V30 30 1 27 14
M  V30 31 1 26 22
M  V30 32 1 1 29
M  V30 33 1 1 30
M  V30 34 1 1 31
M  V30 35 1 7 32
M  V30 36 1 8 33
M  V30 37 1 11 34
M  V30 38 1 12 35
M  V30 39 1 15 36
M  V30 40 1 16 37
M  V30 41 1 19 38
M  V30 42 1 22 39
M  V30 43 1 23 40
M  V30 44 1 23 41
M  V30 45 1 24 42
M  V30 46 1 24 43
M  V30 47 1 25 44
M  V30 48 1 25 45
M  V30 49 1 26 46
M  V30 50 1 26 47
M  V30 51 1 27 48
M  V30 52 1 28 49
M  V30 END BOND
M  V30 END CTAB
M  END
>  <Dataset>  (614) 
ChEMBL_Kinases

>  <Ligand_Instance>  (614) 
nan

>  <PDB_ID>  (614) 
nan

>  <Standardized_SMILES>  (614) 
CSc1nc(-c2ccc(F)cc2)c(-c2ccnc(NC(=O)C3CCCC3)c2)[nH]1

>  <Name>  (614) 
nan

>  <Pocket>  (614) 
nan

>  <ATP_Site>  (614) 
nan

>  <Peripheral>  (614) 
nan

>  <Num_H_Atoms_ProtBoundConf>  (614) 
nan

>  <Num_Resolved_Atoms>  (614) 
nan

>  <Num_Not_Resolved_Atoms>  (614) 
nan

$$$$
CHEMBL3702091
     RDKit          3D

  0  0  0  0  0  0  0  0  0  0999 V3000
M  V30 BEGIN CTAB
M  V30 COUNTS 56 61 0 0 0
M  V30 BEGIN ATOM
M  V30 1 O 1.707401 -5.943275 1.355798 0
M  V30 2 C 3.024428 -6.216654 1.740595 0 CFG=2
M  V30 3 C 3.258316 -5.495420 3.052080 0
M  V30 4 C 3.952462 -4.191432 2.643327 0
M  V30 5 N 3.525358 -4.057920 1.263277 0
M  V30 6 C 2.904243 -3.014161 0.525636 0
M  V30 7 C 2.473761 -1.904271 1.213298 0
M  V30 8 C 1.885225 -0.944101 0.381122 0
M  V30 9 C 1.742846 -1.077462 -0.983944 0
M  V30 10 N 1.135736 -0.060270 -1.769011 0
M  V30 11 C 0.650349 1.105848 -1.112435 0
M  V30 12 N 1.282809 2.242217 -0.727922 0
M  V30 13 C 0.551155 3.196985 -0.122023 0
M  V30 14 C -0.801152 3.072757 0.122849 0
M  V30 15 C -1.737760 3.897328 0.712791 0
M  V30 16 C -1.680484 5.153769 1.281461 0
M  V30 17 C -2.862183 5.689278 1.791768 0
M  V30 18 N -3.988901 4.984031 1.715775 0
M  V30 19 C -4.103586 3.758230 1.173997 0
M  V30 20 F -5.285671 3.079812 1.123310 0
M  V30 21 C -2.941755 3.215613 0.664882 0
M  V30 22 N -2.742346 2.019120 0.066674 0
M  V30 23 C -3.651097 0.935930 -0.237854 0
M  V30 24 C -3.399144 -0.290098 0.609170 0
M  V30 25 C -3.260445 -1.455064 -0.308981 0
M  V30 26 C -3.151756 -0.926063 -1.697270 0
M  V30 27 C -3.555859 0.508020 -1.684837 0
M  V30 28 C -1.430055 1.910607 -0.274850 0
M  V30 29 N -0.682427 0.981522 -0.872095 0
M  V30 30 N 2.200987 -2.213719 -1.572768 0
M  V30 31 C 2.779671 -3.183515 -0.835922 0
M  V30 32 C 3.932070 -5.393773 0.811147 0
M  V30 33 H 1.595706 -6.342132 0.455745 0
M  V30 34 H 3.283098 -7.277567 1.749528 0
M  V30 35 H 2.290265 -5.287207 3.550161 0
M  V30 36 H 3.878903 -6.108362 3.729059 0
M  V30 37 H 5.036459 -4.457728 2.596898 0
M  V30 38 H 3.717688 -3.348912 3.286511 0
M  V30 39 H 2.587281 -1.810037 2.264063 0
M  V30 40 H 1.514238 -0.028575 0.842778 0
M  V30 41 H 1.058635 -0.188508 -2.800635 0
M  V30 42 H 1.069587 4.091988 0.177933 0
M  V30 43 H -0.752840 5.670777 1.314851 0
M  V30 44 H -2.870136 6.669787 2.246286 0
M  V30 45 H -4.707572 1.221716 -0.076004 0
M  V30 46 H -4.276396 -0.520625 1.282376 0
M  V30 47 H -2.555360 -0.151801 1.309790 0
M  V30 48 H -4.131837 -2.171019 -0.242353 0
M  V30 49 H -2.378921 -2.093618 -0.084352 0
M  V30 50 H -2.121538 -1.091738 -2.084932 0
M  V30 51 H -3.804274 -1.533848 -2.369774 0
M  V30 52 H -4.527061 0.608236 -2.234475 0
M  V30 53 H -2.819294 1.107077 -2.255635 0
M  V30 54 H 3.096619 -4.021820 -1.414229 0
M  V30 55 H 3.707223 -5.573105 -0.248024 0
M  V30 56 H 5.000838 -5.552710 1.078234 0
M  V30 END ATOM
M  V30 BEGIN BOND
M  V30 1 1 1 2
M  V30 2 1 2 3
M  V30 3 1 3 4
M  V30 4 1 4 5
M  V30 5 1 5 6
M  V30 6 2 6 7
M  V30 7 1 7 8
M  V30 8 2 8 9
M  V30 9 1 9 10
M  V30 10 1 10 11
M  V30 11 2 11 12
M  V30 12 1 12 13
M  V30 13 2 13 14
M  V30 14 1 14 15
M  V30 15 2 15 16
M  V30 16 1 16 17
M  V30 17 2 17 18
M  V30 18 1 18 19
M  V30 19 1 19 20
M  V30 20 2 19 21
M  V30 21 1 21 22
M  V30 22 1 22 23
M  V30 23 1 23 24
M  V30 24 1 24 25
M  V30 25 1 25 26
M  V30 26 1 26 27
M  V30 27 1 22 28
M  V30 28 2 28 29
M  V30 29 1 9 30
M  V30 30 2 30 31
M  V30 31 1 5 32
M  V30 32 1 32 2
M  V30 33 1 31 6
M  V30 34 1 29 11
M  V30 35 1 28 14
M  V30 36 1 21 15
M  V30 37 1 27 23
M  V30 38 1 1 33
M  V30 39 1 2 34 CFG=1
M  V30 40 1 3 35
M  V30 41 1 3 36
M  V30 42 1 4 37
M  V30 43 1 4 38
M  V30 44 1 7 39
M  V30 45 1 8 40
M  V30 46 1 10 41
M  V30 47 1 13 42
M  V30 48 1 16 43
M  V30 49 1 17 44
M  V30 50 1 23 45
M  V30 51 1 24 46
M  V30 52 1 24 47
M  V30 53 1 25 48
M  V30 54 1 25 49
M  V30 55 1 26 50
M  V30 56 1 26 51
M  V30 57 1 27 52
M  V30 58 1 27 53
M  V30 59 1 31 54
M  V30 60 1 32 55
M  V30 61 1 32 56
M  V30 END BOND
M  V30 END CTAB
M  END
>  <Dataset>  (615) 
ChEMBL_Kinases

>  <Ligand_Instance>  (615) 
nan

>  <PDB_ID>  (615) 
nan

>  <Standardized_SMILES>  (615) 
O[C@@H]1CCN(c2ccc(Nc3ncc4c5ccnc(F)c5n(C5CCCC5)c4n3)nc2)C1

>  <Name>  (615) 
nan

>  <Pocket>  (615) 
nan

>  <ATP_Site>  (615) 
nan

>  <Peripheral>  (615) 
nan

>  <Num_H_Atoms_ProtBoundConf>  (615) 
nan

>  <Num_Resolved_Atoms>  (615) 
nan

>  <Num_Not_Resolved_Atoms>  (615) 
nan

$$$$
CHEMBL4574467
     RDKit          3D

  0  0  0  0  0  0  0  0  0  0999 V3000
M  V30 BEGIN CTAB
M  V30 COUNTS 68 71 0 0 0
M  V30 BEGIN ATOM
M  V30 1 C 3.047879 1.097656 4.386453 0
M  V30 2 C 4.112533 2.019574 4.904001 0
M  V30 3 C 4.715532 1.737961 6.121193 0
M  V30 4 C 5.698958 2.550783 6.641501 0
M  V30 5 C 6.121390 3.689282 5.955784 0
M  V30 6 C 5.512629 3.954415 4.748641 0
M  V30 7 C 4.525965 3.155867 4.207388 0
M  V30 8 N 3.916153 3.460135 2.949955 0
M  V30 9 C 2.591301 3.477547 2.729367 0
M  V30 10 C 2.305168 3.807807 1.415217 0
M  V30 11 C 0.990219 3.931600 0.768603 0
M  V30 12 O 0.856594 4.260509 -0.430833 0
M  V30 13 N -0.142842 3.655933 1.579409 0
M  V30 14 C -1.522115 3.735072 1.074080 0
M  V30 15 C -1.647641 2.745915 -0.091661 0
M  V30 16 N -1.540142 2.657948 -1.203576 0
M  V30 17 C -1.707189 1.640263 -2.013710 0
M  V30 18 C -2.068148 0.473786 -1.491662 0
M  V30 19 C -2.411226 -0.939456 -1.621876 0
M  V30 20 O -2.700006 -1.642015 -0.660075 0
M  V30 21 N -2.478328 -1.731637 -2.783080 0
M  V30 22 C -2.606363 -2.721937 -3.771692 0 CFG=1
M  V30 23 C -3.455654 -3.918832 -3.509349 0
M  V30 24 C -3.053950 -4.924878 -2.544297 0
M  V30 25 C -2.643760 -4.766206 -1.155531 0
M  V30 26 C -2.482394 -6.253024 -0.635143 0
M  V30 27 C -2.163521 -6.218342 0.831835 0
M  V30 28 C -1.859635 -4.840537 1.332022 0
M  V30 29 C -0.891622 -4.114285 0.454506 0
M  V30 30 C -1.177949 -4.321795 -1.003351 0
M  V30 31 C -2.951847 -2.186621 -5.083596 0
M  V30 32 N -3.031608 -3.227562 -5.993278 0
M  V30 33 O -3.103909 -0.933159 -5.131820 0
M  V30 34 S -2.159516 0.947683 0.326652 0
M  V30 35 C 3.567960 3.993799 0.839869 0
M  V30 36 N 4.493214 3.775284 1.794068 0
M  V30 37 H 3.061462 1.053726 3.294977 0
M  V30 38 H 3.290637 0.053104 4.733347 0
M  V30 39 H 2.071965 1.338975 4.835278 0
M  V30 40 H 4.371266 0.854051 6.628914 0
M  V30 41 H 6.174374 2.335810 7.595764 0
M  V30 42 H 6.897888 4.335760 6.362634 0
M  V30 43 H 5.853647 4.847441 4.225762 0
M  V30 44 H 1.831147 3.270710 3.445461 0
M  V30 45 H -0.014900 3.379635 2.599761 0
M  V30 46 H -1.766001 4.685928 0.612484 0
M  V30 47 H -2.234132 3.439548 1.850901 0
M  V30 48 H -1.617070 1.504935 -3.082937 0
M  V30 49 H -2.170670 -0.945352 -3.471030 0
M  V30 50 H -1.542122 -3.210629 -3.912035 0
M  V30 51 H -3.552305 -4.486331 -4.510221 0
M  V30 52 H -4.553384 -3.615614 -3.405310 0
M  V30 53 H -3.842844 -5.799392 -2.541664 0
M  V30 54 H -2.183603 -5.562060 -3.022990 0
M  V30 55 H -3.318446 -4.295269 -0.463613 0
M  V30 56 H -3.392531 -6.817760 -0.896121 0
M  V30 57 H -1.599730 -6.620721 -1.179212 0
M  V30 58 H -1.314178 -6.880255 1.093091 0
M  V30 59 H -3.029096 -6.591248 1.422865 0
M  V30 60 H -2.806154 -4.304961 1.494894 0
M  V30 61 H -1.387608 -4.978902 2.339657 0
M  V30 62 H 0.172883 -4.432378 0.665360 0
M  V30 63 H -0.903131 -3.044159 0.777705 0
M  V30 64 H -0.505911 -5.159996 -1.329870 0
M  V30 65 H -0.892951 -3.458212 -1.569402 0
M  V30 66 H -2.301679 -3.821875 -6.420034 0
M  V30 67 H -3.961494 -3.547417 -6.381682 0
M  V30 68 H 3.691314 4.263510 -0.193982 0
M  V30 END ATOM
M  V30 BEGIN BOND
M  V30 1 1 1 2
M  V30 2 2 2 3
M  V30 3 1 3 4
M  V30 4 2 4 5
M  V30 5 1 5 6
M  V30 6 2 6 7
M  V30 7 1 7 8
M  V30 8 1 8 9
M  V30 9 2 9 10
M  V30 10 1 10 11
M  V30 11 2 11 12
M  V30 12 1 11 13
M  V30 13 1 13 14
M  V30 14 1 14 15
M  V30 15 2 15 16
M  V30 16 1 16 17
M  V30 17 2 17 18
M  V30 18 1 18 19
M  V30 19 2 19 20
M  V30 20 1 19 21
M  V30 21 1 21 22
M  V30 22 1 22 23
M  V30 23 1 23 24
M  V30 24 1 24 25
M  V30 25 1 25 26
M  V30 26 1 26 27
M  V30 27 1 27 28
M  V30 28 1 28 29
M  V30 29 1 29 30
M  V30 30 1 22 31
M  V30 31 1 31 32
M  V30 32 2 31 33
M  V30 33 1 18 34
M  V30 34 1 10 35
M  V30 35 2 35 36
M  V30 36 1 7 2
M  V30 37 1 36 8
M  V30 38 1 34 15
M  V30 39 1 30 25
M  V30 40 1 1 37
M  V30 41 1 1 38
M  V30 42 1 1 39
M  V30 43 1 3 40
M  V30 44 1 4 41
M  V30 45 1 5 42
M  V30 46 1 6 43
M  V30 47 1 9 44
M  V30 48 1 13 45
M  V30 49 1 14 46
M  V30 50 1 14 47
M  V30 51 1 17 48
M  V30 52 1 21 49
M  V30 53 1 22 50 CFG=3
M  V30 54 1 23 51
M  V30 55 1 23 52
M  V30 56 1 24 53
M  V30 57 1 24 54
M  V30 58 1 25 55
M  V30 59 1 26 56
M  V30 60 1 26 57
M  V30 61 1 27 58
M  V30 62 1 27 59
M  V30 63 1 28 60
M  V30 64 1 28 61
M  V30 65 1 29 62
M  V30 66 1 29 63
M  V30 67 1 30 64
M  V30 68 1 30 65
M  V30 69 1 32 66
M  V30 70 1 32 67
M  V30 71 1 35 68
M  V30 END BOND
M  V30 END CTAB
M  END
>  <Dataset>  (616) 
ChEMBL_Kinases

>  <Ligand_Instance>  (616) 
nan

>  <PDB_ID>  (616) 
nan

>  <Standardized_SMILES>  (616) 
Cc1ccccc1-n1cc(C(=O)NCc2ncc(C(=O)N[C@@H](CCC3CCCCC3)C(N)=O)s2)cn1

>  <Name>  (616) 
nan

>  <Pocket>  (616) 
nan

>  <ATP_Site>  (616) 
nan

>  <Peripheral>  (616) 
nan

>  <Num_H_Atoms_ProtBoundConf>  (616) 
nan

>  <Num_Resolved_Atoms>  (616) 
nan

>  <Num_Not_Resolved_Atoms>  (616) 
nan

$$$$
CHEMBL2180604
     RDKit          3D

  0  0  0  0  0  0  0  0  0  0999 V3000
M  V30 BEGIN CTAB
M  V30 COUNTS 56 60 0 0 0
M  V30 BEGIN ATOM
M  V30 1 C 2.637315 -6.562088 2.403457 0
M  V30 2 C 3.263529 -5.872801 1.240239 0
M  V30 3 C 2.628565 -4.785705 0.673988 0
M  V30 4 C 3.405127 -4.319130 -0.389058 0
M  V30 5 C 3.215903 -3.206019 -1.329137 0
M  V30 6 O 4.003047 -2.892151 -2.251316 0
M  V30 7 N 2.017879 -2.473938 -1.108098 0
M  V30 8 C 1.434958 -1.347474 -1.753436 0
M  V30 9 C 1.704405 -0.041315 -1.356438 0
M  V30 10 C 1.120921 1.034841 -2.005152 0
M  V30 11 O 1.385756 2.352274 -1.613134 0
M  V30 12 C 0.536738 2.892007 -0.641983 0
M  V30 13 C 0.697078 4.180831 -0.174896 0
M  V30 14 C -0.202589 4.610360 0.787586 0
M  V30 15 C -1.223080 3.819541 1.281561 0
M  V30 16 N -2.203079 3.987125 2.189534 0
M  V30 17 C -2.925668 2.851048 2.269849 0
M  V30 18 N -4.054073 2.450259 3.037596 0
M  V30 19 C -4.087032 1.836310 4.295289 0
M  V30 20 O -3.081228 1.528374 4.975328 0
M  V30 21 C -5.460134 1.559251 4.797461 0
M  V30 22 C -6.363839 0.902719 3.735791 0
M  V30 23 C -6.631953 2.275502 4.272491 0
M  V30 24 C -2.368251 1.939134 1.371456 0
M  V30 25 N -1.317906 2.557810 0.771687 0
M  V30 26 N -0.471559 2.115345 -0.151712 0
M  V30 27 C 0.263027 0.774256 -3.058532 0
M  V30 28 C -0.019222 -0.514169 -3.470083 0
M  V30 29 C 0.572761 -1.580337 -2.810532 0
M  V30 30 C 0.289583 -2.979065 -3.229167 0
M  V30 31 N 4.473523 -5.139329 -0.422471 0
M  V30 32 C 5.574898 -5.049715 -1.370952 0
M  V30 33 N 4.395528 -6.057790 0.536232 0
M  V30 34 H 1.538183 -6.647828 2.280810 0
M  V30 35 H 3.129860 -7.540112 2.525876 0
M  V30 36 H 2.824856 -5.986241 3.332697 0
M  V30 37 H 1.683921 -4.283986 0.921971 0
M  V30 38 H 1.308303 -2.679558 -0.352364 0
M  V30 39 H 2.387517 0.142668 -0.518933 0
M  V30 40 H 1.479787 4.810634 -0.542897 0
M  V30 41 H -0.115671 5.611571 1.182302 0
M  V30 42 H -4.891381 2.707118 2.470450 0
M  V30 43 H -5.554131 1.066640 5.803368 0
M  V30 44 H -5.995778 0.859633 2.690895 0
M  V30 45 H -7.000274 0.057655 4.031592 0
M  V30 46 H -7.524276 2.340998 4.926098 0
M  V30 47 H -6.478690 3.177123 3.662565 0
M  V30 48 H -2.657085 0.909605 1.134425 0
M  V30 49 H -0.217923 1.596414 -3.596757 0
M  V30 50 H -0.702862 -0.696307 -4.308125 0
M  V30 51 H 0.361386 -3.711112 -2.420363 0
M  V30 52 H 0.984076 -3.281095 -4.044234 0
M  V30 53 H -0.726929 -3.097748 -3.663383 0
M  V30 54 H 6.403808 -5.702050 -1.072737 0
M  V30 55 H 5.948422 -4.000831 -1.424520 0
M  V30 56 H 5.227454 -5.305014 -2.399336 0
M  V30 END ATOM
M  V30 BEGIN BOND
M  V30 1 1 1 2
M  V30 2 1 2 3
M  V30 3 2 3 4
M  V30 4 1 4 5
M  V30 5 2 5 6
M  V30 6 1 5 7
M  V30 7 1 7 8
M  V30 8 2 8 9
M  V30 9 1 9 10
M  V30 10 1 10 11
M  V30 11 1 11 12
M  V30 12 1 12 13
M  V30 13 2 13 14
M  V30 14 1 14 15
M  V30 15 2 15 16
M  V30 16 1 16 17
M  V30 17 1 17 18
M  V30 18 1 18 19
M  V30 19 2 19 20
M  V30 20 1 19 21
M  V30 21 1 21 22
M  V30 22 1 22 23
M  V30 23 2 17 24
M  V30 24 1 24 25
M  V30 25 1 25 26
M  V30 26 2 10 27
M  V30 27 1 27 28
M  V30 28 2 28 29
M  V30 29 1 29 30
M  V30 30 1 4 31
M  V30 31 1 31 32
M  V30 32 1 31 33
M  V30 33 2 33 2
M  V30 34 1 29 8
M  V30 35 2 26 12
M  V30 36 1 25 15
M  V30 37 1 23 21
M  V30 38 1 1 34
M  V30 39 1 1 35
M  V30 40 1 1 36
M  V30 41 1 3 37
M  V30 42 1 7 38
M  V30 43 1 9 39
M  V30 44 1 13 40
M  V30 45 1 14 41
M  V30 46 1 18 42
M  V30 47 1 21 43
M  V30 48 1 22 44
M  V30 49 1 22 45
M  V30 50 1 23 46
M  V30 51 1 23 47
M  V30 52 1 24 48
M  V30 53 1 27 49
M  V30 54 1 28 50
M  V30 55 1 30 51
M  V30 56 1 30 52
M  V30 57 1 30 53
M  V30 58 1 32 54
M  V30 59 1 32 55
M  V30 60 1 32 56
M  V30 END BOND
M  V30 END CTAB
M  END
>  <Dataset>  (617) 
ChEMBL_Kinases

>  <Ligand_Instance>  (617) 
nan

>  <PDB_ID>  (617) 
nan

>  <Standardized_SMILES>  (617) 
Cc1cc(C(=O)Nc2cc(Oc3ccc4nc(NC(=O)C5CC5)cn4n3)ccc2C)n(C)n1

>  <Name>  (617) 
TAK-593

>  <Pocket>  (617) 
nan

>  <ATP_Site>  (617) 
nan

>  <Peripheral>  (617) 
nan

>  <Num_H_Atoms_ProtBoundConf>  (617) 
nan

>  <Num_Resolved_Atoms>  (617) 
nan

>  <Num_Not_Resolved_Atoms>  (617) 
nan

$$$$
CHEMBL4574721
     RDKit          3D

  0  0  0  0  0  0  0  0  0  0999 V3000
M  V30 BEGIN CTAB
M  V30 COUNTS 52 54 0 0 0
M  V30 BEGIN ATOM
M  V30 1 C 2.005473 -2.361235 5.276350 0
M  V30 2 C 1.927560 -2.223859 3.775552 0
M  V30 3 C 0.581047 -2.770500 3.351307 0
M  V30 4 O 2.957874 -2.995526 3.231929 0
M  V30 5 C 2.068937 -0.759727 3.394632 0
M  V30 6 O 2.036313 -0.576697 2.034897 0
M  V30 7 C 2.161045 0.737268 1.627535 0
M  V30 8 C 2.105733 0.775641 0.085485 0
M  V30 9 C 2.346723 2.241352 -0.299678 0
M  V30 10 C 3.363357 0.014151 -0.328177 0
M  V30 11 N 0.894635 0.258593 -0.365487 0
M  V30 12 C -0.346440 -0.268207 -0.825397 0
M  V30 13 N -1.579718 0.184642 -0.563030 0
M  V30 14 C -2.735202 -0.305199 -0.986749 0
M  V30 15 C -4.002079 0.307899 -0.608740 0
M  V30 16 C -3.989740 1.418942 0.207016 0
M  V30 17 C -5.274474 1.898900 0.486499 0
M  V30 18 N -6.396491 1.344671 0.016518 0
M  V30 19 C -6.346251 0.270304 -0.768837 0
M  V30 20 C -5.122478 -0.308316 -1.124132 0
M  V30 21 N -2.598045 -1.376362 -1.763591 0
M  V30 22 C -1.447928 -1.957743 -2.124837 0
M  V30 23 C -1.566582 -3.062886 -2.941740 0
M  V30 24 N -0.394104 -3.649745 -3.306725 0
M  V30 25 C 0.785391 -3.161785 -2.883275 0
M  V30 26 C 0.825714 -2.053768 -2.068629 0
M  V30 27 C -0.296038 -1.380243 -1.637159 0
M  V30 28 H 3.043604 -2.449229 5.650647 0
M  V30 29 H 1.460787 -1.523364 5.744219 0
M  V30 30 H 1.475476 -3.310717 5.538242 0
M  V30 31 H 0.315770 -2.302496 2.403563 0
M  V30 32 H 0.642746 -3.853021 3.212783 0
M  V30 33 H -0.170552 -2.448900 4.095950 0
M  V30 34 H 2.914837 -3.074465 2.262884 0
M  V30 35 H 1.243497 -0.229470 3.933493 0
M  V30 36 H 3.056633 -0.428504 3.783737 0
M  V30 37 H 1.247102 1.271099 1.946584 0
M  V30 38 H 3.080463 1.226003 1.987758 0
M  V30 39 H 1.776591 2.875293 0.410041 0
M  V30 40 H 3.450470 2.425544 -0.144826 0
M  V30 41 H 2.061744 2.411634 -1.355881 0
M  V30 42 H 4.202472 0.633516 0.049857 0
M  V30 43 H 3.443264 -0.969253 0.178378 0
M  V30 44 H 3.477025 -0.017050 -1.416792 0
M  V30 45 H 0.475929 1.072143 0.184531 0
M  V30 46 H -3.097501 1.866557 0.585846 0
M  V30 47 H -5.355877 2.780568 1.128766 0
M  V30 48 H -7.264398 -0.169229 -1.143205 0
M  V30 49 H -5.045729 -1.185002 -1.762987 0
M  V30 50 H -2.531391 -3.425311 -3.261310 0
M  V30 51 H 1.722209 -3.636346 -3.179168 0
M  V30 52 H 1.774939 -1.677110 -1.740960 0
M  V30 END ATOM
M  V30 BEGIN BOND
M  V30 1 1 1 2
M  V30 2 1 2 3
M  V30 3 1 2 4
M  V30 4 1 2 5
M  V30 5 1 5 6
M  V30 6 1 6 7
M  V30 7 1 7 8
M  V30 8 1 8 9
M  V30 9 1 8 10
M  V30 10 1 8 11
M  V30 11 1 11 12
M  V30 12 2 12 13
M  V30 13 1 13 14
M  V30 14 1 14 15
M  V30 15 2 15 16
M  V30 16 1 16 17
M  V30 17 2 17 18
M  V30 18 1 18 19
M  V30 19 2 19 20
M  V30 20 2 14 21
M  V30 21 1 21 22
M  V30 22 2 22 23
M  V30 23 1 23 24
M  V30 24 2 24 25
M  V30 25 1 25 26
M  V30 26 2 26 27
M  V30 27 1 27 12
M  V30 28 1 20 15
M  V30 29 1 27 22
M  V30 30 1 1 28
M  V30 31 1 1 29
M  V30 32 1 1 30
M  V30 33 1 3 31
M  V30 34 1 3 32
M  V30 35 1 3 33
M  V30 36 1 4 34
M  V30 37 1 5 35
M  V30 38 1 5 36
M  V30 39 1 7 37
M  V30 40 1 7 38
M  V30 41 1 9 39
M  V30 42 1 9 40
M  V30 43 1 9 41
M  V30 44 1 10 42
M  V30 45 1 10 43
M  V30 46 1 10 44
M  V30 47 1 11 45
M  V30 48 1 16 46
M  V30 49 1 17 47
M  V30 50 1 19 48
M  V30 51 1 20 49
M  V30 52 1 23 50
M  V30 53 1 25 51
M  V30 54 1 26 52
M  V30 END BOND
M  V30 END CTAB
M  END
>  <Dataset>  (618) 
ChEMBL_Kinases

>  <Ligand_Instance>  (618) 
nan

>  <PDB_ID>  (618) 
nan

>  <Standardized_SMILES>  (618) 
CC(C)(O)COCC(C)(C)Nc1nc(-c2ccncc2)nc2cnccc12

>  <Name>  (618) 
nan

>  <Pocket>  (618) 
nan

>  <ATP_Site>  (618) 
nan

>  <Peripheral>  (618) 
nan

>  <Num_H_Atoms_ProtBoundConf>  (618) 
nan

>  <Num_Resolved_Atoms>  (618) 
nan

>  <Num_Not_Resolved_Atoms>  (618) 
nan

$$$$
CHEMBL3702094
     RDKit          3D

  0  0  0  0  0  0  0  0  0  0999 V3000
M  V30 BEGIN CTAB
M  V30 COUNTS 63 68 0 0 0
M  V30 BEGIN ATOM
M  V30 1 C 4.349927 -0.788279 5.184454 0
M  V30 2 C 3.729802 -2.172500 5.392799 0
M  V30 3 C 3.591101 -2.943197 4.109154 0
M  V30 4 N 2.369852 -2.574048 3.430947 0
M  V30 5 C 2.256801 -1.954526 2.154647 0
M  V30 6 C 1.129607 -1.318572 1.678432 0
M  V30 7 C 1.102981 -0.752862 0.419134 0
M  V30 8 C 2.194872 -0.797047 -0.418375 0
M  V30 9 N 2.113748 -0.189313 -1.704824 0
M  V30 10 C 0.905106 0.486536 -2.009158 0
M  V30 11 N 1.175171 1.826395 -2.063585 0
M  V30 12 C 0.150168 2.691417 -2.337822 0
M  V30 13 C -1.124158 2.178364 -2.549603 0
M  V30 14 C -2.343334 2.797982 -2.841602 0
M  V30 15 C -2.566493 4.144157 -2.998532 0
M  V30 16 C -3.886651 4.476688 -3.291115 0
M  V30 17 N -4.850275 3.548400 -3.406712 0
M  V30 18 C -4.565456 2.240057 -3.240224 0
M  V30 19 F -5.522802 1.286908 -3.353046 0
M  V30 20 C -3.284031 1.794298 -2.946348 0
M  V30 21 N -2.675764 0.607001 -2.729104 0
M  V30 22 C -3.399629 -0.619028 -2.763396 0
M  V30 23 C -2.724685 -1.739893 -2.005817 0
M  V30 24 C -3.575777 -2.928932 -2.398553 0
M  V30 25 C -4.136682 -2.594846 -3.766045 0
M  V30 26 C -3.544709 -1.229735 -4.140341 0
M  V30 27 C -1.374412 0.805581 -2.488000 0
M  V30 28 N -0.341714 -0.010172 -2.216879 0
M  V30 29 N 3.287041 -1.423215 0.065059 0
M  V30 30 C 3.333681 -1.981197 1.291813 0
M  V30 31 C 1.271702 -2.958459 4.274689 0
M  V30 32 C 1.330738 -2.536633 5.686032 0
M  V30 33 C 0.247331 -1.507322 5.937125 0
M  V30 34 N 2.557002 -2.014214 6.159979 0
M  V30 35 H 4.641108 -0.449265 6.198327 0
M  V30 36 H 3.598376 -0.067140 4.791090 0
M  V30 37 H 5.267054 -0.854555 4.551336 0
M  V30 38 H 4.492244 -2.710021 6.007548 0
M  V30 39 H 4.490303 -2.734080 3.495904 0
M  V30 40 H 3.591176 -4.021483 4.350466 0
M  V30 41 H 0.266834 -1.268765 2.296818 0
M  V30 42 H 0.170852 -0.267823 0.116125 0
M  V30 43 H 2.963870 -0.307156 -2.296509 0
M  V30 44 H 0.334244 3.778158 -2.387028 0
M  V30 45 H -1.813733 4.901301 -2.911231 0
M  V30 46 H -4.182897 5.491698 -3.436740 0
M  V30 47 H -4.427659 -0.541901 -2.350352 0
M  V30 48 H -1.711144 -1.951138 -2.426886 0
M  V30 49 H -2.681447 -1.573655 -0.911227 0
M  V30 50 H -4.371954 -3.035674 -1.658290 0
M  V30 51 H -2.924507 -3.845117 -2.450799 0
M  V30 52 H -3.910328 -3.368202 -4.512597 0
M  V30 53 H -5.232541 -2.465560 -3.690904 0
M  V30 54 H -2.543487 -1.443914 -4.574520 0
M  V30 55 H -4.228574 -0.690278 -4.806016 0
M  V30 56 H 4.287422 -2.436447 1.508637 0
M  V30 57 H 0.330889 -2.660691 3.770417 0
M  V30 58 H 1.250459 -4.089517 4.217165 0
M  V30 59 H 1.077766 -3.412194 6.351688 0
M  V30 60 H -0.486626 -1.469033 5.106339 0
M  V30 61 H -0.283308 -1.715040 6.908195 0
M  V30 62 H 0.718203 -0.515809 6.086445 0
M  V30 63 H 2.481887 -1.059059 6.561708 0
M  V30 END ATOM
M  V30 BEGIN BOND
M  V30 1 1 1 2
M  V30 2 1 2 3
M  V30 3 1 3 4
M  V30 4 1 4 5
M  V30 5 2 5 6
M  V30 6 1 6 7
M  V30 7 2 7 8
M  V30 8 1 8 9
M  V30 9 1 9 10
M  V30 10 2 10 11
M  V30 11 1 11 12
M  V30 12 2 12 13
M  V30 13 1 13 14
M  V30 14 2 14 15
M  V30 15 1 15 16
M  V30 16 2 16 17
M  V30 17 1 17 18
M  V30 18 1 18 19
M  V30 19 2 18 20
M  V30 20 1 20 21
M  V30 21 1 21 22
M  V30 22 1 22 23
M  V30 23 1 23 24
M  V30 24 1 24 25
M  V30 25 1 25 26
M  V30 26 1 21 27
M  V30 27 2 27 28
M  V30 28 1 8 29
M  V30 29 2 29 30
M  V30 30 1 4 31
M  V30 31 1 31 32
M  V30 32 1 32 33
M  V30 33 1 32 34
M  V30 34 1 34 2
M  V30 35 1 30 5
M  V30 36 1 28 10
M  V30 37 1 27 13
M  V30 38 1 20 14
M  V30 39 1 26 22
M  V30 40 1 1 35
M  V30 41 1 1 36
M  V30 42 1 1 37
M  V30 43 1 2 38
M  V30 44 1 3 39
M  V30 45 1 3 40
M  V30 46 1 6 41
M  V30 47 1 7 42
M  V30 48 1 9 43
M  V30 49 1 12 44
M  V30 50 1 15 45
M  V30 51 1 16 46
M  V30 52 1 22 47
M  V30 53 1 23 48
M  V30 54 1 23 49
M  V30 55 1 24 50
M  V30 56 1 24 51
M  V30 57 1 25 52
M  V30 58 1 25 53
M  V30 59 1 26 54
M  V30 60 1 26 55
M  V30 61 1 30 56
M  V30 62 1 31 57
M  V30 63 1 31 58
M  V30 64 1 32 59
M  V30 65 1 33 60
M  V30 66 1 33 61
M  V30 67 1 33 62
M  V30 68 1 34 63
M  V30 END BOND
M  V30 END CTAB
M  END
>  <Dataset>  (619) 
ChEMBL_Kinases

>  <Ligand_Instance>  (619) 
nan

>  <PDB_ID>  (619) 
nan

>  <Standardized_SMILES>  (619) 
CC1CN(c2ccc(Nc3ncc4c5ccnc(F)c5n(C5CCCC5)c4n3)nc2)CC(C)N1

>  <Name>  (619) 
nan

>  <Pocket>  (619) 
nan

>  <ATP_Site>  (619) 
nan

>  <Peripheral>  (619) 
nan

>  <Num_H_Atoms_ProtBoundConf>  (619) 
nan

>  <Num_Resolved_Atoms>  (619) 
nan

>  <Num_Not_Resolved_Atoms>  (619) 
nan

$$$$
CHEMBL3702089
     RDKit          3D

  0  0  0  0  0  0  0  0  0  0999 V3000
M  V30 BEGIN CTAB
M  V30 COUNTS 61 66 0 0 0
M  V30 BEGIN ATOM
M  V30 1 C 3.754054 -6.029955 0.694095 0
M  V30 2 N 3.980113 -4.890160 1.553795 0
M  V30 3 C 4.719702 -5.007985 2.699853 0
M  V30 4 O 5.190972 -6.152591 2.957835 0
M  V30 5 C 5.000990 -4.008968 3.595761 0
M  V30 6 C 4.474228 -2.782988 3.282172 0
M  V30 7 C 3.728147 -2.656352 2.129286 0
M  V30 8 C 3.134986 -1.513653 1.675005 0
M  V30 9 C 3.071056 -0.197984 2.155437 0
M  V30 10 N 2.378887 0.703362 1.437894 0
M  V30 11 C 1.752131 0.371200 0.278041 0
M  V30 12 N 1.071066 1.446623 -0.346018 0
M  V30 13 C -0.292277 1.778739 -0.102434 0
M  V30 14 C -1.089971 1.063798 0.764005 0
M  V30 15 C -2.394692 1.480012 0.930541 0
M  V30 16 C -2.979944 2.568523 0.294041 0
M  V30 17 N -4.308153 2.974012 0.477675 0
M  V30 18 C -5.315446 2.289057 1.248221 0
M  V30 19 C -6.101339 3.238057 2.130745 0
M  V30 20 N -6.505001 4.429852 1.418214 0
M  V30 21 C -6.198523 4.343557 0.004248 0
M  V30 22 C -4.705246 4.231312 -0.182828 0
M  V30 23 C -2.114984 3.214196 -0.543262 0
M  V30 24 N -0.825233 2.833541 -0.732850 0
M  V30 25 N 1.844219 -0.894097 -0.133669 0
M  V30 26 C 2.498492 -1.881433 0.484546 0
M  V30 27 N 2.680823 -3.189043 0.201696 0
M  V30 28 C 2.220668 -3.977398 -0.894238 0
M  V30 29 C 2.116386 -3.040336 -2.115490 0
M  V30 30 C 1.328156 -3.977366 -3.048649 0
M  V30 31 C 0.116986 -4.172055 -2.128395 0
M  V30 32 C 0.810525 -4.479059 -0.806597 0
M  V30 33 C 3.447343 -3.668134 1.229797 0
M  V30 34 H 2.708922 -6.262712 0.485519 0
M  V30 35 H 4.459206 -6.112681 -0.155262 0
M  V30 36 H 4.074566 -6.930498 1.320353 0
M  V30 37 H 5.591806 -4.207309 4.463401 0
M  V30 38 H 4.665054 -1.958083 3.954771 0
M  V30 39 H 3.570015 0.052829 3.072811 0
M  V30 40 H 1.644051 1.985416 -1.005314 0
M  V30 41 H -0.697723 0.205682 1.293160 0
M  V30 42 H -2.973666 0.883293 1.618780 0
M  V30 43 H -4.832296 1.570515 1.937718 0
M  V30 44 H -5.999481 1.679527 0.624506 0
M  V30 45 H -5.529720 3.434567 3.038583 0
M  V30 46 H -7.039518 2.714296 2.416407 0
M  V30 47 H -7.455605 4.765384 1.628365 0
M  V30 48 H -6.645468 3.395587 -0.367410 0
M  V30 49 H -6.528291 5.236863 -0.550458 0
M  V30 50 H -4.213552 5.022522 0.451143 0
M  V30 51 H -4.415339 4.270330 -1.235488 0
M  V30 52 H -2.395471 4.076332 -1.115474 0
M  V30 53 H 2.945128 -4.728576 -1.275309 0
M  V30 54 H 3.081734 -2.746631 -2.512328 0
M  V30 55 H 1.402277 -2.218874 -1.921461 0
M  V30 56 H 1.855772 -4.933016 -3.088907 0
M  V30 57 H 1.073995 -3.512772 -3.999586 0
M  V30 58 H -0.403351 -3.200155 -2.096030 0
M  V30 59 H -0.541152 -4.980463 -2.462213 0
M  V30 60 H 0.808577 -5.586385 -0.754062 0
M  V30 61 H 0.272596 -4.021886 0.060741 0
M  V30 END ATOM
M  V30 BEGIN BOND
M  V30 1 1 1 2
M  V30 2 1 2 3
M  V30 3 2 3 4
M  V30 4 1 3 5
M  V30 5 2 5 6
M  V30 6 1 6 7
M  V30 7 1 7 8
M  V30 8 2 8 9
M  V30 9 1 9 10
M  V30 10 2 10 11
M  V30 11 1 11 12
M  V30 12 1 12 13
M  V30 13 2 13 14
M  V30 14 1 14 15
M  V30 15 2 15 16
M  V30 16 1 16 17
M  V30 17 1 17 18
M  V30 18 1 18 19
M  V30 19 1 19 20
M  V30 20 1 20 21
M  V30 21 1 21 22
M  V30 22 1 16 23
M  V30 23 2 23 24
M  V30 24 1 11 25
M  V30 25 2 25 26
M  V30 26 1 26 27
M  V30 27 1 27 28
M  V30 28 1 28 29
M  V30 29 1 29 30
M  V30 30 1 30 31
M  V30 31 1 31 32
M  V30 32 1 27 33
M  V30 33 1 33 2
M  V30 34 2 33 7
M  V30 35 1 26 8
M  V30 36 1 32 28
M  V30 37 1 24 13
M  V30 38 1 22 17
M  V30 39 1 1 34
M  V30 40 1 1 35
M  V30 41 1 1 36
M  V30 42 1 5 37
M  V30 43 1 6 38
M  V30 44 1 9 39
M  V30 45 1 12 40
M  V30 46 1 14 41
M  V30 47 1 15 42
M  V30 48 1 18 43
M  V30 49 1 18 44
M  V30 50 1 19 45
M  V30 51 1 19 46
M  V30 52 1 20 47
M  V30 53 1 21 48
M  V30 54 1 21 49
M  V30 55 1 22 50
M  V30 56 1 22 51
M  V30 57 1 23 52
M  V30 58 1 28 53
M  V30 59 1 29 54
M  V30 60 1 29 55
M  V30 61 1 30 56
M  V30 62 1 30 57
M  V30 63 1 31 58
M  V30 64 1 31 59
M  V30 65 1 32 60
M  V30 66 1 32 61
M  V30 END BOND
M  V30 END CTAB
M  END
>  <Dataset>  (620) 
ChEMBL_Kinases

>  <Ligand_Instance>  (620) 
nan

>  <PDB_ID>  (620) 
nan

>  <Standardized_SMILES>  (620) 
Cn1c(=O)ccc2c3cnc(Nc4ccc(N5CCNCC5)cn4)nc3n(C3CCCC3)c21

>  <Name>  (620) 
nan

>  <Pocket>  (620) 
nan

>  <ATP_Site>  (620) 
nan

>  <Peripheral>  (620) 
nan

>  <Num_H_Atoms_ProtBoundConf>  (620) 
nan

>  <Num_Resolved_Atoms>  (620) 
nan

>  <Num_Not_Resolved_Atoms>  (620) 
nan

$$$$
CHEMBL3716788
     RDKit          3D

  0  0  0  0  0  0  0  0  0  0999 V3000
M  V30 BEGIN CTAB
M  V30 COUNTS 62 64 0 0 0
M  V30 BEGIN ATOM
M  V30 1 C 2.102658 0.902335 8.474642 0
M  V30 2 C 3.413661 0.157894 8.344510 0
M  V30 3 C 3.325748 -0.933819 7.308986 0
M  V30 4 C 2.984684 -0.372690 5.943698 0
M  V30 5 C 2.904450 -1.470484 4.943562 0
M  V30 6 O 2.598057 -1.092522 3.644418 0
M  V30 7 C 1.472118 -0.503140 3.189515 0
M  V30 8 C 1.647346 -0.302585 1.805583 0
M  V30 9 C 0.658434 0.293819 1.008959 0
M  V30 10 C -0.523685 0.703902 1.563562 0
M  V30 11 C -1.640836 1.334203 0.871516 0
M  V30 12 O -2.727391 1.693364 1.395232 0
M  V30 13 N -1.581291 1.601794 -0.515102 0
M  V30 14 C -2.580450 2.212817 -1.369695 0
M  V30 15 C -1.934660 3.432872 -2.003992 0
M  V30 16 C -2.929358 1.275112 -2.481279 0
M  V30 17 O -3.757237 1.498189 -3.401882 0
M  V30 18 N -2.310632 0.021756 -2.555485 0
M  V30 19 C -2.327741 -1.144788 -3.397510 0
M  V30 20 C -2.755668 -2.389266 -2.692089 0
M  V30 21 C -3.222111 -3.354637 -3.792436 0
M  V30 22 C -2.033304 -3.753687 -4.609900 0
M  V30 23 C -1.850886 -4.946968 -5.271808 0
M  V30 24 C -0.701686 -5.189981 -5.992983 0
M  V30 25 C 0.284138 -4.208048 -6.047454 0
M  V30 26 C 0.084583 -3.007281 -5.373065 0
M  V30 27 C -1.075717 -2.764593 -4.646095 0
M  V30 28 C -0.989093 -1.407818 -4.049648 0
M  V30 29 C -0.722131 0.519876 2.914452 0
M  V30 30 C 0.262571 -0.067023 3.672112 0
M  V30 31 H 1.289178 0.294510 8.012322 0
M  V30 32 H 2.186179 1.849419 7.920873 0
M  V30 33 H 1.846294 1.071459 9.543206 0
M  V30 34 H 3.602523 -0.321147 9.328668 0
M  V30 35 H 4.201636 0.862722 8.050821 0
M  V30 36 H 2.533527 -1.630613 7.671602 0
M  V30 37 H 4.260319 -1.491949 7.305545 0
M  V30 38 H 2.039035 0.177308 6.008413 0
M  V30 39 H 3.791541 0.368317 5.712364 0
M  V30 40 H 3.857283 -2.076330 4.906161 0
M  V30 41 H 2.074191 -2.165331 5.270963 0
M  V30 42 H 2.496881 -0.548601 1.163247 0
M  V30 43 H 0.719254 0.479341 -0.047555 0
M  V30 44 H -0.765202 1.377684 -1.102630 0
M  V30 45 H -3.493123 2.493697 -0.799509 0
M  V30 46 H -2.653697 3.948708 -2.669145 0
M  V30 47 H -1.585995 4.139570 -1.224353 0
M  V30 48 H -1.033308 3.097743 -2.557403 0
M  V30 49 H -1.589781 -0.315312 -1.850346 0
M  V30 50 H -3.051248 -0.982371 -4.226788 0
M  V30 51 H -3.531227 -2.236742 -1.939753 0
M  V30 52 H -1.859943 -2.874700 -2.234972 0
M  V30 53 H -3.871060 -2.744475 -4.471699 0
M  V30 54 H -3.741204 -4.214881 -3.343038 0
M  V30 55 H -2.693787 -5.643275 -5.157232 0
M  V30 56 H -0.660902 -6.152510 -6.470058 0
M  V30 57 H 1.139469 -4.485830 -6.629601 0
M  V30 58 H 0.956630 -2.363544 -5.528094 0
M  V30 59 H -0.189321 -1.366465 -3.262901 0
M  V30 60 H -0.734960 -0.635956 -4.803962 0
M  V30 61 H -1.596389 0.787865 3.499951 0
M  V30 62 H 0.181451 -0.259154 4.728288 0
M  V30 END ATOM
M  V30 BEGIN BOND
M  V30 1 1 1 2
M  V30 2 1 2 3
M  V30 3 1 3 4
M  V30 4 1 4 5
M  V30 5 1 5 6
M  V30 6 1 6 7
M  V30 7 2 7 8
M  V30 8 1 8 9
M  V30 9 2 9 10
M  V30 10 1 10 11
M  V30 11 2 11 12
M  V30 12 1 11 13
M  V30 13 1 13 14
M  V30 14 1 14 15
M  V30 15 1 14 16
M  V30 16 2 16 17
M  V30 17 1 16 18
M  V30 18 1 18 19
M  V30 19 1 19 20
M  V30 20 1 20 21
M  V30 21 1 21 22
M  V30 22 2 22 23
M  V30 23 1 23 24
M  V30 24 2 24 25
M  V30 25 1 25 26
M  V30 26 2 26 27
M  V30 27 1 27 28
M  V30 28 1 10 29
M  V30 29 2 29 30
M  V30 30 1 30 7
M  V30 31 1 28 19
M  V30 32 1 27 22
M  V30 33 1 1 31
M  V30 34 1 1 32
M  V30 35 1 1 33
M  V30 36 1 2 34
M  V30 37 1 2 35
M  V30 38 1 3 36
M  V30 39 1 3 37
M  V30 40 1 4 38
M  V30 41 1 4 39
M  V30 42 1 5 40
M  V30 43 1 5 41
M  V30 44 1 8 42
M  V30 45 1 9 43
M  V30 46 1 13 44
M  V30 47 1 14 45
M  V30 48 1 15 46
M  V30 49 1 15 47
M  V30 50 1 15 48
M  V30 51 1 18 49
M  V30 52 1 19 50
M  V30 53 1 20 51
M  V30 54 1 20 52
M  V30 55 1 21 53
M  V30 56 1 21 54
M  V30 57 1 23 55
M  V30 58 1 24 56
M  V30 59 1 25 57
M  V30 60 1 26 58
M  V30 61 1 28 59
M  V30 62 1 28 60
M  V30 63 1 29 61
M  V30 64 1 30 62
M  V30 END BOND
M  V30 END CTAB
M  END
>  <Dataset>  (621) 
ChEMBL_Kinases

>  <Ligand_Instance>  (621) 
nan

>  <PDB_ID>  (621) 
nan

>  <Standardized_SMILES>  (621) 
CCCCCOc1ccc(C(=O)NC(C)C(=O)NC2CCc3ccccc3C2)cc1

>  <Name>  (621) 
nan

>  <Pocket>  (621) 
nan

>  <ATP_Site>  (621) 
nan

>  <Peripheral>  (621) 
nan

>  <Num_H_Atoms_ProtBoundConf>  (621) 
nan

>  <Num_Resolved_Atoms>  (621) 
nan

>  <Num_Not_Resolved_Atoms>  (621) 
nan

$$$$
CHEMBL3702088
     RDKit          3D

  0  0  0  0  0  0  0  0  0  0999 V3000
M  V30 BEGIN CTAB
M  V30 COUNTS 58 63 0 0 0
M  V30 BEGIN ATOM
M  V30 1 O 1.611389 -8.346081 1.365608 0
M  V30 2 C 1.823215 -6.987610 1.584696 0
M  V30 3 C 2.175514 -6.541962 2.865001 0
M  V30 4 C 2.383609 -5.172580 3.058679 0
M  V30 5 C 2.218219 -4.394887 1.960353 0
M  V30 6 C 2.356103 -3.029147 1.857413 0
M  V30 7 C 2.680340 -2.023420 2.749789 0
M  V30 8 N 2.732051 -0.749522 2.337436 0
M  V30 9 C 2.473571 -0.387857 1.050715 0
M  V30 10 N 2.594330 1.022331 0.912404 0
M  V30 11 C 1.408683 1.837208 0.757733 0
M  V30 12 C 1.499001 3.214215 0.668745 0
M  V30 13 C 0.334557 3.926651 0.494320 0
M  V30 14 C -0.900018 3.324791 0.407296 0
M  V30 15 N -2.146774 3.984099 0.229738 0
M  V30 16 C -3.415823 3.417063 -0.202537 0
M  V30 17 C -4.533714 3.667733 0.752016 0
M  V30 18 N -4.053694 4.329736 1.946125 0
M  V30 19 C -3.407693 5.586012 1.577306 0
M  V30 20 C -2.385216 5.401893 0.469761 0
M  V30 21 C -0.951193 1.925758 0.502719 0
M  V30 22 N 0.195846 1.200535 0.675752 0
M  V30 23 N 2.155371 -1.340975 0.158925 0
M  V30 24 C 2.090320 -2.654803 0.535052 0
M  V30 25 N 1.796311 -3.764972 -0.155730 0
M  V30 26 C 1.461845 -3.733537 -1.546034 0
M  V30 27 C 0.908606 -5.025259 -2.090652 0
M  V30 28 C -0.582317 -4.907553 -1.811046 0
M  V30 29 C -0.830428 -3.504239 -2.357521 0
M  V30 30 C 0.351903 -2.737140 -1.844634 0
M  V30 31 C 1.872267 -4.805405 0.688851 0
M  V30 32 N 1.686377 -6.126168 0.561821 0
M  V30 33 H 0.966321 -8.871761 1.950725 0
M  V30 34 H 2.261942 -7.312404 3.632185 0
M  V30 35 H 2.651957 -4.852557 4.034425 0
M  V30 36 H 2.889539 -2.320853 3.784849 0
M  V30 37 H 3.515893 1.528860 0.914999 0
M  V30 38 H 2.440456 3.720598 0.732043 0
M  V30 39 H 0.334443 4.993792 0.406564 0
M  V30 40 H -3.672317 3.860405 -1.219864 0
M  V30 41 H -3.238652 2.347571 -0.411215 0
M  V30 42 H -5.032579 2.714920 1.061134 0
M  V30 43 H -5.285807 4.344086 0.263780 0
M  V30 44 H -3.412104 3.695787 2.438719 0
M  V30 45 H -4.212877 6.274269 1.249718 0
M  V30 46 H -2.929473 5.974531 2.504122 0
M  V30 47 H -1.439987 5.903714 0.711239 0
M  V30 48 H -2.766409 5.854155 -0.461437 0
M  V30 49 H -1.795039 1.265986 0.464125 0
M  V30 50 H 2.311245 -3.457453 -2.205223 0
M  V30 51 H 1.375705 -5.936356 -1.754481 0
M  V30 52 H 0.980561 -5.035766 -3.212806 0
M  V30 53 H -0.825424 -4.872991 -0.742489 0
M  V30 54 H -1.151206 -5.652610 -2.363144 0
M  V30 55 H -0.800493 -3.598628 -3.459197 0
M  V30 56 H -1.766431 -3.086620 -1.970768 0
M  V30 57 H 0.635998 -2.015827 -2.650967 0
M  V30 58 H 0.106785 -2.107608 -0.969869 0
M  V30 END ATOM
M  V30 BEGIN BOND
M  V30 1 1 1 2
M  V30 2 2 2 3
M  V30 3 1 3 4
M  V30 4 2 4 5
M  V30 5 1 5 6
M  V30 6 2 6 7
M  V30 7 1 7 8
M  V30 8 2 8 9
M  V30 9 1 9 10
M  V30 10 1 10 11
M  V30 11 2 11 12
M  V30 12 1 12 13
M  V30 13 2 13 14
M  V30 14 1 14 15
M  V30 15 1 15 16
M  V30 16 1 16 17
M  V30 17 1 17 18
M  V30 18 1 18 19
M  V30 19 1 19 20
M  V30 20 1 14 21
M  V30 21 2 21 22
M  V30 22 1 9 23
M  V30 23 2 23 24
M  V30 24 1 24 25
M  V30 25 1 25 26
M  V30 26 1 26 27
M  V30 27 1 27 28
M  V30 28 1 28 29
M  V30 29 1 29 30
M  V30 30 1 25 31
M  V30 31 2 31 32
M  V30 32 1 32 2
M  V30 33 1 31 5
M  V30 34 1 24 6
M  V30 35 1 30 26
M  V30 36 1 22 11
M  V30 37 1 20 15
M  V30 38 1 1 33
M  V30 39 1 3 34
M  V30 40 1 4 35
M  V30 41 1 7 36
M  V30 42 1 10 37
M  V30 43 1 12 38
M  V30 44 1 13 39
M  V30 45 1 16 40
M  V30 46 1 16 41
M  V30 47 1 17 42
M  V30 48 1 17 43
M  V30 49 1 18 44
M  V30 50 1 19 45
M  V30 51 1 19 46
M  V30 52 1 20 47
M  V30 53 1 20 48
M  V30 54 1 21 49
M  V30 55 1 26 50
M  V30 56 1 27 51
M  V30 57 1 27 52
M  V30 58 1 28 53
M  V30 59 1 28 54
M  V30 60 1 29 55
M  V30 61 1 29 56
M  V30 62 1 30 57
M  V30 63 1 30 58
M  V30 END BOND
M  V30 END CTAB
M  END
>  <Dataset>  (622) 
ChEMBL_Kinases

>  <Ligand_Instance>  (622) 
nan

>  <PDB_ID>  (622) 
nan

>  <Standardized_SMILES>  (622) 
Oc1ccc2c3cnc(Nc4ccc(N5CCNCC5)cn4)nc3n(C3CCCC3)c2n1

>  <Name>  (622) 
nan

>  <Pocket>  (622) 
nan

>  <ATP_Site>  (622) 
nan

>  <Peripheral>  (622) 
nan

>  <Num_H_Atoms_ProtBoundConf>  (622) 
nan

>  <Num_Resolved_Atoms>  (622) 
nan

>  <Num_Not_Resolved_Atoms>  (622) 
nan

$$$$
CHEMBL3702087
     RDKit          3D

  0  0  0  0  0  0  0  0  0  0999 V3000
M  V30 BEGIN CTAB
M  V30 COUNTS 61 66 0 0 0
M  V30 BEGIN ATOM
M  V30 1 C 2.826276 -5.980012 3.909124 0
M  V30 2 O 3.645199 -4.917650 4.332583 0
M  V30 3 C 3.591221 -3.704102 3.635507 0
M  V30 4 C 4.378323 -2.602169 3.998183 0
M  V30 5 C 4.304462 -1.419560 3.293931 0
M  V30 6 C 3.461455 -1.283867 2.219035 0
M  V30 7 C 3.081224 -0.355046 1.280640 0
M  V30 8 C 3.559479 0.933238 1.181246 0
M  V30 9 N 3.052901 1.704321 0.175503 0
M  V30 10 C 2.134141 1.217330 -0.668206 0
M  V30 11 N 1.405289 1.731261 -1.775964 0
M  V30 12 C 0.041296 2.024601 -1.505528 0
M  V30 13 C -0.501808 1.829855 -0.238492 0
M  V30 14 C -1.845401 2.075458 0.064244 0
M  V30 15 C -2.620350 2.531130 -0.983412 0
M  V30 16 N -3.991077 2.769445 -0.694832 0
M  V30 17 C -4.584121 2.855389 0.601948 0
M  V30 18 C -5.590697 1.748471 0.848113 0
M  V30 19 N -6.518813 1.594999 -0.249581 0
M  V30 20 C -5.894380 1.647337 -1.540900 0
M  V30 21 C -5.063065 2.938851 -1.667498 0
M  V30 22 C -2.105505 2.733032 -2.244023 0
M  V30 23 N -0.801648 2.473313 -2.455576 0
M  V30 24 N 1.679777 -0.064637 -0.542740 0
M  V30 25 C 2.134506 -0.896723 0.433038 0
M  V30 26 N 1.925334 -2.171625 0.850046 0
M  V30 27 C 0.952792 -2.920331 0.096661 0
M  V30 28 C 1.383823 -3.201085 -1.330082 0
M  V30 29 C 2.275485 -4.417940 -1.130053 0
M  V30 30 C 1.522060 -5.248202 -0.090453 0
M  V30 31 C 0.643809 -4.272635 0.621203 0
M  V30 32 C 2.708179 -2.407545 1.907996 0
M  V30 33 N 2.762026 -3.569000 2.577793 0
M  V30 34 H 3.373634 -6.921101 3.701946 0
M  V30 35 H 2.065232 -6.245694 4.682833 0
M  V30 36 H 2.301079 -5.717465 2.944064 0
M  V30 37 H 5.031018 -2.727491 4.842506 0
M  V30 38 H 4.899235 -0.555376 3.550727 0
M  V30 39 H 4.283932 1.377009 1.816481 0
M  V30 40 H 1.795072 1.895860 -2.722598 0
M  V30 41 H 0.148660 1.467479 0.574519 0
M  V30 42 H -2.143091 1.884452 1.086453 0
M  V30 43 H -3.873528 2.858878 1.450037 0
M  V30 44 H -5.149646 3.826918 0.681216 0
M  V30 45 H -6.194012 2.013036 1.739036 0
M  V30 46 H -5.100529 0.773325 1.068284 0
M  V30 47 H -6.985862 0.682496 -0.138201 0
M  V30 48 H -6.633634 1.582491 -2.336962 0
M  V30 49 H -5.126862 0.836106 -1.676409 0
M  V30 50 H -5.667176 3.840417 -1.483386 0
M  V30 51 H -4.714619 2.971619 -2.710794 0
M  V30 52 H -2.720475 3.093180 -3.055330 0
M  V30 53 H -0.001498 -2.336932 0.009948 0
M  V30 54 H 0.478475 -3.499245 -1.882648 0
M  V30 55 H 1.877970 -2.362588 -1.815780 0
M  V30 56 H 2.368449 -5.000751 -2.053808 0
M  V30 57 H 3.262420 -4.089694 -0.759993 0
M  V30 58 H 0.933006 -6.044970 -0.596136 0
M  V30 59 H 2.266566 -5.760673 0.532275 0
M  V30 60 H -0.421925 -4.519041 0.352606 0
M  V30 61 H 0.668104 -4.358761 1.725093 0
M  V30 END ATOM
M  V30 BEGIN BOND
M  V30 1 1 1 2
M  V30 2 1 2 3
M  V30 3 2 3 4
M  V30 4 1 4 5
M  V30 5 2 5 6
M  V30 6 1 6 7
M  V30 7 2 7 8
M  V30 8 1 8 9
M  V30 9 2 9 10
M  V30 10 1 10 11
M  V30 11 1 11 12
M  V30 12 2 12 13
M  V30 13 1 13 14
M  V30 14 2 14 15
M  V30 15 1 15 16
M  V30 16 1 16 17
M  V30 17 1 17 18
M  V30 18 1 18 19
M  V30 19 1 19 20
M  V30 20 1 20 21
M  V30 21 1 15 22
M  V30 22 2 22 23
M  V30 23 1 10 24
M  V30 24 2 24 25
M  V30 25 1 25 26
M  V30 26 1 26 27
M  V30 27 1 27 28
M  V30 28 1 28 29
M  V30 29 1 29 30
M  V30 30 1 30 31
M  V30 31 1 26 32
M  V30 32 2 32 33
M  V30 33 1 33 3
M  V30 34 1 32 6
M  V30 35 1 25 7
M  V30 36 1 31 27
M  V30 37 1 23 12
M  V30 38 1 21 16
M  V30 39 1 1 34
M  V30 40 1 1 35
M  V30 41 1 1 36
M  V30 42 1 4 37
M  V30 43 1 5 38
M  V30 44 1 8 39
M  V30 45 1 11 40
M  V30 46 1 13 41
M  V30 47 1 14 42
M  V30 48 1 17 43
M  V30 49 1 17 44
M  V30 50 1 18 45
M  V30 51 1 18 46
M  V30 52 1 19 47
M  V30 53 1 20 48
M  V30 54 1 20 49
M  V30 55 1 21 50
M  V30 56 1 21 51
M  V30 57 1 22 52
M  V30 58 1 27 53
M  V30 59 1 28 54
M  V30 60 1 28 55
M  V30 61 1 29 56
M  V30 62 1 29 57
M  V30 63 1 30 58
M  V30 64 1 30 59
M  V30 65 1 31 60
M  V30 66 1 31 61
M  V30 END BOND
M  V30 END CTAB
M  END
>  <Dataset>  (623) 
ChEMBL_Kinases

>  <Ligand_Instance>  (623) 
nan

>  <PDB_ID>  (623) 
nan

>  <Standardized_SMILES>  (623) 
COc1ccc2c3cnc(Nc4ccc(N5CCNCC5)cn4)nc3n(C3CCCC3)c2n1

>  <Name>  (623) 
nan

>  <Pocket>  (623) 
nan

>  <ATP_Site>  (623) 
nan

>  <Peripheral>  (623) 
nan

>  <Num_H_Atoms_ProtBoundConf>  (623) 
nan

>  <Num_Resolved_Atoms>  (623) 
nan

>  <Num_Not_Resolved_Atoms>  (623) 
nan

$$$$
CHEMBL3716849
     RDKit          3D

  0  0  0  0  0  0  0  0  0  0999 V3000
M  V30 BEGIN CTAB
M  V30 COUNTS 44 46 0 0 0
M  V30 BEGIN ATOM
M  V30 1 O -2.223977 -2.766107 -0.336938 0
M  V30 2 C -1.262033 -1.936234 -0.337554 0
M  V30 3 C -0.258339 -1.786662 -1.418267 0
M  V30 4 N 0.719287 -0.745715 -1.138316 0
M  V30 5 C 1.605231 -0.715872 -2.238748 0
M  V30 6 O 1.371350 -1.542070 -3.156414 0
M  V30 7 C 2.744491 0.180475 -2.387848 0
M  V30 8 C 3.515661 0.026948 -3.548099 0
M  V30 9 C 4.619302 0.823236 -3.803270 0
M  V30 10 C 4.900960 1.768358 -2.842025 0
M  V30 11 O 6.022575 2.586095 -3.089871 0
M  V30 12 C 4.207887 1.996286 -1.674470 0
M  V30 13 C 3.125094 1.160077 -1.500311 0
M  V30 14 N -1.276242 -1.147810 0.871262 0
M  V30 15 C -2.279244 -1.338778 1.881956 0
M  V30 16 C -3.024385 -0.046468 2.101225 0
M  V30 17 C -2.129571 1.063230 2.583626 0
M  V30 18 C -1.183962 0.696266 3.664780 0
M  V30 19 C -1.090575 -0.717772 4.012401 0
M  V30 20 C -0.461395 -1.021442 5.218542 0
M  V30 21 C -0.380520 -2.377502 5.535355 0
M  V30 22 C -0.889140 -3.392961 4.715110 0
M  V30 23 C -1.503195 -3.001444 3.526305 0
M  V30 24 C -1.607223 -1.675299 3.170220 0
M  V30 25 H 0.241013 -2.767755 -1.562726 0
M  V30 26 H -0.814350 -1.500163 -2.335477 0
M  V30 27 H 0.924084 -0.048338 -0.369777 0
M  V30 28 H 3.290142 -0.719811 -4.302667 0
M  V30 29 H 5.197505 0.689145 -4.699333 0
M  V30 30 H 5.861110 3.479039 -3.572130 0
M  V30 31 H 4.471060 2.752013 -0.953010 0
M  V30 32 H 2.524046 1.273927 -0.604825 0
M  V30 33 H -0.536994 -0.429330 0.999807 0
M  V30 34 H -3.011455 -2.120568 1.616874 0
M  V30 35 H -3.826798 -0.256170 2.835801 0
M  V30 36 H -3.509541 0.253324 1.152728 0
M  V30 37 H -2.782377 1.924877 2.846504 0
M  V30 38 H -1.517336 1.394280 1.693075 0
M  V30 39 H -1.547233 1.221146 4.597587 0
M  V30 40 H -0.172657 1.167904 3.496524 0
M  V30 41 H -0.055721 -0.273572 5.880382 0
M  V30 42 H 0.116414 -2.609748 6.488061 0
M  V30 43 H -0.797883 -4.427098 5.011474 0
M  V30 44 H -1.917179 -3.762756 2.850065 0
M  V30 END ATOM
M  V30 BEGIN BOND
M  V30 1 2 1 2
M  V30 2 1 2 3
M  V30 3 1 3 4
M  V30 4 1 4 5
M  V30 5 2 5 6
M  V30 6 1 5 7
M  V30 7 2 7 8
M  V30 8 1 8 9
M  V30 9 2 9 10
M  V30 10 1 10 11
M  V30 11 1 10 12
M  V30 12 2 12 13
M  V30 13 1 2 14
M  V30 14 1 14 15
M  V30 15 1 15 16
M  V30 16 1 16 17
M  V30 17 1 17 18
M  V30 18 1 18 19
M  V30 19 2 19 20
M  V30 20 1 20 21
M  V30 21 2 21 22
M  V30 22 1 22 23
M  V30 23 2 23 24
M  V30 24 1 13 7
M  V30 25 1 24 15
M  V30 26 1 24 19
M  V30 27 1 3 25
M  V30 28 1 3 26
M  V30 29 1 4 27
M  V30 30 1 8 28
M  V30 31 1 9 29
M  V30 32 1 11 30
M  V30 33 1 12 31
M  V30 34 1 13 32
M  V30 35 1 14 33
M  V30 36 1 15 34
M  V30 37 1 16 35
M  V30 38 1 16 36
M  V30 39 1 17 37
M  V30 40 1 17 38
M  V30 41 1 18 39
M  V30 42 1 18 40
M  V30 43 1 20 41
M  V30 44 1 21 42
M  V30 45 1 22 43
M  V30 46 1 23 44
M  V30 END BOND
M  V30 END CTAB
M  END
>  <Dataset>  (624) 
ChEMBL_Kinases

>  <Ligand_Instance>  (624) 
nan

>  <PDB_ID>  (624) 
nan

>  <Standardized_SMILES>  (624) 
O=C(CNC(=O)c1ccc(O)cc1)NC1CCCc2ccccc21

>  <Name>  (624) 
nan

>  <Pocket>  (624) 
nan

>  <ATP_Site>  (624) 
nan

>  <Peripheral>  (624) 
nan

>  <Num_H_Atoms_ProtBoundConf>  (624) 
nan

>  <Num_Resolved_Atoms>  (624) 
nan

>  <Num_Not_Resolved_Atoms>  (624) 
nan

$$$$
CHEMBL4449421
     RDKit          3D

  0  0  0  0  0  0  0  0  0  0999 V3000
M  V30 BEGIN CTAB
M  V30 COUNTS 43 45 0 0 0
M  V30 BEGIN ATOM
M  V30 1 C 4.475311 -4.596004 -4.665561 0
M  V30 2 N 3.608413 -3.462453 -4.393891 0
M  V30 3 C 3.327809 -2.966031 -3.113028 0
M  V30 4 O 3.905469 -3.600630 -2.181790 0
M  V30 5 C 2.450793 -1.823303 -2.875546 0
M  V30 6 C 1.814585 -1.121932 -3.879511 0
M  V30 7 C 0.990098 -0.044627 -3.628279 0
M  V30 8 C 0.810885 0.326347 -2.312345 0
M  V30 9 C -0.092948 1.501984 -2.086083 0
M  V30 10 C 1.437434 -0.361796 -1.299847 0
M  V30 11 N 1.167661 0.126338 0.032762 0
M  V30 12 C 0.075424 -0.418801 0.710265 0
M  V30 13 O -0.731807 -1.297080 0.321483 0
M  V30 14 C -0.097663 0.168393 2.077974 0
M  V30 15 C 0.458645 1.063065 2.887411 0
M  V30 16 C -0.073275 1.269621 4.100593 0
M  V30 17 C -1.126690 0.609680 4.502953 0
M  V30 18 C -1.983516 0.534393 5.693697 0
M  V30 19 C -3.057598 -0.330667 5.744142 0
M  V30 20 C -3.890649 -0.438082 6.837838 0
M  V30 21 C -3.658491 0.345197 7.942853 0
M  V30 22 C -2.604370 1.230220 7.960789 0
M  V30 23 C -1.820123 1.280472 6.835967 0
M  V30 24 Cl -0.501043 2.422051 6.922256 0
M  V30 25 S -1.509888 -0.435267 3.143291 0
M  V30 26 C 2.265067 -1.443661 -1.556184 0
M  V30 27 H 5.050086 -4.434883 -5.603247 0
M  V30 28 H 5.188603 -4.809405 -3.842491 0
M  V30 29 H 3.860927 -5.531895 -4.775766 0
M  V30 30 H 3.192632 -3.025130 -5.243215 0
M  V30 31 H 1.967939 -1.428663 -4.906768 0
M  V30 32 H 0.513692 0.471039 -4.467956 0
M  V30 33 H -1.090269 1.295602 -2.514153 0
M  V30 34 H -0.154136 1.783044 -1.034606 0
M  V30 35 H 0.360775 2.339196 -2.675529 0
M  V30 36 H 1.805479 0.858559 0.411545 0
M  V30 37 H 1.306883 1.493069 2.373696 0
M  V30 38 H 0.423577 2.007937 4.709865 0
M  V30 39 H -3.323973 -0.987346 4.929226 0
M  V30 40 H -4.726778 -1.119292 6.862514 0
M  V30 41 H -4.314058 0.255279 8.793450 0
M  V30 42 H -2.438446 1.835072 8.834837 0
M  V30 43 H 2.712500 -1.918989 -0.684820 0
M  V30 END ATOM
M  V30 BEGIN BOND
M  V30 1 1 1 2
M  V30 2 1 2 3
M  V30 3 2 3 4
M  V30 4 1 3 5
M  V30 5 2 5 6
M  V30 6 1 6 7
M  V30 7 2 7 8
M  V30 8 1 8 9
M  V30 9 1 8 10
M  V30 10 1 10 11
M  V30 11 1 11 12
M  V30 12 2 12 13
M  V30 13 1 12 14
M  V30 14 2 14 15
M  V30 15 1 15 16
M  V30 16 2 16 17
M  V30 17 1 17 18
M  V30 18 2 18 19
M  V30 19 1 19 20
M  V30 20 2 20 21
M  V30 21 1 21 22
M  V30 22 2 22 23
M  V30 23 1 23 24
M  V30 24 1 17 25
M  V30 25 2 10 26
M  V30 26 1 26 5
M  V30 27 1 25 14
M  V30 28 1 23 18
M  V30 29 1 1 27
M  V30 30 1 1 28
M  V30 31 1 1 29
M  V30 32 1 2 30
M  V30 33 1 6 31
M  V30 34 1 7 32
M  V30 35 1 9 33
M  V30 36 1 9 34
M  V30 37 1 9 35
M  V30 38 1 11 36
M  V30 39 1 15 37
M  V30 40 1 16 38
M  V30 41 1 19 39
M  V30 42 1 20 40
M  V30 43 1 21 41
M  V30 44 1 22 42
M  V30 45 1 26 43
M  V30 END BOND
M  V30 END CTAB
M  END
>  <Dataset>  (625) 
ChEMBL_Kinases

>  <Ligand_Instance>  (625) 
nan

>  <PDB_ID>  (625) 
nan

>  <Standardized_SMILES>  (625) 
CNC(=O)c1ccc(C)c(NC(=O)c2ccc(-c3ccccc3Cl)s2)c1

>  <Name>  (625) 
nan

>  <Pocket>  (625) 
nan

>  <ATP_Site>  (625) 
nan

>  <Peripheral>  (625) 
nan

>  <Num_H_Atoms_ProtBoundConf>  (625) 
nan

>  <Num_Resolved_Atoms>  (625) 
nan

>  <Num_Not_Resolved_Atoms>  (625) 
nan

$$$$
CHEMBL3716850
     RDKit          3D

  0  0  0  0  0  0  0  0  0  0999 V3000
M  V30 BEGIN CTAB
M  V30 COUNTS 52 55 0 0 0
M  V30 BEGIN ATOM
M  V30 1 C 0.999609 -1.658743 5.488195 0
M  V30 2 C 0.256957 -0.726899 4.621059 0
M  V30 3 O -0.868240 -1.062642 4.157739 0
M  V30 4 N 0.847224 0.538722 4.333898 0
M  V30 5 C 0.437227 1.651170 3.564152 0
M  V30 6 C 0.732504 1.801138 2.219580 0
M  V30 7 C 0.345070 2.875532 1.446194 0
M  V30 8 N 0.652402 3.017471 0.081935 0
M  V30 9 C 1.419642 2.044207 -0.656477 0
M  V30 10 C 2.781057 1.919986 -0.055883 0
M  V30 11 C 1.610757 2.546658 -2.087555 0
M  V30 12 C 0.695640 0.736839 -0.751887 0
M  V30 13 O -0.455927 0.494673 -0.252419 0
M  V30 14 N 1.277711 -0.341011 -1.429783 0
M  V30 15 C 0.429370 -1.491866 -1.406510 0
M  V30 16 N -0.585669 -1.901130 -1.035675 0
M  V30 17 C -1.125243 -3.090615 -1.183004 0
M  V30 18 C -2.358502 -3.572859 -0.727113 0
M  V30 19 C -3.326873 -2.735930 0.061662 0
M  V30 20 F -4.432340 -3.486506 0.357496 0
M  V30 21 F -3.615942 -1.548540 -0.550346 0
M  V30 22 F -2.723162 -2.432554 1.286905 0
M  V30 23 C -2.694025 -4.869075 -1.015968 0
M  V30 24 C -1.950235 -5.789905 -1.720339 0
M  V30 25 N -1.993024 -7.058778 -2.148281 0
M  V30 26 N -0.895863 -7.369034 -2.815864 0
M  V30 27 C -0.083702 -6.306079 -2.851930 0
M  V30 28 C -0.735394 -5.312928 -2.168736 0
M  V30 29 C -0.368808 -4.005646 -1.891747 0
M  V30 30 S 1.085978 -3.041675 -2.289490 0
M  V30 31 C -0.383018 3.817333 2.142917 0
M  V30 32 C -0.717886 3.741279 3.479930 0
M  V30 33 C -0.297011 2.638501 4.191874 0
M  V30 34 F -0.642630 2.596587 5.498908 0
M  V30 35 H 1.598516 -1.142589 6.273582 0
M  V30 36 H 1.636459 -2.300208 4.855002 0
M  V30 37 H 0.266103 -2.327054 6.007742 0
M  V30 38 H 1.778459 0.833014 4.709354 0
M  V30 39 H 1.299447 1.003968 1.798280 0
M  V30 40 H 0.299081 3.874422 -0.399626 0
M  V30 41 H 3.088370 0.899999 0.213155 0
M  V30 42 H 2.883400 2.541741 0.875844 0
M  V30 43 H 3.589719 2.300721 -0.726726 0
M  V30 44 H 0.669270 2.841028 -2.566251 0
M  V30 45 H 2.264694 3.427267 -2.061005 0
M  V30 46 H 2.113137 1.747821 -2.638849 0
M  V30 47 H 2.211069 -0.311959 -1.893894 0
M  V30 48 H -3.667096 -5.248189 -0.655758 0
M  V30 49 H -2.844554 -7.645940 -1.923580 0
M  V30 50 H 0.897265 -6.258927 -3.333790 0
M  V30 51 H -0.734184 4.705199 1.613288 0
M  V30 52 H -1.302467 4.545464 3.943482 0
M  V30 END ATOM
M  V30 BEGIN BOND
M  V30 1 1 1 2
M  V30 2 2 2 3
M  V30 3 1 2 4
M  V30 4 1 4 5
M  V30 5 2 5 6
M  V30 6 1 6 7
M  V30 7 1 7 8
M  V30 8 1 8 9
M  V30 9 1 9 10
M  V30 10 1 9 11
M  V30 11 1 9 12
M  V30 12 2 12 13
M  V30 13 1 12 14
M  V30 14 1 14 15
M  V30 15 2 15 16
M  V30 16 1 16 17
M  V30 17 2 17 18
M  V30 18 1 18 19
M  V30 19 1 19 20
M  V30 20 1 19 21
M  V30 21 1 19 22
M  V30 22 1 18 23
M  V30 23 2 23 24
M  V30 24 1 24 25
M  V30 25 1 25 26
M  V30 26 2 26 27
M  V30 27 1 27 28
M  V30 28 2 28 29
M  V30 29 1 29 30
M  V30 30 2 7 31
M  V30 31 1 31 32
M  V30 32 2 32 33
M  V30 33 1 33 34
M  V30 34 1 33 5
M  V30 35 1 30 15
M  V30 36 1 29 17
M  V30 37 1 28 24
M  V30 38 1 1 35
M  V30 39 1 1 36
M  V30 40 1 1 37
M  V30 41 1 4 38
M  V30 42 1 6 39
M  V30 43 1 8 40
M  V30 44 1 10 41
M  V30 45 1 10 42
M  V30 46 1 10 43
M  V30 47 1 11 44
M  V30 48 1 11 45
M  V30 49 1 11 46
M  V30 50 1 14 47
M  V30 51 1 23 48
M  V30 52 1 25 49
M  V30 53 1 27 50
M  V30 54 1 31 51
M  V30 55 1 32 52
M  V30 END BOND
M  V30 END CTAB
M  END
>  <Dataset>  (626) 
ChEMBL_Kinases

>  <Ligand_Instance>  (626) 
nan

>  <PDB_ID>  (626) 
nan

>  <Standardized_SMILES>  (626) 
CC(=O)Nc1cc(NC(C)(C)C(=O)Nc2nc3c(C(F)(F)F)cc4[nH]ncc4c3s2)ccc1F

>  <Name>  (626) 
nan

>  <Pocket>  (626) 
nan

>  <ATP_Site>  (626) 
nan

>  <Peripheral>  (626) 
nan

>  <Num_H_Atoms_ProtBoundConf>  (626) 
nan

>  <Num_Resolved_Atoms>  (626) 
nan

>  <Num_Not_Resolved_Atoms>  (626) 
nan

$$$$
CHEMBL4449392
     RDKit          3D

  0  0  0  0  0  0  0  0  0  0999 V3000
M  V30 BEGIN CTAB
M  V30 COUNTS 21 22 0 0 0
M  V30 BEGIN ATOM
M  V30 1 O 3.457585 -1.795569 4.662095 0
M  V30 2 C 2.357533 -1.320194 4.272377 0
M  V30 3 O 1.401888 -1.203124 5.282243 0
M  V30 4 C 1.837516 -0.845308 2.948152 0
M  V30 5 C 2.586529 -0.847951 1.750626 0
M  V30 6 C 1.934684 -0.376365 0.654353 0
M  V30 7 C 0.642774 0.060633 0.749311 0
M  V30 8 C -0.228385 0.590913 -0.260241 0
M  V30 9 C 0.203641 0.724130 -1.565110 0
M  V30 10 C -0.654407 1.237071 -2.516815 0
M  V30 11 C -1.938985 1.601945 -2.104854 0
M  V30 12 N -2.317126 1.455282 -0.825728 0
M  V30 13 C -1.502122 0.958033 0.123986 0
M  V30 14 S 0.220712 -0.174335 2.501595 0
M  V30 15 H 1.443968 -1.808389 6.116793 0
M  V30 16 H 3.604810 -1.210389 1.757771 0
M  V30 17 H 2.419521 -0.332443 -0.328768 0
M  V30 18 H 1.213918 0.416511 -1.794940 0
M  V30 19 H -0.241084 1.305646 -3.496882 0
M  V30 20 H -2.559804 1.997143 -2.903121 0
M  V30 21 H -1.835327 0.851924 1.145714 0
M  V30 END ATOM
M  V30 BEGIN BOND
M  V30 1 2 1 2
M  V30 2 1 2 3
M  V30 3 1 2 4
M  V30 4 2 4 5
M  V30 5 1 5 6
M  V30 6 2 6 7
M  V30 7 1 7 8
M  V30 8 2 8 9
M  V30 9 1 9 10
M  V30 10 2 10 11
M  V30 11 1 11 12
M  V30 12 2 12 13
M  V30 13 1 7 14
M  V30 14 1 14 4
M  V30 15 1 13 8
M  V30 16 1 3 15
M  V30 17 1 5 16
M  V30 18 1 6 17
M  V30 19 1 9 18
M  V30 20 1 10 19
M  V30 21 1 11 20
M  V30 22 1 13 21
M  V30 END BOND
M  V30 END CTAB
M  END
>  <Dataset>  (627) 
ChEMBL_Kinases

>  <Ligand_Instance>  (627) 
nan

>  <PDB_ID>  (627) 
nan

>  <Standardized_SMILES>  (627) 
O=C(O)c1ccc(-c2cccnc2)s1

>  <Name>  (627) 
nan

>  <Pocket>  (627) 
nan

>  <ATP_Site>  (627) 
nan

>  <Peripheral>  (627) 
nan

>  <Num_H_Atoms_ProtBoundConf>  (627) 
nan

>  <Num_Resolved_Atoms>  (627) 
nan

>  <Num_Not_Resolved_Atoms>  (627) 
nan

$$$$
CHEMBL4574781
     RDKit          3D

  0  0  0  0  0  0  0  0  0  0999 V3000
M  V30 BEGIN CTAB
M  V30 COUNTS 52 55 0 0 0
M  V30 BEGIN ATOM
M  V30 1 C 2.935791 -3.539889 0.426396 0
M  V30 2 C 1.877625 -2.720124 1.096666 0
M  V30 3 N 1.870418 -1.340306 0.713404 0
M  V30 4 C 2.116641 -0.253936 1.596604 0
M  V30 5 O 2.377588 -0.314633 2.839528 0
M  V30 6 C 2.075621 1.102846 1.060070 0
M  V30 7 C 1.818989 1.485557 -0.244117 0
M  V30 8 N 1.874764 2.835001 -0.323503 0
M  V30 9 N 2.156568 3.345293 0.872929 0
M  V30 10 C 2.311387 4.710368 1.255457 0
M  V30 11 C 1.504011 5.262925 2.257917 0
M  V30 12 C 1.700989 6.595829 2.586825 0
M  V30 13 C 2.673584 7.311101 1.918784 0
M  V30 14 C 3.481891 6.792405 0.928646 0
M  V30 15 C 3.278800 5.455530 0.604143 0
M  V30 16 C 2.282074 2.290914 1.730381 0
M  V30 17 N 2.579760 2.404064 3.102150 0
M  V30 18 C 0.496446 -3.268641 0.877215 0
M  V30 19 C -0.171174 -2.973810 -0.296469 0
M  V30 20 C -1.440630 -3.442941 -0.564929 0
M  V30 21 C -2.090351 -4.238234 0.356169 0
M  V30 22 C -3.423810 -4.826278 0.255795 0
M  V30 23 O -3.955635 -5.545017 1.139011 0
M  V30 24 N -4.198229 -4.585186 -0.913358 0
M  V30 25 C -5.512511 -5.162034 -1.017503 0
M  V30 26 C -6.562516 -4.541370 -1.857465 0
M  V30 27 C -5.814544 -5.738737 -2.396162 0
M  V30 28 C -1.401274 -4.526621 1.537225 0
M  V30 29 C -0.128912 -4.064352 1.821428 0
M  V30 30 H 2.501306 -4.041352 -0.463013 0
M  V30 31 H 3.332571 -4.339107 1.109401 0
M  V30 32 H 3.779816 -2.929779 0.036730 0
M  V30 33 H 2.110269 -2.733906 2.194701 0
M  V30 34 H 1.667819 -1.122534 -0.294788 0
M  V30 35 H 1.605610 0.829636 -1.081775 0
M  V30 36 H 0.774639 4.606488 2.711996 0
M  V30 37 H 1.077108 7.022741 3.361427 0
M  V30 38 H 2.759858 8.341348 2.237282 0
M  V30 39 H 4.226184 7.374255 0.430888 0
M  V30 40 H 3.904566 5.023636 -0.174245 0
M  V30 41 H 3.243124 2.991330 3.655232 0
M  V30 42 H 2.076142 1.805859 3.820588 0
M  V30 43 H 0.248770 -2.364663 -1.073159 0
M  V30 44 H -2.010459 -3.245966 -1.462465 0
M  V30 45 H -3.884196 -4.008775 -1.724719 0
M  V30 46 H -5.878504 -5.786532 -0.162193 0
M  V30 47 H -6.306462 -3.520955 -2.236210 0
M  V30 48 H -7.607183 -4.703491 -1.592121 0
M  V30 49 H -6.384369 -6.681928 -2.480688 0
M  V30 50 H -5.151512 -5.488130 -3.247197 0
M  V30 51 H -1.821896 -5.145016 2.330920 0
M  V30 52 H 0.387778 -4.289425 2.723858 0
M  V30 END ATOM
M  V30 BEGIN BOND
M  V30 1 1 1 2
M  V30 2 1 2 3
M  V30 3 1 3 4
M  V30 4 2 4 5
M  V30 5 1 4 6
M  V30 6 1 6 7
M  V30 7 2 7 8
M  V30 8 1 8 9
M  V30 9 1 9 10
M  V30 10 2 10 11
M  V30 11 1 11 12
M  V30 12 2 12 13
M  V30 13 1 13 14
M  V30 14 2 14 15
M  V30 15 1 9 16
M  V30 16 1 16 17
M  V30 17 1 2 18
M  V30 18 2 18 19
M  V30 19 1 19 20
M  V30 20 2 20 21
M  V30 21 1 21 22
M  V30 22 2 22 23
M  V30 23 1 22 24
M  V30 24 1 24 25
M  V30 25 1 25 26
M  V30 26 1 26 27
M  V30 27 1 21 28
M  V30 28 2 28 29
M  V30 29 2 16 6
M  V30 30 1 29 18
M  V30 31 1 15 10
M  V30 32 1 27 25
M  V30 33 1 1 30
M  V30 34 1 1 31
M  V30 35 1 1 32
M  V30 36 1 2 33
M  V30 37 1 3 34
M  V30 38 1 7 35
M  V30 39 1 11 36
M  V30 40 1 12 37
M  V30 41 1 13 38
M  V30 42 1 14 39
M  V30 43 1 15 40
M  V30 44 1 17 41
M  V30 45 1 17 42
M  V30 46 1 19 43
M  V30 47 1 20 44
M  V30 48 1 24 45
M  V30 49 1 25 46
M  V30 50 1 26 47
M  V30 51 1 26 48
M  V30 52 1 27 49
M  V30 53 1 27 50
M  V30 54 1 28 51
M  V30 55 1 29 52
M  V30 END BOND
M  V30 END CTAB
M  END
>  <Dataset>  (628) 
ChEMBL_Kinases

>  <Ligand_Instance>  (628) 
nan

>  <PDB_ID>  (628) 
nan

>  <Standardized_SMILES>  (628) 
CC(NC(=O)c1cnn(-c2ccccc2)c1N)c1ccc(C(=O)NC2CC2)cc1

>  <Name>  (628) 
nan

>  <Pocket>  (628) 
nan

>  <ATP_Site>  (628) 
nan

>  <Peripheral>  (628) 
nan

>  <Num_H_Atoms_ProtBoundConf>  (628) 
nan

>  <Num_Resolved_Atoms>  (628) 
nan

>  <Num_Not_Resolved_Atoms>  (628) 
nan

$$$$
CHEMBL3702090
     RDKit          3D

  0  0  0  0  0  0  0  0  0  0999 V3000
M  V30 BEGIN CTAB
M  V30 COUNTS 60 65 0 0 0
M  V30 BEGIN ATOM
M  V30 1 C 1.421840 -6.019789 0.549412 0
M  V30 2 N 2.332363 -5.211778 1.317623 0
M  V30 3 C 3.113217 -5.734966 2.311547 0
M  V30 4 O 2.995287 -6.975853 2.533234 0
M  V30 5 C 4.021112 -5.069099 3.108270 0
M  V30 6 C 4.129267 -3.698709 2.840341 0
M  V30 7 C 3.357997 -3.163257 1.853234 0
M  V30 8 C 3.233528 -1.882431 1.360975 0
M  V30 9 C 3.861825 -0.710526 1.717077 0
M  V30 10 N 3.580327 0.461525 1.086775 0
M  V30 11 C 2.672195 0.500781 0.091217 0
M  V30 12 N 2.089649 1.491713 -0.777359 0
M  V30 13 C 0.800215 1.910502 -0.312641 0
M  V30 14 C 0.071901 2.833081 -1.033451 0
M  V30 15 C -1.179948 3.275521 -0.654651 0
M  V30 16 C -1.742748 2.771461 0.510349 0
M  V30 17 N -3.005247 3.053108 1.099717 0
M  V30 18 C -3.621334 2.669323 2.379541 0
M  V30 19 C -4.934126 2.019921 1.991316 0
M  V30 20 C -5.240019 2.696462 0.660071 0 CFG=1
M  V30 21 O -6.522057 3.218300 0.620132 0
M  V30 22 C -4.173445 3.801383 0.691071 0
M  V30 23 C -1.013301 1.850167 1.229705 0
M  V30 24 N 0.199956 1.462730 0.804125 0
M  V30 25 N 2.072241 -0.650241 -0.241474 0
M  V30 26 C 2.301496 -1.839823 0.338184 0
M  V30 27 N 1.823874 -3.117338 0.178703 0
M  V30 28 C 0.849050 -3.359744 -0.799276 0
M  V30 29 C -0.371938 -2.493874 -0.444004 0
M  V30 30 C -0.996802 -2.349838 -1.836610 0
M  V30 31 C 0.195036 -1.896972 -2.639100 0
M  V30 32 C 1.327371 -2.715318 -2.109753 0
M  V30 33 C 2.465872 -3.885824 1.089153 0
M  V30 34 H 0.372347 -5.836995 0.743706 0
M  V30 35 H 1.727310 -6.187209 -0.502502 0
M  V30 36 H 1.559791 -7.071746 0.960369 0
M  V30 37 H 4.577021 -5.601301 3.861634 0
M  V30 38 H 4.822115 -3.149469 3.436650 0
M  V30 39 H 4.588274 -0.608253 2.475378 0
M  V30 40 H 2.472835 1.902137 -1.631259 0
M  V30 41 H 0.469047 3.242876 -1.932976 0
M  V30 42 H -1.812271 3.984445 -1.150071 0
M  V30 43 H -3.767637 3.536090 3.030545 0
M  V30 44 H -3.008737 1.913867 2.903529 0
M  V30 45 H -5.742080 2.221136 2.723208 0
M  V30 46 H -4.823264 0.934418 1.793332 0
M  V30 47 H -5.011521 2.020763 -0.165012 0
M  V30 48 H -7.055018 2.607012 0.023903 0
M  V30 49 H -4.453928 4.577230 1.402414 0
M  V30 50 H -4.106451 4.163933 -0.346875 0
M  V30 51 H -1.214494 1.313670 2.154929 0
M  V30 52 H 0.471239 -4.307281 -1.045434 0
M  V30 53 H -0.105973 -1.528353 -0.025757 0
M  V30 54 H -1.070290 -3.078794 0.175241 0
M  V30 55 H -1.839029 -1.627672 -1.833715 0
M  V30 56 H -1.330225 -3.356153 -2.172079 0
M  V30 57 H -0.025617 -2.108165 -3.727968 0
M  V30 58 H 0.359238 -0.808189 -2.507971 0
M  V30 59 H 1.503314 -3.525423 -2.879576 0
M  V30 60 H 2.286026 -2.208135 -2.012227 0
M  V30 END ATOM
M  V30 BEGIN BOND
M  V30 1 1 1 2
M  V30 2 1 2 3
M  V30 3 2 3 4
M  V30 4 1 3 5
M  V30 5 2 5 6
M  V30 6 1 6 7
M  V30 7 1 7 8
M  V30 8 2 8 9
M  V30 9 1 9 10
M  V30 10 2 10 11
M  V30 11 1 11 12
M  V30 12 1 12 13
M  V30 13 2 13 14
M  V30 14 1 14 15
M  V30 15 2 15 16
M  V30 16 1 16 17
M  V30 17 1 17 18
M  V30 18 1 18 19
M  V30 19 1 19 20
M  V30 20 1 20 21
M  V30 21 1 20 22
M  V30 22 1 16 23
M  V30 23 2 23 24
M  V30 24 1 11 25
M  V30 25 2 25 26
M  V30 26 1 26 27
M  V30 27 1 27 28
M  V30 28 1 28 29
M  V30 29 1 29 30
M  V30 30 1 30 31
M  V30 31 1 31 32
M  V30 32 1 27 33
M  V30 33 1 33 2
M  V30 34 2 33 7
M  V30 35 1 26 8
M  V30 36 1 32 28
M  V30 37 1 24 13
M  V30 38 1 22 17
M  V30 39 1 1 34
M  V30 40 1 1 35
M  V30 41 1 1 36
M  V30 42 1 5 37
M  V30 43 1 6 38
M  V30 44 1 9 39
M  V30 45 1 12 40
M  V30 46 1 14 41
M  V30 47 1 15 42
M  V30 48 1 18 43
M  V30 49 1 18 44
M  V30 50 1 19 45
M  V30 51 1 19 46
M  V30 52 1 20 47 CFG=3
M  V30 53 1 21 48
M  V30 54 1 22 49
M  V30 55 1 22 50
M  V30 56 1 23 51
M  V30 57 1 28 52
M  V30 58 1 29 53
M  V30 59 1 29 54
M  V30 60 1 30 55
M  V30 61 1 30 56
M  V30 62 1 31 57
M  V30 63 1 31 58
M  V30 64 1 32 59
M  V30 65 1 32 60
M  V30 END BOND
M  V30 END CTAB
M  END
>  <Dataset>  (629) 
ChEMBL_Kinases

>  <Ligand_Instance>  (629) 
nan

>  <PDB_ID>  (629) 
nan

>  <Standardized_SMILES>  (629) 
Cn1c(=O)ccc2c3cnc(Nc4ccc(N5CC[C@@H](O)C5)cn4)nc3n(C3CCCC3)c21

>  <Name>  (629) 
nan

>  <Pocket>  (629) 
nan

>  <ATP_Site>  (629) 
nan

>  <Peripheral>  (629) 
nan

>  <Num_H_Atoms_ProtBoundConf>  (629) 
nan

>  <Num_Resolved_Atoms>  (629) 
nan

>  <Num_Not_Resolved_Atoms>  (629) 
nan

$$$$
CHEMBL2430324
     RDKit          3D

  0  0  0  0  0  0  0  0  0  0999 V3000
M  V30 BEGIN CTAB
M  V30 COUNTS 36 38 0 0 0
M  V30 BEGIN ATOM
M  V30 1 C -2.474064 -4.249253 2.202967 0
M  V30 2 C -1.350912 -3.244859 2.159555 0
M  V30 3 O -1.300939 -2.256206 2.922643 0
M  V30 4 N -0.386122 -3.559136 1.168762 0
M  V30 5 C 0.737161 -2.679659 1.024930 0
M  V30 6 N 1.864041 -2.897176 1.738102 0
M  V30 7 C 2.925644 -2.055871 1.595440 0
M  V30 8 C 2.749442 -1.017644 0.702172 0
M  V30 9 C 1.613556 -0.759948 -0.046482 0
M  V30 10 C 1.621166 0.388390 -0.935142 0
M  V30 11 C 0.720966 1.431100 -0.775068 0
M  V30 12 C -0.361257 1.695952 0.167560 0
M  V30 13 C -0.421183 2.740236 1.074355 0
M  V30 14 C -1.500568 2.891337 1.918537 0
M  V30 15 C -2.568784 2.014266 1.901675 0
M  V30 16 C -2.503517 0.968167 0.989799 0
M  V30 17 C -1.414836 0.828719 0.149140 0
M  V30 18 N 0.984063 2.346811 -1.753175 0
M  V30 19 O 1.980891 1.898712 -2.469835 0
M  V30 20 C 2.395259 0.739548 -2.025309 0
M  V30 21 C 3.478578 -0.117868 -2.521582 0
M  V30 22 N 0.629862 -1.654120 0.174641 0
M  V30 23 H -2.755438 -4.594470 1.193347 0
M  V30 24 H -3.345538 -3.679591 2.600369 0
M  V30 25 H -2.182976 -5.076677 2.878771 0
M  V30 26 H -0.312682 -4.341819 0.478660 0
M  V30 27 H 3.851322 -2.172157 2.133155 0
M  V30 28 H 3.610542 -0.339894 0.589392 0
M  V30 29 H 0.446899 3.411263 1.052880 0
M  V30 30 H -1.479605 3.740758 2.609404 0
M  V30 31 H -3.407732 2.157378 2.578520 0
M  V30 32 H -3.380607 0.318273 1.033910 0
M  V30 33 H -1.558908 -0.049511 -0.485793 0
M  V30 34 H 4.349500 -0.199067 -1.872481 0
M  V30 35 H 3.861329 0.361515 -3.472520 0
M  V30 36 H 3.099111 -1.114372 -2.886316 0
M  V30 END ATOM
M  V30 BEGIN BOND
M  V30 1 1 1 2
M  V30 2 2 2 3
M  V30 3 1 2 4
M  V30 4 1 4 5
M  V30 5 2 5 6
M  V30 6 1 6 7
M  V30 7 2 7 8
M  V30 8 1 8 9
M  V30 9 1 9 10
M  V30 10 1 10 11
M  V30 11 1 11 12
M  V30 12 2 12 13
M  V30 13 1 13 14
M  V30 14 2 14 15
M  V30 15 1 15 16
M  V30 16 2 16 17
M  V30 17 2 11 18
M  V30 18 1 18 19
M  V30 19 1 19 20
M  V30 20 1 20 21
M  V30 21 2 9 22
M  V30 22 1 22 5
M  V30 23 2 20 10
M  V30 24 1 17 12
M  V30 25 1 1 23
M  V30 26 1 1 24
M  V30 27 1 1 25
M  V30 28 1 4 26
M  V30 29 1 7 27
M  V30 30 1 8 28
M  V30 31 1 13 29
M  V30 32 1 14 30
M  V30 33 1 15 31
M  V30 34 1 16 32
M  V30 35 1 17 33
M  V30 36 1 21 34
M  V30 37 1 21 35
M  V30 38 1 21 36
M  V30 END BOND
M  V30 END CTAB
M  END
>  <Dataset>  (630) 
ChEMBL_Kinases

>  <Ligand_Instance>  (630) 
nan

>  <PDB_ID>  (630) 
nan

>  <Standardized_SMILES>  (630) 
CC(=O)Nc1nccc(-c2c(-c3ccccc3)noc2C)n1

>  <Name>  (630) 
nan

>  <Pocket>  (630) 
nan

>  <ATP_Site>  (630) 
nan

>  <Peripheral>  (630) 
nan

>  <Num_H_Atoms_ProtBoundConf>  (630) 
nan

>  <Num_Resolved_Atoms>  (630) 
nan

>  <Num_Not_Resolved_Atoms>  (630) 
nan

$$$$
CHEMBL3691547
     RDKit          3D

  0  0  0  0  0  0  0  0  0  0999 V3000
M  V30 BEGIN CTAB
M  V30 COUNTS 74 79 0 0 0
M  V30 BEGIN ATOM
M  V30 1 C 4.625967 -3.153512 2.278048 0
M  V30 2 N 5.389406 -2.737621 1.092170 0
M  V30 3 C 6.359863 -3.749841 0.712692 0
M  V30 4 C 5.269598 -1.519506 0.331260 0
M  V30 5 O 6.037718 -1.354977 -0.675315 0
M  V30 6 C 4.264576 -0.588822 0.802335 0
M  V30 7 C 4.777787 0.491489 1.538120 0
M  V30 8 C 3.653856 1.249442 1.902631 0
M  V30 9 C 3.609519 2.434996 2.655500 0
M  V30 10 N 2.391943 2.965133 2.876317 0
M  V30 11 C 1.284001 2.381122 2.395550 0
M  V30 12 N 0.058160 3.028304 2.702367 0
M  V30 13 C -1.246944 2.559752 2.384940 0
M  V30 14 C -2.484628 3.102440 2.632380 0
M  V30 15 C -3.642576 2.464289 2.243024 0
M  V30 16 C -3.538144 1.263781 1.596352 0
M  V30 17 C -4.770996 0.600476 1.201767 0
M  V30 18 O -5.815887 0.930932 1.854784 0
M  V30 19 N -5.140741 -0.363174 0.237958 0
M  V30 20 C -6.579633 -0.558530 0.420552 0
M  V30 21 C -7.091608 -1.484746 -0.653458 0
M  V30 22 C -6.755956 -2.934606 -0.404805 0
M  V30 23 C -5.445954 -3.172526 -1.080118 0
M  V30 24 C -5.093233 -1.819286 -1.672094 0
M  V30 25 C -4.240153 -1.017160 -0.722225 0
M  V30 26 N -6.398564 -1.234676 -1.902205 0
M  V30 27 C -2.308237 0.696880 1.334991 0
M  V30 28 N -1.248809 1.378800 1.744613 0
M  V30 29 N 1.359519 1.248182 1.677902 0
M  V30 30 C 2.544779 0.628129 1.396106 0
M  V30 31 N 2.927044 -0.481060 0.732307 0
M  V30 32 C 2.078555 -1.384763 0.057501 0
M  V30 33 C 1.005940 -0.561618 -0.662979 0
M  V30 34 C 1.559687 0.497097 -1.553414 0
M  V30 35 C 1.529592 0.061914 -3.016784 0
M  V30 36 C 2.053851 -1.329411 -3.175238 0
M  V30 37 C 3.190067 -1.575629 -2.198930 0
M  V30 38 C 2.659318 -2.286653 -0.967871 0
M  V30 39 H 3.828084 -3.868090 1.955690 0
M  V30 40 H 4.121483 -2.321493 2.779412 0
M  V30 41 H 5.278249 -3.660527 3.010246 0
M  V30 42 H 6.923973 -4.037671 1.638359 0
M  V30 43 H 7.017530 -3.439423 -0.100484 0
M  V30 44 H 5.772101 -4.670877 0.460793 0
M  V30 45 H 5.795537 0.788688 1.829170 0
M  V30 46 H 4.493852 2.917428 3.047103 0
M  V30 47 H -0.017284 3.922942 3.194264 0
M  V30 48 H -2.426928 4.057099 3.151287 0
M  V30 49 H -4.565123 2.980297 2.489301 0
M  V30 50 H -7.154829 0.378757 0.387610 0
M  V30 51 H -6.743386 -1.114856 1.392572 0
M  V30 52 H -8.200404 -1.364434 -0.791314 0
M  V30 53 H -6.799917 -3.234234 0.659111 0
M  V30 54 H -7.537358 -3.536118 -0.946899 0
M  V30 55 H -5.513935 -3.889325 -1.931097 0
M  V30 56 H -4.638273 -3.545000 -0.414982 0
M  V30 57 H -4.535829 -1.966313 -2.624100 0
M  V30 58 H -3.708389 -1.790730 -0.088922 0
M  V30 59 H -3.564959 -0.312695 -1.209315 0
M  V30 60 H -6.872294 -1.866119 -2.605791 0
M  V30 61 H -2.184428 -0.248544 0.826626 0
M  V30 62 H 1.542905 -2.015731 0.790122 0
M  V30 63 H 0.304494 -0.126906 0.068121 0
M  V30 64 H 0.408329 -1.295361 -1.252908 0
M  V30 65 H 0.887353 1.398555 -1.519344 0
M  V30 66 H 2.567977 0.874789 -1.261294 0
M  V30 67 H 2.165192 0.729733 -3.632189 0
M  V30 68 H 0.475303 0.178087 -3.375159 0
M  V30 69 H 1.224667 -2.035609 -2.959119 0
M  V30 70 H 2.368764 -1.537851 -4.217177 0
M  V30 71 H 3.907276 -2.248733 -2.710012 0
M  V30 72 H 3.734882 -0.638915 -1.963652 0
M  V30 73 H 1.752586 -2.852894 -1.372534 0
M  V30 74 H 3.300326 -3.098170 -0.628761 0
M  V30 END ATOM
M  V30 BEGIN BOND
M  V30 1 1 1 2
M  V30 2 1 2 3
M  V30 3 1 2 4
M  V30 4 2 4 5
M  V30 5 1 4 6
M  V30 6 2 6 7
M  V30 7 1 7 8
M  V30 8 2 8 9
M  V30 9 1 9 10
M  V30 10 2 10 11
M  V30 11 1 11 12
M  V30 12 1 12 13
M  V30 13 2 13 14
M  V30 14 1 14 15
M  V30 15 2 15 16
M  V30 16 1 16 17
M  V30 17 2 17 18
M  V30 18 1 17 19
M  V30 19 1 19 20
M  V30 20 1 20 21
M  V30 21 1 21 22
M  V30 22 1 22 23
M  V30 23 1 23 24
M  V30 24 1 24 25
M  V30 25 1 24 26
M  V30 26 1 16 27
M  V30 27 2 27 28
M  V30 28 1 11 29
M  V30 29 2 29 30
M  V30 30 1 30 31
M  V30 31 1 31 32
M  V30 32 1 32 33
M  V30 33 1 33 34
M  V30 34 1 34 35
M  V30 35 1 35 36
M  V30 36 1 36 37
M  V30 37 1 37 38
M  V30 38 1 31 6
M  V30 39 1 38 32
M  V30 40 1 30 8
M  V30 41 1 28 13
M  V30 42 1 25 19
M  V30 43 1 26 21
M  V30 44 1 1 39
M  V30 45 1 1 40
M  V30 46 1 1 41
M  V30 47 1 3 42
M  V30 48 1 3 43
M  V30 49 1 3 44
M  V30 50 1 7 45
M  V30 51 1 9 46
M  V30 52 1 12 47
M  V30 53 1 14 48
M  V30 54 1 15 49
M  V30 55 1 20 50
M  V30 56 1 20 51
M  V30 57 1 21 52
M  V30 58 1 22 53
M  V30 59 1 22 54
M  V30 60 1 23 55
M  V30 61 1 23 56
M  V30 62 1 24 57
M  V30 63 1 25 58
M  V30 64 1 25 59
M  V30 65 1 26 60
M  V30 66 1 27 61
M  V30 67 1 32 62
M  V30 68 1 33 63
M  V30 69 1 33 64
M  V30 70 1 34 65
M  V30 71 1 34 66
M  V30 72 1 35 67
M  V30 73 1 35 68
M  V30 74 1 36 69
M  V30 75 1 36 70
M  V30 76 1 37 71
M  V30 77 1 37 72
M  V30 78 1 38 73
M  V30 79 1 38 74
M  V30 END BOND
M  V30 END CTAB
M  END
>  <Dataset>  (631) 
ChEMBL_Kinases

>  <Ligand_Instance>  (631) 
nan

>  <PDB_ID>  (631) 
nan

>  <Standardized_SMILES>  (631) 
CN(C)C(=O)c1cc2cnc(Nc3ccc(C(=O)N4CC5CCC(C4)N5)cn3)nc2n1C1CCCCCC1

>  <Name>  (631) 
nan

>  <Pocket>  (631) 
nan

>  <ATP_Site>  (631) 
nan

>  <Peripheral>  (631) 
nan

>  <Num_H_Atoms_ProtBoundConf>  (631) 
nan

>  <Num_Resolved_Atoms>  (631) 
nan

>  <Num_Not_Resolved_Atoms>  (631) 
nan

$$$$
CHEMBL3691546
     RDKit          3D

  0  0  0  0  0  0  0  0  0  0999 V3000
M  V30 BEGIN CTAB
M  V30 COUNTS 71 76 0 0 0
M  V30 BEGIN ATOM
M  V30 1 C 1.425194 -1.673900 5.983083 0
M  V30 2 N 2.842158 -1.723589 5.587245 0
M  V30 3 C 3.622149 -2.607140 6.443632 0
M  V30 4 C 3.630980 -1.102586 4.548702 0
M  V30 5 O 4.886903 -1.273565 4.371401 0
M  V30 6 C 3.082936 -0.170385 3.536781 0
M  V30 7 C 3.408256 1.148459 3.565250 0
M  V30 8 C 2.769127 1.778305 2.545839 0
M  V30 9 C 2.740110 3.083523 2.117545 0
M  V30 10 N 2.005141 3.431958 1.061926 0
M  V30 11 C 1.277373 2.530054 0.392475 0
M  V30 12 N 0.542149 3.026804 -0.709561 0
M  V30 13 C -0.512726 2.456207 -1.462420 0
M  V30 14 C -1.069042 1.226393 -1.216633 0
M  V30 15 C -2.093614 0.650155 -1.904084 0
M  V30 16 C -2.666962 1.318773 -2.957315 0
M  V30 17 C -3.767402 0.731841 -3.702650 0
M  V30 18 O -3.845986 1.299749 -4.846853 0
M  V30 19 N -4.656989 -0.307381 -3.293353 0
M  V30 20 C -4.850799 -1.148546 -2.122747 0
M  V30 21 C -6.146856 -1.881464 -2.389461 0
M  V30 22 C -6.872102 -0.856737 -3.243385 0
M  V30 23 C -5.699129 -0.718781 -4.216121 0
M  V30 24 C -5.469949 -2.147802 -4.575248 0
M  V30 25 N -5.837543 -2.898366 -3.374402 0
M  V30 26 C -2.099728 2.546048 -3.189784 0
M  V30 27 N -1.096530 3.098816 -2.509626 0
M  V30 28 N 1.335448 1.272966 0.840413 0
M  V30 29 C 2.032336 0.824708 1.872524 0
M  V30 30 N 2.227906 -0.365407 2.479308 0
M  V30 31 C 1.719697 -1.644336 2.150241 0
M  V30 32 C 0.507050 -1.773235 1.338032 0
M  V30 33 C 0.694203 -2.446691 -0.003849 0
M  V30 34 C 1.522094 -1.711995 -0.983450 0
M  V30 35 C 2.944104 -1.464701 -0.631161 0
M  V30 36 C 3.512647 -2.287627 0.440603 0
M  V30 37 C 2.774148 -2.593865 1.654480 0
M  V30 38 H 0.998313 -2.710384 5.901590 0
M  V30 39 H 1.309176 -1.404414 7.045100 0
M  V30 40 H 0.888226 -0.991183 5.321492 0
M  V30 41 H 4.011669 -1.965913 7.271777 0
M  V30 42 H 4.471823 -3.086454 5.890432 0
M  V30 43 H 2.990931 -3.375588 6.928702 0
M  V30 44 H 4.067922 1.659038 4.267220 0
M  V30 45 H 3.306785 3.841104 2.624304 0
M  V30 46 H 0.797125 3.985826 -1.073931 0
M  V30 47 H -0.599070 0.732941 -0.376789 0
M  V30 48 H -2.379221 -0.319321 -1.553225 0
M  V30 49 H -4.886844 -0.546989 -1.193600 0
M  V30 50 H -4.031807 -1.893834 -1.986677 0
M  V30 51 H -6.676190 -2.235836 -1.526816 0
M  V30 52 H -7.776695 -1.281740 -3.729451 0
M  V30 53 H -7.045411 0.078287 -2.710291 0
M  V30 54 H -5.903731 -0.033310 -5.037470 0
M  V30 55 H -4.453106 -2.364148 -4.913189 0
M  V30 56 H -6.225290 -2.411781 -5.363962 0
M  V30 57 H -6.622073 -3.567766 -3.540051 0
M  V30 58 H -2.506865 3.146662 -4.023539 0
M  V30 59 H 1.444122 -2.105591 3.160800 0
M  V30 60 H -0.233910 -2.486284 1.841795 0
M  V30 61 H -0.100181 -0.881337 1.200298 0
M  V30 62 H -0.350709 -2.476881 -0.435538 0
M  V30 63 H 0.954802 -3.514852 0.102884 0
M  V30 64 H 1.434098 -2.299941 -1.952322 0
M  V30 65 H 1.028946 -0.750127 -1.240817 0
M  V30 66 H 3.197274 -0.378273 -0.452949 0
M  V30 67 H 3.545690 -1.670351 -1.570458 0
M  V30 68 H 4.540695 -1.856505 0.662343 0
M  V30 69 H 3.796778 -3.279744 -0.037675 0
M  V30 70 H 2.306225 -3.626176 1.669434 0
M  V30 71 H 3.521024 -2.685229 2.502803 0
M  V30 END ATOM
M  V30 BEGIN BOND
M  V30 1 1 1 2
M  V30 2 1 2 3
M  V30 3 1 2 4
M  V30 4 2 4 5
M  V30 5 1 4 6
M  V30 6 2 6 7
M  V30 7 1 7 8
M  V30 8 2 8 9
M  V30 9 1 9 10
M  V30 10 2 10 11
M  V30 11 1 11 12
M  V30 12 1 12 13
M  V30 13 2 13 14
M  V30 14 1 14 15
M  V30 15 2 15 16
M  V30 16 1 16 17
M  V30 17 2 17 18
M  V30 18 1 17 19
M  V30 19 1 19 20
M  V30 20 1 20 21
M  V30 21 1 21 22
M  V30 22 1 22 23
M  V30 23 1 23 24
M  V30 24 1 24 25
M  V30 25 1 16 26
M  V30 26 2 26 27
M  V30 27 1 11 28
M  V30 28 2 28 29
M  V30 29 1 29 30
M  V30 30 1 30 31
M  V30 31 1 31 32
M  V30 32 1 32 33
M  V30 33 1 33 34
M  V30 34 1 34 35
M  V30 35 1 35 36
M  V30 36 1 36 37
M  V30 37 1 30 6
M  V30 38 1 37 31
M  V30 39 1 29 8
M  V30 40 1 27 13
M  V30 41 1 23 19
M  V30 42 1 25 21
M  V30 43 1 1 38
M  V30 44 1 1 39
M  V30 45 1 1 40
M  V30 46 1 3 41
M  V30 47 1 3 42
M  V30 48 1 3 43
M  V30 49 1 7 44
M  V30 50 1 9 45
M  V30 51 1 12 46
M  V30 52 1 14 47
M  V30 53 1 15 48
M  V30 54 1 20 49
M  V30 55 1 20 50
M  V30 56 1 21 51
M  V30 57 1 22 52
M  V30 58 1 22 53
M  V30 59 1 23 54
M  V30 60 1 24 55
M  V30 61 1 24 56
M  V30 62 1 25 57
M  V30 63 1 26 58
M  V30 64 1 31 59
M  V30 65 1 32 60
M  V30 66 1 32 61
M  V30 67 1 33 62
M  V30 68 1 33 63
M  V30 69 1 34 64
M  V30 70 1 34 65
M  V30 71 1 35 66
M  V30 72 1 35 67
M  V30 73 1 36 68
M  V30 74 1 36 69
M  V30 75 1 37 70
M  V30 76 1 37 71
M  V30 END BOND
M  V30 END CTAB
M  END
>  <Dataset>  (632) 
ChEMBL_Kinases

>  <Ligand_Instance>  (632) 
nan

>  <PDB_ID>  (632) 
nan

>  <Standardized_SMILES>  (632) 
CN(C)C(=O)c1cc2cnc(Nc3ccc(C(=O)N4CC5CC4CN5)cn3)nc2n1C1CCCCCC1

>  <Name>  (632) 
nan

>  <Pocket>  (632) 
nan

>  <ATP_Site>  (632) 
nan

>  <Peripheral>  (632) 
nan

>  <Num_H_Atoms_ProtBoundConf>  (632) 
nan

>  <Num_Resolved_Atoms>  (632) 
nan

>  <Num_Not_Resolved_Atoms>  (632) 
nan

$$$$
CHEMBL4450215
     RDKit          3D

  0  0  0  0  0  0  0  0  0  0999 V3000
M  V30 BEGIN CTAB
M  V30 COUNTS 49 52 0 0 0
M  V30 BEGIN ATOM
M  V30 1 C 4.913733 -1.810192 6.939126 0
M  V30 2 N 4.536620 -1.146832 5.706462 0
M  V30 3 C 3.481397 -0.304963 5.635757 0
M  V30 4 C 3.460018 0.109399 4.310343 0
M  V30 5 C 4.489737 -0.486303 3.626824 0
M  V30 6 N 4.803432 -0.311693 2.232180 0
M  V30 7 C 3.912190 0.587676 1.541713 0
M  V30 8 N 4.138460 1.908471 1.460063 0
M  V30 9 C 3.246870 2.685860 0.789277 0
M  V30 10 C 2.157090 2.046906 0.233041 0
M  V30 11 C 1.920947 0.689530 0.314709 0
M  V30 12 C 0.753701 0.055592 -0.289927 0
M  V30 13 C -0.241115 0.696722 -1.000744 0
M  V30 14 C -1.308462 -0.000031 -1.534869 0
M  V30 15 N -1.374634 -1.332769 -1.355176 0
M  V30 16 C -2.521413 -2.009390 -1.941187 0 CFG=2
M  V30 17 C -2.480265 -1.956212 -3.440209 0
M  V30 18 O -2.478457 -0.685674 -3.957470 0
M  V30 19 C -3.818831 -1.564142 -1.430634 0
M  V30 20 C -4.611939 -0.529837 -1.879088 0
M  V30 21 C -5.824903 -0.193442 -1.322118 0
M  V30 22 C -6.321426 -0.890260 -0.261221 0
M  V30 23 Cl -7.849715 -0.502226 0.476549 0
M  V30 24 C -5.597093 -1.936743 0.250162 0
M  V30 25 F -6.043611 -2.662572 1.303182 0
M  V30 26 C -4.401543 -2.227650 -0.339511 0
M  V30 27 C -0.440000 -2.020775 -0.673186 0
M  V30 28 O -0.524344 -3.272302 -0.517916 0
M  V30 29 C 0.621265 -1.311196 -0.144839 0
M  V30 30 N 2.848246 -0.012336 0.994712 0
M  V30 31 N 5.120817 -1.246875 4.525824 0
M  V30 32 H 4.036018 -1.993766 7.595018 0
M  V30 33 H 5.382926 -2.781656 6.656119 0
M  V30 34 H 5.711951 -1.239309 7.470601 0
M  V30 35 H 2.810456 -0.027494 6.449927 0
M  V30 36 H 2.715265 0.797137 3.948834 0
M  V30 37 H 5.627017 -0.840422 1.862275 0
M  V30 38 H 3.386112 3.752437 0.696991 0
M  V30 39 H 1.472429 2.691152 -0.289877 0
M  V30 40 H -0.141805 1.765161 -1.116721 0
M  V30 41 H -2.017422 0.607987 -2.066329 0
M  V30 42 H -2.473746 -3.120681 -1.701088 0
M  V30 43 H -3.227826 -2.626259 -3.897544 0
M  V30 44 H -1.489693 -2.417069 -3.730625 0
M  V30 45 H -2.647144 -0.763006 -4.934206 0
M  V30 46 H -4.259730 0.041201 -2.705723 0
M  V30 47 H -6.387814 0.640732 -1.740428 0
M  V30 48 H -3.843810 -3.067835 0.088416 0
M  V30 49 H 1.372945 -1.891501 0.408132 0
M  V30 END ATOM
M  V30 BEGIN BOND
M  V30 1 1 1 2
M  V30 2 1 2 3
M  V30 3 2 3 4
M  V30 4 1 4 5
M  V30 5 1 5 6
M  V30 6 1 6 7
M  V30 7 2 7 8
M  V30 8 1 8 9
M  V30 9 2 9 10
M  V30 10 1 10 11
M  V30 11 1 11 12
M  V30 12 1 12 13
M  V30 13 2 13 14
M  V30 14 1 14 15
M  V30 15 1 15 16
M  V30 16 1 16 17
M  V30 17 1 17 18
M  V30 18 1 16 19
M  V30 19 2 19 20
M  V30 20 1 20 21
M  V30 21 2 21 22
M  V30 22 1 22 23
M  V30 23 1 22 24
M  V30 24 1 24 25
M  V30 25 2 24 26
M  V30 26 1 15 27
M  V30 27 2 27 28
M  V30 28 1 27 29
M  V30 29 2 11 30
M  V30 30 2 5 31
M  V30 31 1 31 2
M  V30 32 1 30 7
M  V30 33 2 29 12
M  V30 34 1 26 19
M  V30 35 1 1 32
M  V30 36 1 1 33
M  V30 37 1 1 34
M  V30 38 1 3 35
M  V30 39 1 4 36
M  V30 40 1 6 37
M  V30 41 1 9 38
M  V30 42 1 10 39
M  V30 43 1 13 40
M  V30 44 1 14 41
M  V30 45 1 16 42 CFG=3
M  V30 46 1 17 43
M  V30 47 1 17 44
M  V30 48 1 18 45
M  V30 49 1 20 46
M  V30 50 1 21 47
M  V30 51 1 26 48
M  V30 52 1 29 49
M  V30 END BOND
M  V30 END CTAB
M  END
>  <Dataset>  (633) 
ChEMBL_Kinases

>  <Ligand_Instance>  (633) 
nan

>  <PDB_ID>  (633) 
nan

>  <Standardized_SMILES>  (633) 
Cn1ccc(Nc2nccc(-c3ccn([C@H](CO)c4ccc(Cl)c(F)c4)c(=O)c3)n2)n1

>  <Name>  (633) 
nan

>  <Pocket>  (633) 
nan

>  <ATP_Site>  (633) 
nan

>  <Peripheral>  (633) 
nan

>  <Num_H_Atoms_ProtBoundConf>  (633) 
nan

>  <Num_Resolved_Atoms>  (633) 
nan

>  <Num_Not_Resolved_Atoms>  (633) 
nan

$$$$
CHEMBL3702093
     RDKit          3D

  0  0  0  0  0  0  0  0  0  0999 V3000
M  V30 BEGIN CTAB
M  V30 COUNTS 62 67 0 0 0
M  V30 BEGIN ATOM
M  V30 1 O 6.242644 -0.262307 6.923847 0
M  V30 2 C 5.137683 -0.961584 6.464501 0
M  V30 3 C 4.415192 -0.255601 5.329187 0
M  V30 4 C 5.380115 -0.102763 4.207263 0
M  V30 5 C 4.782279 0.145215 2.859040 0
M  V30 6 N 3.483426 -0.480211 2.694016 0
M  V30 7 C 2.553689 -0.005128 1.738550 0
M  V30 8 C 1.232567 -0.409639 1.628384 0
M  V30 9 C 0.455621 0.150546 0.620844 0
M  V30 10 C 0.894930 1.091428 -0.294990 0
M  V30 11 N 0.034087 1.610922 -1.299193 0
M  V30 12 C -1.294082 1.073540 -1.249108 0
M  V30 13 N -2.129957 1.850461 -0.537493 0
M  V30 14 C -3.424859 1.542275 -0.349698 0
M  V30 15 C -3.901966 0.363552 -0.924998 0
M  V30 16 C -5.155654 -0.211616 -0.908413 0
M  V30 17 C -6.348537 0.190213 -0.320590 0
M  V30 18 C -7.444020 -0.631329 -0.498868 0
M  V30 19 N -7.322024 -1.776704 -1.225123 0
M  V30 20 C -6.147483 -2.150936 -1.791076 0
M  V30 21 F -6.042446 -3.301875 -2.515594 0
M  V30 22 C -5.002468 -1.365300 -1.648789 0
M  V30 23 N -3.739030 -1.468754 -2.077531 0
M  V30 24 C -3.273718 -2.578343 -2.876808 0
M  V30 25 C -3.630806 -2.442252 -4.324396 0
M  V30 26 C -2.494366 -1.555035 -4.841831 0
M  V30 27 C -1.286093 -2.126160 -4.130276 0
M  V30 28 C -1.805472 -2.762988 -2.868101 0
M  V30 29 C -3.020547 -0.420315 -1.653740 0
M  V30 30 N -1.749263 -0.066686 -1.807385 0
M  V30 31 N 2.202372 1.468502 -0.158137 0
M  V30 32 C 2.961082 0.928866 0.817110 0
M  V30 33 C 3.251561 -1.606405 3.569858 0
M  V30 34 C 3.215708 -1.101063 4.988648 0
M  V30 35 H 6.315030 -0.395144 7.902484 0
M  V30 36 H 5.518364 -1.933716 6.041970 0
M  V30 37 H 4.445664 -1.278804 7.283253 0
M  V30 38 H 4.114323 0.749639 5.704913 0
M  V30 39 H 6.138408 -0.933974 4.197815 0
M  V30 40 H 5.992670 0.816528 4.446107 0
M  V30 41 H 4.756961 1.222397 2.588649 0
M  V30 42 H 5.460805 -0.325953 2.099972 0
M  V30 43 H 0.858773 -1.133659 2.318611 0
M  V30 44 H -0.573545 -0.220858 0.602684 0
M  V30 45 H 0.463190 2.321342 -1.954968 0
M  V30 46 H -4.124566 2.131957 0.208731 0
M  V30 47 H -6.387623 1.127189 0.255267 0
M  V30 48 H -8.370715 -0.320074 -0.042343 0
M  V30 49 H -3.739359 -3.506780 -2.435205 0
M  V30 50 H -4.618152 -1.971643 -4.494224 0
M  V30 51 H -3.521849 -3.438115 -4.798659 0
M  V30 52 H -2.393618 -1.605768 -5.946119 0
M  V30 53 H -2.744318 -0.519691 -4.503593 0
M  V30 54 H -0.832925 -2.892050 -4.823774 0
M  V30 55 H -0.516786 -1.358897 -3.969180 0
M  V30 56 H -1.570508 -3.846126 -2.921402 0
M  V30 57 H -1.298243 -2.393767 -1.956992 0
M  V30 58 H 3.953640 1.363618 0.741721 0
M  V30 59 H 4.127965 -2.315274 3.533391 0
M  V30 60 H 2.330368 -2.115175 3.297192 0
M  V30 61 H 3.071043 -1.956251 5.671913 0
M  V30 62 H 2.313658 -0.465716 5.096383 0
M  V30 END ATOM
M  V30 BEGIN BOND
M  V30 1 1 1 2
M  V30 2 1 2 3
M  V30 3 1 3 4
M  V30 4 1 4 5
M  V30 5 1 5 6
M  V30 6 1 6 7
M  V30 7 2 7 8
M  V30 8 1 8 9
M  V30 9 2 9 10
M  V30 10 1 10 11
M  V30 11 1 11 12
M  V30 12 2 12 13
M  V30 13 1 13 14
M  V30 14 2 14 15
M  V30 15 1 15 16
M  V30 16 2 16 17
M  V30 17 1 17 18
M  V30 18 2 18 19
M  V30 19 1 19 20
M  V30 20 1 20 21
M  V30 21 2 20 22
M  V30 22 1 22 23
M  V30 23 1 23 24
M  V30 24 1 24 25
M  V30 25 1 25 26
M  V30 26 1 26 27
M  V30 27 1 27 28
M  V30 28 1 23 29
M  V30 29 2 29 30
M  V30 30 1 10 31
M  V30 31 2 31 32
M  V30 32 1 6 33
M  V30 33 1 33 34
M  V30 34 1 34 3
M  V30 35 1 32 7
M  V30 36 1 30 12
M  V30 37 1 29 15
M  V30 38 1 22 16
M  V30 39 1 28 24
M  V30 40 1 1 35
M  V30 41 1 2 36
M  V30 42 1 2 37
M  V30 43 1 3 38
M  V30 44 1 4 39
M  V30 45 1 4 40
M  V30 46 1 5 41
M  V30 47 1 5 42
M  V30 48 1 8 43
M  V30 49 1 9 44
M  V30 50 1 11 45
M  V30 51 1 14 46
M  V30 52 1 17 47
M  V30 53 1 18 48
M  V30 54 1 24 49
M  V30 55 1 25 50
M  V30 56 1 25 51
M  V30 57 1 26 52
M  V30 58 1 26 53
M  V30 59 1 27 54
M  V30 60 1 27 55
M  V30 61 1 28 56
M  V30 62 1 28 57
M  V30 63 1 32 58
M  V30 64 1 33 59
M  V30 65 1 33 60
M  V30 66 1 34 61
M  V30 67 1 34 62
M  V30 END BOND
M  V30 END CTAB
M  END
>  <Dataset>  (634) 
ChEMBL_Kinases

>  <Ligand_Instance>  (634) 
nan

>  <PDB_ID>  (634) 
nan

>  <Standardized_SMILES>  (634) 
OCC1CCN(c2ccc(Nc3ncc4c5ccnc(F)c5n(C5CCCC5)c4n3)nc2)CC1

>  <Name>  (634) 
nan

>  <Pocket>  (634) 
nan

>  <ATP_Site>  (634) 
nan

>  <Peripheral>  (634) 
nan

>  <Num_H_Atoms_ProtBoundConf>  (634) 
nan

>  <Num_Resolved_Atoms>  (634) 
nan

>  <Num_Not_Resolved_Atoms>  (634) 
nan

$$$$
CHEMBL3716346
     RDKit          3D

  0  0  0  0  0  0  0  0  0  0999 V3000
M  V30 BEGIN CTAB
M  V30 COUNTS 43 46 0 0 0
M  V30 BEGIN ATOM
M  V30 1 C 0.637258 -1.653822 6.182922 0
M  V30 2 C 1.128297 -2.604339 5.159693 0
M  V30 3 O 2.032762 -3.450018 5.416554 0
M  V30 4 N 0.629077 -2.637067 3.838965 0
M  V30 5 C 0.800466 -3.328927 2.629948 0
M  V30 6 C 1.719870 -2.868141 1.712573 0
M  V30 7 C 1.860889 -3.572855 0.545208 0
M  V30 8 N 2.771448 -3.211506 -0.490954 0
M  V30 9 C 3.575997 -1.984974 -0.348221 0
M  V30 10 C 2.660835 -0.818123 -0.443109 0
M  V30 11 O 1.537779 -1.414425 -0.620367 0
M  V30 12 N 2.755393 0.570217 -0.389936 0
M  V30 13 C 1.485735 1.311474 -0.556425 0
M  V30 14 N 0.952513 1.684837 -1.459716 0
M  V30 15 C -0.150657 2.339141 -1.695953 0
M  V30 16 C -0.777978 2.784453 -2.870422 0
M  V30 17 C -1.961670 3.457374 -2.742109 0
M  V30 18 C -2.641367 3.766310 -1.585453 0
M  V30 19 N -3.748046 4.369767 -1.144434 0
M  V30 20 N -3.835996 4.324290 0.182710 0
M  V30 21 C -2.771111 3.676669 0.682210 0
M  V30 22 C -2.031595 3.332427 -0.426428 0
M  V30 23 C -0.801122 2.630517 -0.526213 0
M  V30 24 S 0.237336 1.940528 0.726041 0
M  V30 25 C 1.110016 -4.702596 0.297667 0
M  V30 26 C 0.194696 -5.160523 1.212775 0
M  V30 27 C 0.017204 -4.470983 2.419214 0
M  V30 28 Cl -1.133220 -4.996644 3.622355 0
M  V30 29 H 0.351610 -2.182990 7.133809 0
M  V30 30 H 1.409189 -0.857864 6.367019 0
M  V30 31 H -0.294677 -1.149701 5.834469 0
M  V30 32 H -0.126893 -1.952192 3.578364 0
M  V30 33 H 2.311895 -1.984989 1.908811 0
M  V30 34 H 2.910408 -3.760306 -1.363377 0
M  V30 35 H 4.314714 -1.913309 -1.159647 0
M  V30 36 H 4.110833 -1.999231 0.633714 0
M  V30 37 H 3.732705 0.834648 -0.234165 0
M  V30 38 H -0.360259 2.613412 -3.851215 0
M  V30 39 H -2.443410 3.804306 -3.670921 0
M  V30 40 H -4.420399 4.805875 -1.845318 0
M  V30 41 H -2.455909 3.424217 1.682084 0
M  V30 42 H 1.119301 -5.342634 -0.567522 0
M  V30 43 H -0.438950 -6.031687 1.113588 0
M  V30 END ATOM
M  V30 BEGIN BOND
M  V30 1 1 1 2
M  V30 2 2 2 3
M  V30 3 1 2 4
M  V30 4 1 4 5
M  V30 5 2 5 6
M  V30 6 1 6 7
M  V30 7 1 7 8
M  V30 8 1 8 9
M  V30 9 1 9 10
M  V30 10 2 10 11
M  V30 11 1 10 12
M  V30 12 1 12 13
M  V30 13 2 13 14
M  V30 14 1 14 15
M  V30 15 2 15 16
M  V30 16 1 16 17
M  V30 17 2 17 18
M  V30 18 1 18 19
M  V30 19 1 19 20
M  V30 20 2 20 21
M  V30 21 1 21 22
M  V30 22 2 22 23
M  V30 23 1 23 24
M  V30 24 2 7 25
M  V30 25 1 25 26
M  V30 26 2 26 27
M  V30 27 1 27 28
M  V30 28 1 27 5
M  V30 29 1 24 13
M  V30 30 1 23 15
M  V30 31 1 22 18
M  V30 32 1 1 29
M  V30 33 1 1 30
M  V30 34 1 1 31
M  V30 35 1 4 32
M  V30 36 1 6 33
M  V30 37 1 8 34
M  V30 38 1 9 35
M  V30 39 1 9 36
M  V30 40 1 12 37
M  V30 41 1 16 38
M  V30 42 1 17 39
M  V30 43 1 19 40
M  V30 44 1 21 41
M  V30 45 1 25 42
M  V30 46 1 26 43
M  V30 END BOND
M  V30 END CTAB
M  END
>  <Dataset>  (635) 
ChEMBL_Kinases

>  <Ligand_Instance>  (635) 
nan

>  <PDB_ID>  (635) 
nan

>  <Standardized_SMILES>  (635) 
CC(=O)Nc1cc(NCC(=O)Nc2nc3ccc4[nH]ncc4c3s2)ccc1Cl

>  <Name>  (635) 
nan

>  <Pocket>  (635) 
nan

>  <ATP_Site>  (635) 
nan

>  <Peripheral>  (635) 
nan

>  <Num_H_Atoms_ProtBoundConf>  (635) 
nan

>  <Num_Resolved_Atoms>  (635) 
nan

>  <Num_Not_Resolved_Atoms>  (635) 
nan

$$$$
CHEMBL3689503
     RDKit          3D

  0  0  0  0  0  0  0  0  0  0999 V3000
M  V30 BEGIN CTAB
M  V30 COUNTS 52 55 0 0 0
M  V30 BEGIN ATOM
M  V30 1 O -1.556230 -3.040664 4.288049 0
M  V30 2 C -1.317284 -4.398974 4.271542 0
M  V30 3 C 0.108396 -4.770438 4.477735 0
M  V30 4 O 1.041813 -4.324837 3.596977 0
M  V30 5 C 1.552943 -3.183221 3.158083 0
M  V30 6 C 2.515923 -3.522365 2.184377 0
M  V30 7 C 3.265656 -2.547499 1.500710 0
M  V30 8 C 3.021542 -1.227008 1.821498 0
M  V30 9 C 2.104073 -0.804661 2.755350 0
M  V30 10 C 1.789593 0.566525 3.154811 0
M  V30 11 N 0.769911 1.234878 2.440036 0
M  V30 12 C -0.526106 0.650692 2.437495 0
M  V30 13 C -1.154222 1.088792 1.099573 0
M  V30 14 C 0.107206 0.992299 0.243709 0 CFG=1
M  V30 15 N -0.008478 1.486635 -1.059636 0
M  V30 16 C -0.472863 1.484338 -2.381425 0
M  V30 17 C -0.167824 2.512286 -3.290542 0
M  V30 18 C -0.597839 2.531465 -4.589740 0
M  V30 19 C -1.361494 1.464686 -4.962390 0
M  V30 20 C -1.735618 0.395981 -4.187762 0
M  V30 21 C -2.504374 -0.659554 -4.627074 0
M  V30 22 N -2.825956 -1.683992 -3.809565 0
M  V30 23 C -2.400719 -1.706507 -2.525520 0
M  V30 24 C -1.637065 -0.636983 -2.123805 0
M  V30 25 C -1.253160 0.453566 -2.869362 0
M  V30 26 C 1.060174 1.772976 1.169900 0
M  V30 27 C 1.421259 -1.831589 3.370184 0
M  V30 28 H -2.525617 -2.881639 4.383705 0
M  V30 29 H -1.985288 -4.876957 5.047148 0
M  V30 30 H -1.734388 -4.787543 3.310281 0
M  V30 31 H 0.112511 -5.899263 4.604487 0
M  V30 32 H 0.400691 -4.369104 5.504588 0
M  V30 33 H 2.833660 -4.511524 1.808853 0
M  V30 34 H 4.018702 -2.722856 0.747566 0
M  V30 35 H 3.581925 -0.433685 1.314361 0
M  V30 36 H 2.751247 1.138400 3.194272 0
M  V30 37 H 1.465087 0.545495 4.238575 0
M  V30 38 H -1.185815 0.917705 3.273858 0
M  V30 39 H -0.462159 -0.457026 2.406616 0
M  V30 40 H -1.970737 0.455534 0.807623 0
M  V30 41 H -1.392053 2.164883 1.243619 0
M  V30 42 H 0.404474 -0.085453 0.313109 0
M  V30 43 H 0.607520 2.317171 -0.939470 0
M  V30 44 H 0.450531 3.369827 -2.973530 0
M  V30 45 H -0.322561 3.355132 -5.227061 0
M  V30 46 H -1.708547 1.467722 -5.989875 0
M  V30 47 H -2.790705 -0.546577 -5.660357 0
M  V30 48 H -2.656591 -2.526253 -1.870526 0
M  V30 49 H -1.311310 -0.699682 -1.106008 0
M  V30 50 H 0.756808 2.827782 1.054896 0
M  V30 51 H 2.100402 1.678704 0.823340 0
M  V30 52 H 0.687300 -1.634162 4.130410 0
M  V30 END ATOM
M  V30 BEGIN BOND
M  V30 1 1 1 2
M  V30 2 1 2 3
M  V30 3 1 3 4
M  V30 4 1 4 5
M  V30 5 2 5 6
M  V30 6 1 6 7
M  V30 7 2 7 8
M  V30 8 1 8 9
M  V30 9 1 9 10
M  V30 10 1 10 11
M  V30 11 1 11 12
M  V30 12 1 12 13
M  V30 13 1 13 14
M  V30 14 1 14 15
M  V30 15 1 15 16
M  V30 16 2 16 17
M  V30 17 1 17 18
M  V30 18 2 18 19
M  V30 19 1 19 20
M  V30 20 2 20 21
M  V30 21 1 21 22
M  V30 22 2 22 23
M  V30 23 1 23 24
M  V30 24 2 24 25
M  V30 25 1 14 26
M  V30 26 2 9 27
M  V30 27 1 27 5
M  V30 28 1 26 11
M  V30 29 1 25 16
M  V30 30 1 25 20
M  V30 31 1 1 28
M  V30 32 1 2 29
M  V30 33 1 2 30
M  V30 34 1 3 31
M  V30 35 1 3 32
M  V30 36 1 6 33
M  V30 37 1 7 34
M  V30 38 1 8 35
M  V30 39 1 10 36
M  V30 40 1 10 37
M  V30 41 1 12 38
M  V30 42 1 12 39
M  V30 43 1 13 40
M  V30 44 1 13 41
M  V30 45 1 14 42 CFG=3
M  V30 46 1 15 43
M  V30 47 1 17 44
M  V30 48 1 18 45
M  V30 49 1 19 46
M  V30 50 1 21 47
M  V30 51 1 23 48
M  V30 52 1 24 49
M  V30 53 1 26 50
M  V30 54 1 26 51
M  V30 55 1 27 52
M  V30 END BOND
M  V30 END CTAB
M  END
>  <Dataset>  (636) 
ChEMBL_Kinases

>  <Ligand_Instance>  (636) 
nan

>  <PDB_ID>  (636) 
nan

>  <Standardized_SMILES>  (636) 
OCCOc1cccc(CN2CC[C@@H](Nc3cccc4cnccc34)C2)c1

>  <Name>  (636) 
nan

>  <Pocket>  (636) 
nan

>  <ATP_Site>  (636) 
nan

>  <Peripheral>  (636) 
nan

>  <Num_H_Atoms_ProtBoundConf>  (636) 
nan

>  <Num_Resolved_Atoms>  (636) 
nan

>  <Num_Not_Resolved_Atoms>  (636) 
nan

$$$$
CHEMBL4449858
     RDKit          3D

  0  0  0  0  0  0  0  0  0  0999 V3000
M  V30 BEGIN CTAB
M  V30 COUNTS 76 80 0 0 0
M  V30 BEGIN ATOM
M  V30 1 C 4.423140 -2.032665 4.811021 0
M  V30 2 C 4.294346 -1.824005 3.305863 0
M  V30 3 O 3.081512 -1.193216 3.035846 0
M  V30 4 C 2.605494 -0.835350 1.778992 0
M  V30 5 C 3.311014 -1.074612 0.602231 0
M  V30 6 C 2.830280 -0.716002 -0.640137 0
M  V30 7 C 3.653701 -1.012523 -1.829786 0
M  V30 8 C 2.931641 -2.029002 -2.665467 0
M  V30 9 C 3.458234 -2.144268 -4.072314 0
M  V30 10 N 3.668719 -0.893938 -4.734380 0
M  V30 11 C 4.899780 -0.808394 -5.469647 0
M  V30 12 C 3.375499 0.266863 -3.939181 0
M  V30 13 C 4.089944 0.190306 -2.583682 0
M  V30 14 C 1.598551 -0.093075 -0.730502 0
M  V30 15 C 0.920905 0.133860 0.430728 0
M  V30 16 C 1.358075 -0.205264 1.696671 0
M  V30 17 N 0.571021 0.076057 2.870549 0
M  V30 18 C -0.699787 0.727255 2.667432 0
M  V30 19 N -0.772617 2.085186 2.659889 0
M  V30 20 C -1.937349 2.732826 2.474595 0
M  V30 21 C -3.057709 1.927328 2.292037 0
M  V30 22 C -2.994065 0.539440 2.298024 0
M  V30 23 N -1.794943 -0.039848 2.489036 0
M  V30 24 N -4.139230 -0.282686 2.112591 0
M  V30 25 C -4.183952 -1.671501 2.471666 0
M  V30 26 C -3.251340 -2.545815 1.822066 0
M  V30 27 C -3.302056 -3.268611 0.673968 0
M  V30 28 C -2.243864 -4.044798 0.277599 0
M  V30 29 C -2.212295 -4.863772 -0.963559 0
M  V30 30 C -1.114162 -4.046395 1.124833 0
M  V30 31 S -1.604264 -2.912930 2.496839 0
M  V30 32 C -5.292995 0.360795 1.528681 0 CFG=2
M  V30 33 C -5.337890 0.166289 0.024425 0
M  V30 34 C -4.087083 0.759601 -0.625085 0
M  V30 35 C -5.468152 1.764456 1.903677 0
M  V30 36 O -6.581356 2.298608 2.066115 0
M  V30 37 N -4.307773 2.561034 2.092827 0
M  V30 38 C -4.373906 4.028105 2.086330 0
M  V30 39 H 3.593251 -1.528503 5.357516 0
M  V30 40 H 5.361860 -1.593646 5.211538 0
M  V30 41 H 4.400838 -3.091736 5.101187 0
M  V30 42 H 4.374503 -2.790362 2.769855 0
M  V30 43 H 5.102586 -1.107766 3.023800 0
M  V30 44 H 4.267991 -1.566791 0.760179 0
M  V30 45 H 4.593059 -1.510367 -1.452480 0
M  V30 46 H 3.095811 -3.030122 -2.184286 0
M  V30 47 H 1.817501 -1.891131 -2.653173 0
M  V30 48 H 2.670992 -2.687192 -4.669138 0
M  V30 49 H 4.354265 -2.785271 -4.139617 0
M  V30 50 H 5.781547 -1.223584 -4.932934 0
M  V30 51 H 5.041409 0.232032 -5.793533 0
M  V30 52 H 4.795941 -1.432995 -6.393572 0
M  V30 53 H 2.295683 0.371308 -3.841193 0
M  V30 54 H 3.797232 1.140550 -4.507455 0
M  V30 55 H 5.182463 0.184225 -2.830978 0
M  V30 56 H 3.896112 1.149582 -2.084136 0
M  V30 57 H 1.197294 0.198724 -1.686884 0
M  V30 58 H -0.036858 0.620436 0.337981 0
M  V30 59 H 0.981417 -0.213541 3.777930 0
M  V30 60 H -2.021078 3.803819 2.464149 0
M  V30 61 H -3.989943 -1.720886 3.585078 0
M  V30 62 H -5.227771 -2.040394 2.375921 0
M  V30 63 H -4.213722 -3.198283 0.096655 0
M  V30 64 H -1.203236 -4.746593 -1.458406 0
M  V30 65 H -2.416161 -5.928435 -0.738385 0
M  V30 66 H -2.927982 -4.482607 -1.718315 0
M  V30 67 H -0.179064 -4.597013 0.982523 0
M  V30 68 H -6.198101 -0.191225 1.915724 0
M  V30 69 H -6.196162 0.693752 -0.415796 0
M  V30 70 H -5.413650 -0.905530 -0.245979 0
M  V30 71 H -3.216408 0.270613 -0.141761 0
M  V30 72 H -4.123420 0.547216 -1.705935 0
M  V30 73 H -4.093387 1.864724 -0.480957 0
M  V30 74 H -5.423301 4.302758 1.841256 0
M  V30 75 H -4.097884 4.465222 3.055405 0
M  V30 76 H -3.706089 4.359848 1.264876 0
M  V30 END ATOM
M  V30 BEGIN BOND
M  V30 1 1 1 2
M  V30 2 1 2 3
M  V30 3 1 3 4
M  V30 4 2 4 5
M  V30 5 1 5 6
M  V30 6 1 6 7
M  V30 7 1 7 8
M  V30 8 1 8 9
M  V30 9 1 9 10
M  V30 10 1 10 11
M  V30 11 1 10 12
M  V30 12 1 12 13
M  V30 13 2 6 14
M  V30 14 1 14 15
M  V30 15 2 15 16
M  V30 16 1 16 17
M  V30 17 1 17 18
M  V30 18 2 18 19
M  V30 19 1 19 20
M  V30 20 2 20 21
M  V30 21 1 21 22
M  V30 22 2 22 23
M  V30 23 1 22 24
M  V30 24 1 24 25
M  V30 25 1 25 26
M  V30 26 2 26 27
M  V30 27 1 27 28
M  V30 28 1 28 29
M  V30 29 2 28 30
M  V30 30 1 30 31
M  V30 31 1 24 32
M  V30 32 1 32 33
M  V30 33 1 33 34
M  V30 34 1 32 35
M  V30 35 2 35 36
M  V30 36 1 35 37
M  V30 37 1 37 38
M  V30 38 1 16 4
M  V30 39 1 23 18
M  V30 40 1 31 26
M  V30 41 1 13 7
M  V30 42 1 37 21
M  V30 43 1 1 39
M  V30 44 1 1 40
M  V30 45 1 1 41
M  V30 46 1 2 42
M  V30 47 1 2 43
M  V30 48 1 5 44
M  V30 49 1 7 45
M  V30 50 1 8 46
M  V30 51 1 8 47
M  V30 52 1 9 48
M  V30 53 1 9 49
M  V30 54 1 11 50
M  V30 55 1 11 51
M  V30 56 1 11 52
M  V30 57 1 12 53
M  V30 58 1 12 54
M  V30 59 1 13 55
M  V30 60 1 13 56
M  V30 61 1 14 57
M  V30 62 1 15 58
M  V30 63 1 17 59
M  V30 64 1 20 60
M  V30 65 1 25 61
M  V30 66 1 25 62
M  V30 67 1 27 63
M  V30 68 1 29 64
M  V30 69 1 29 65
M  V30 70 1 29 66
M  V30 71 1 30 67
M  V30 72 1 32 68 CFG=1
M  V30 73 1 33 69
M  V30 74 1 33 70
M  V30 75 1 34 71
M  V30 76 1 34 72
M  V30 77 1 34 73
M  V30 78 1 38 74
M  V30 79 1 38 75
M  V30 80 1 38 76
M  V30 END BOND
M  V30 END CTAB
M  END
>  <Dataset>  (637) 
ChEMBL_Kinases

>  <Ligand_Instance>  (637) 
nan

>  <PDB_ID>  (637) 
nan

>  <Standardized_SMILES>  (637) 
CCOc1cc(C2CCN(C)CC2)ccc1Nc1ncc2c(n1)N(Cc1cc(C)cs1)[C@H](CC)C(=O)N2C

>  <Name>  (637) 
nan

>  <Pocket>  (637) 
nan

>  <ATP_Site>  (637) 
nan

>  <Peripheral>  (637) 
nan

>  <Num_H_Atoms_ProtBoundConf>  (637) 
nan

>  <Num_Resolved_Atoms>  (637) 
nan

>  <Num_Not_Resolved_Atoms>  (637) 
nan

$$$$
CHEMBL4574187
     RDKit          3D

  0  0  0  0  0  0  0  0  0  0999 V3000
M  V30 BEGIN CTAB
M  V30 COUNTS 50 54 0 0 0
M  V30 BEGIN ATOM
M  V30 1 C 4.196887 -2.106145 -1.994439 0
M  V30 2 C 3.814450 -2.921721 -0.813692 0
M  V30 3 C 3.848973 -4.301307 -0.884709 0
M  V30 4 C 3.488834 -5.031538 0.226296 0
M  V30 5 C 3.094913 -4.453560 1.407338 0
M  V30 6 C 3.049124 -3.058093 1.511880 0
M  V30 7 N 2.654094 -2.432200 2.719354 0
M  V30 8 C 2.520555 -1.028501 3.037191 0
M  V30 9 C 1.457909 -0.348231 2.246894 0
M  V30 10 N 1.292203 0.332245 1.102807 0
M  V30 11 C 0.016642 0.712363 0.925956 0
M  V30 12 C -0.319135 1.468846 -0.275127 0
M  V30 13 C -0.671554 2.791572 -0.120927 0
M  V30 14 C -0.996125 3.522897 -1.236907 0
M  V30 15 C -0.952343 2.898093 -2.448010 0
M  V30 16 N -1.278606 3.555470 -3.773650 0
M  V30 17 S -1.092826 2.435293 -4.951697 0
M  V30 18 N -0.578400 1.002111 -3.889159 0
M  V30 19 C -0.623800 1.624549 -2.697843 0
M  V30 20 C -0.306515 0.931472 -1.549020 0
M  V30 21 C -0.673499 0.246499 2.022773 0
M  V30 22 C -2.103635 0.472339 2.175329 0
M  V30 23 C -2.814804 1.631804 2.397959 0
M  V30 24 C -4.186035 1.581169 2.499244 0
M  V30 25 C -4.811127 0.359528 2.373626 0
M  V30 26 C -4.114449 -0.799495 2.152395 0
M  V30 27 C -4.864324 -2.075751 2.028841 0
M  V30 28 N -2.777083 -0.694456 2.061506 0
M  V30 29 N 0.212433 -0.389382 2.806367 0
M  V30 30 C 3.414684 -2.354985 0.385849 0
M  V30 31 H 4.134295 -2.744335 -2.890906 0
M  V30 32 H 5.236438 -1.746399 -1.941850 0
M  V30 33 H 3.517276 -1.246675 -2.148659 0
M  V30 34 H 4.146977 -4.831913 -1.776405 0
M  V30 35 H 3.500949 -6.112379 0.216645 0
M  V30 36 H 2.818416 -5.056127 2.262259 0
M  V30 37 H 2.413452 -3.079937 3.529157 0
M  V30 38 H 3.486537 -0.545394 2.685022 0
M  V30 39 H 2.446833 -0.834026 4.106200 0
M  V30 40 H -0.721384 3.344228 0.808009 0
M  V30 41 H -1.284890 4.560506 -1.228274 0
M  V30 42 H -0.009427 -0.119951 -1.516269 0
M  V30 43 H -2.181638 2.493691 2.475195 0
M  V30 44 H -4.673825 2.542687 2.675492 0
M  V30 45 H -5.896527 0.407599 2.466287 0
M  V30 46 H -5.811278 -2.044281 2.565715 0
M  V30 47 H -5.087924 -2.192315 0.935061 0
M  V30 48 H -4.265364 -2.913164 2.422351 0
M  V30 49 H -0.179016 -0.807546 3.702303 0
M  V30 50 H 3.414182 -1.286592 0.375507 0
M  V30 END ATOM
M  V30 BEGIN BOND
M  V30 1 1 1 2
M  V30 2 2 2 3
M  V30 3 1 3 4
M  V30 4 2 4 5
M  V30 5 1 5 6
M  V30 6 1 6 7
M  V30 7 1 7 8
M  V30 8 1 8 9
M  V30 9 2 9 10
M  V30 10 1 10 11
M  V30 11 1 11 12
M  V30 12 1 12 13
M  V30 13 2 13 14
M  V30 14 1 14 15
M  V30 15 2 15 16
M  V30 16 1 16 17
M  V30 17 1 17 18
M  V30 18 2 18 19
M  V30 19 1 19 20
M  V30 20 2 11 21
M  V30 21 1 21 22
M  V30 22 2 22 23
M  V30 23 1 23 24
M  V30 24 2 24 25
M  V30 25 1 25 26
M  V30 26 1 26 27
M  V30 27 2 26 28
M  V30 28 1 21 29
M  V30 29 2 6 30
M  V30 30 1 30 2
M  V30 31 1 29 9
M  V30 32 2 20 12
M  V30 33 1 28 22
M  V30 34 1 19 15
M  V30 35 1 1 31
M  V30 36 1 1 32
M  V30 37 1 1 33
M  V30 38 1 3 34
M  V30 39 1 4 35
M  V30 40 1 5 36
M  V30 41 1 7 37
M  V30 42 1 8 38
M  V30 43 1 8 39
M  V30 44 1 13 40
M  V30 45 1 14 41
M  V30 46 1 20 42
M  V30 47 1 23 43
M  V30 48 1 24 44
M  V30 49 1 25 45
M  V30 50 1 27 46
M  V30 51 1 27 47
M  V30 52 1 27 48
M  V30 53 1 29 49
M  V30 54 1 30 50
M  V30 END BOND
M  V30 END CTAB
M  END
>  <Dataset>  (638) 
ChEMBL_Kinases

>  <Ligand_Instance>  (638) 
nan

>  <PDB_ID>  (638) 
nan

>  <Standardized_SMILES>  (638) 
Cc1cccc(NCc2nc(-c3ccc4nsnc4c3)c(-c3cccc(C)n3)[nH]2)c1

>  <Name>  (638) 
nan

>  <Pocket>  (638) 
nan

>  <ATP_Site>  (638) 
nan

>  <Peripheral>  (638) 
nan

>  <Num_H_Atoms_ProtBoundConf>  (638) 
nan

>  <Num_Resolved_Atoms>  (638) 
nan

>  <Num_Not_Resolved_Atoms>  (638) 
nan

$$$$
CHEMBL3716416
     RDKit          3D

  0  0  0  0  0  0  0  0  0  0999 V3000
M  V30 BEGIN CTAB
M  V30 COUNTS 55 57 0 0 0
M  V30 BEGIN ATOM
M  V30 1 C -8.197106 -5.077140 -2.148245 0
M  V30 2 C -7.236298 -4.648070 -3.236965 0
M  V30 3 C -6.199961 -3.705284 -2.753651 0
M  V30 4 C -6.366863 -2.356108 -2.766733 0
M  V30 5 C -5.464870 -1.419266 -2.341583 0
M  V30 6 C -4.253725 -1.903639 -1.845722 0
M  V30 7 C -3.196717 -1.022644 -1.356917 0
M  V30 8 C -2.308003 -1.349940 -0.354189 0
M  V30 9 C -1.322901 -0.440454 0.051724 0
M  V30 10 C -1.225550 0.798854 -0.545545 0
M  V30 11 C -0.182652 1.712995 -0.094028 0
M  V30 12 O 0.574757 1.260271 0.825842 0
M  V30 13 N 0.042130 3.016353 -0.583540 0
M  V30 14 C 1.067556 3.910074 -0.141818 0
M  V30 15 C 2.439005 3.338571 -0.365039 0
M  V30 16 O 2.310377 2.204476 -0.896457 0
M  V30 17 N 3.641459 3.992678 -0.023776 0
M  V30 18 C 4.874969 3.308191 -0.304513 0
M  V30 19 C 5.034445 2.013513 0.360894 0
M  V30 20 C 4.864337 0.852634 -0.366598 0
M  V30 21 C 4.996946 -0.404749 0.188533 0
M  V30 22 C 5.313263 -0.522477 1.528265 0
M  V30 23 C 5.475198 0.656368 2.221039 0
M  V30 24 C 5.352447 1.944814 1.707991 0
M  V30 25 C 5.550196 3.130617 2.546803 0
M  V30 26 F 5.861267 2.702399 3.846295 0
M  V30 27 F 4.391891 3.884394 2.699969 0
M  V30 28 F 6.633365 3.890867 2.158675 0
M  V30 29 C -2.131931 1.086836 -1.542590 0
M  V30 30 C -3.118808 0.225946 -1.977194 0
M  V30 31 C -4.036738 -3.282423 -1.812475 0
M  V30 32 C -4.993109 -4.196862 -2.259900 0
M  V30 33 H -8.879276 -4.275672 -1.839903 0
M  V30 34 H -8.749512 -5.962310 -2.558913 0
M  V30 35 H -7.575538 -5.486473 -1.318430 0
M  V30 36 H -6.747775 -5.584878 -3.610171 0
M  V30 37 H -7.791551 -4.253428 -4.107641 0
M  V30 38 H -7.295721 -1.924945 -3.144333 0
M  V30 39 H -5.589491 -0.358349 -2.349204 0
M  V30 40 H -2.403835 -2.331785 0.101914 0
M  V30 41 H -0.675376 -0.785414 0.841428 0
M  V30 42 H -0.639375 3.289104 -1.335851 0
M  V30 43 H 0.958978 4.254062 0.896593 0
M  V30 44 H 1.039361 4.816619 -0.780363 0
M  V30 45 H 3.446352 4.943329 0.411357 0
M  V30 46 H 5.722738 4.015821 -0.112279 0
M  V30 47 H 4.900075 3.170611 -1.421098 0
M  V30 48 H 4.614225 0.816257 -1.433193 0
M  V30 49 H 4.870028 -1.338545 -0.354165 0
M  V30 50 H 5.436496 -1.468784 2.045296 0
M  V30 51 H 5.725144 0.577767 3.279861 0
M  V30 52 H -2.086149 2.046343 -2.032239 0
M  V30 53 H -3.797815 0.521506 -2.768597 0
M  V30 54 H -3.095419 -3.648761 -1.426547 0
M  V30 55 H -4.775799 -5.264989 -2.213031 0
M  V30 END ATOM
M  V30 BEGIN BOND
M  V30 1 1 1 2
M  V30 2 1 2 3
M  V30 3 2 3 4
M  V30 4 1 4 5
M  V30 5 2 5 6
M  V30 6 1 6 7
M  V30 7 2 7 8
M  V30 8 1 8 9
M  V30 9 2 9 10
M  V30 10 1 10 11
M  V30 11 2 11 12
M  V30 12 1 11 13
M  V30 13 1 13 14
M  V30 14 1 14 15
M  V30 15 2 15 16
M  V30 16 1 15 17
M  V30 17 1 17 18
M  V30 18 1 18 19
M  V30 19 2 19 20
M  V30 20 1 20 21
M  V30 21 2 21 22
M  V30 22 1 22 23
M  V30 23 2 23 24
M  V30 24 1 24 25
M  V30 25 1 25 26
M  V30 26 1 25 27
M  V30 27 1 25 28
M  V30 28 1 10 29
M  V30 29 2 29 30
M  V30 30 1 6 31
M  V30 31 2 31 32
M  V30 32 1 32 3
M  V30 33 1 30 7
M  V30 34 1 24 19
M  V30 35 1 1 33
M  V30 36 1 1 34
M  V30 37 1 1 35
M  V30 38 1 2 36
M  V30 39 1 2 37
M  V30 40 1 4 38
M  V30 41 1 5 39
M  V30 42 1 8 40
M  V30 43 1 9 41
M  V30 44 1 13 42
M  V30 45 1 14 43
M  V30 46 1 14 44
M  V30 47 1 17 45
M  V30 48 1 18 46
M  V30 49 1 18 47
M  V30 50 1 20 48
M  V30 51 1 21 49
M  V30 52 1 22 50
M  V30 53 1 23 51
M  V30 54 1 29 52
M  V30 55 1 30 53
M  V30 56 1 31 54
M  V30 57 1 32 55
M  V30 END BOND
M  V30 END CTAB
M  END
>  <Dataset>  (639) 
ChEMBL_Kinases

>  <Ligand_Instance>  (639) 
nan

>  <PDB_ID>  (639) 
nan

>  <Standardized_SMILES>  (639) 
CCc1ccc(-c2ccc(C(=O)NCC(=O)NCc3ccccc3C(F)(F)F)cc2)cc1

>  <Name>  (639) 
nan

>  <Pocket>  (639) 
nan

>  <ATP_Site>  (639) 
nan

>  <Peripheral>  (639) 
nan

>  <Num_H_Atoms_ProtBoundConf>  (639) 
nan

>  <Num_Resolved_Atoms>  (639) 
nan

>  <Num_Not_Resolved_Atoms>  (639) 
nan

$$$$
CHEMBL4449736
     RDKit          3D

  0  0  0  0  0  0  0  0  0  0999 V3000
M  V30 BEGIN CTAB
M  V30 COUNTS 41 44 0 0 0
M  V30 BEGIN ATOM
M  V30 1 O 2.972113 0.159951 -3.289466 0
M  V30 2 C 2.309786 -0.223706 -2.318117 0
M  V30 3 N 1.440369 -1.349507 -2.344404 0
M  V30 4 C 0.760879 -1.617593 -1.059649 0
M  V30 5 C 1.172868 -2.952831 -0.580246 0
M  V30 6 C 0.149921 -3.789076 0.096205 0
M  V30 7 C -1.128594 -3.776820 -0.679772 0
M  V30 8 C -1.634622 -2.360230 -0.683852 0
M  V30 9 C -0.681207 -1.390164 -1.308873 0
M  V30 10 N 1.311593 -0.521510 -0.266548 0
M  V30 11 C 2.173462 0.257225 -0.947117 0
M  V30 12 C 2.782799 1.334905 -0.338364 0
M  V30 13 Cl 3.898387 2.329830 -1.245244 0
M  V30 14 C 2.545148 1.666932 0.979057 0
M  V30 15 C 1.660897 0.879568 1.700297 0
M  V30 16 N 1.374230 1.164838 3.059121 0
M  V30 17 C 0.149955 1.489012 3.698708 0
M  V30 18 C -0.997315 1.626221 2.959739 0
M  V30 19 C -2.163452 1.938261 3.615562 0
M  V30 20 N -2.188725 2.108267 4.960076 0
M  V30 21 C -1.041549 1.964795 5.647249 0
M  V30 22 C 0.187090 1.648313 5.056647 0
M  V30 23 C 1.084385 -0.191949 1.017726 0
M  V30 24 O 0.293405 -0.866960 1.724539 0
M  V30 25 H 1.210570 -2.015354 -3.137122 0
M  V30 26 H 2.106180 -2.818442 0.024311 0
M  V30 27 H 1.532151 -3.557165 -1.465837 0
M  V30 28 H 0.549982 -4.831140 0.138126 0
M  V30 29 H -0.111329 -3.508167 1.128680 0
M  V30 30 H -1.086137 -4.235227 -1.667535 0
M  V30 31 H -1.869536 -4.375274 -0.096138 0
M  V30 32 H -1.887323 -2.069199 0.352187 0
M  V30 33 H -2.577437 -2.344027 -1.267554 0
M  V30 34 H -0.968825 -0.383422 -0.925918 0
M  V30 35 H -0.927133 -1.325414 -2.409269 0
M  V30 36 H 3.034012 2.518623 1.440913 0
M  V30 37 H 2.285111 1.092136 3.558075 0
M  V30 38 H -1.056657 1.509337 1.897673 0
M  V30 39 H -3.146020 2.075702 3.145610 0
M  V30 40 H -1.036626 2.096410 6.727523 0
M  V30 41 H 1.070032 1.546799 5.658080 0
M  V30 END ATOM
M  V30 BEGIN BOND
M  V30 1 2 1 2
M  V30 2 1 2 3
M  V30 3 1 3 4
M  V30 4 1 4 5
M  V30 5 1 5 6
M  V30 6 1 6 7
M  V30 7 1 7 8
M  V30 8 1 8 9
M  V30 9 1 4 10
M  V30 10 1 10 11
M  V30 11 2 11 12
M  V30 12 1 12 13
M  V30 13 1 12 14
M  V30 14 2 14 15
M  V30 15 1 15 16
M  V30 16 1 16 17
M  V30 17 2 17 18
M  V30 18 1 18 19
M  V30 19 2 19 20
M  V30 20 1 20 21
M  V30 21 2 21 22
M  V30 22 1 15 23
M  V30 23 2 23 24
M  V30 24 1 11 2
M  V30 25 1 22 17
M  V30 26 1 9 4
M  V30 27 1 23 10
M  V30 28 1 3 25
M  V30 29 1 5 26
M  V30 30 1 5 27
M  V30 31 1 6 28
M  V30 32 1 6 29
M  V30 33 1 7 30
M  V30 34 1 7 31
M  V30 35 1 8 32
M  V30 36 1 8 33
M  V30 37 1 9 34
M  V30 38 1 9 35
M  V30 39 1 14 36
M  V30 40 1 16 37
M  V30 41 1 18 38
M  V30 42 1 19 39
M  V30 43 1 21 40
M  V30 44 1 22 41
M  V30 END BOND
M  V30 END CTAB
M  END
>  <Dataset>  (640) 
ChEMBL_Kinases

>  <Ligand_Instance>  (640) 
nan

>  <PDB_ID>  (640) 
nan

>  <Standardized_SMILES>  (640) 
O=C1NC2(CCCCC2)n2c1c(Cl)cc(Nc1ccncc1)c2=O

>  <Name>  (640) 
nan

>  <Pocket>  (640) 
nan

>  <ATP_Site>  (640) 
nan

>  <Peripheral>  (640) 
nan

>  <Num_H_Atoms_ProtBoundConf>  (640) 
nan

>  <Num_Resolved_Atoms>  (640) 
nan

>  <Num_Not_Resolved_Atoms>  (640) 
nan

$$$$
CHEMBL3716523
     RDKit          3D

  0  0  0  0  0  0  0  0  0  0999 V3000
M  V30 BEGIN CTAB
M  V30 COUNTS 58 61 0 0 0
M  V30 BEGIN ATOM
M  V30 1 C 1.914446 -1.515585 2.987498 0
M  V30 2 C 0.662667 -0.911184 2.389776 0
M  V30 3 C -0.125722 -0.100373 3.387272 0
M  V30 4 N 0.938082 -0.078749 1.237779 0
M  V30 5 C 1.764215 1.072913 1.287704 0
M  V30 6 C 2.386167 1.515902 2.433363 0
M  V30 7 C 3.195886 2.625617 2.526579 0
M  V30 8 C 3.416929 3.372999 1.387056 0
M  V30 9 Cl 4.440331 4.790439 1.465296 0
M  V30 10 C 2.818865 2.975379 0.211915 0
M  V30 11 C 3.080228 3.788704 -0.948696 0
M  V30 12 O 4.256396 3.918797 -1.426752 0
M  V30 13 N 1.985067 4.472070 -1.584644 0
M  V30 14 C 2.156698 5.305737 -2.748857 0
M  V30 15 C 0.842612 5.903119 -3.210560 0
M  V30 16 C 0.237949 6.747859 -2.127549 0
M  V30 17 O 0.781559 6.913835 -0.992674 0
M  V30 18 O -0.969635 7.367063 -2.397730 0
M  V30 19 C 2.019465 1.852784 0.190090 0
M  V30 20 C -0.257959 -2.007801 1.901482 0
M  V30 21 O -0.527462 -1.897499 0.667934 0
M  V30 22 N -0.782924 -3.055495 2.689047 0
M  V30 23 C -1.638681 -3.962356 1.944642 0
M  V30 24 N -1.289465 -4.958747 1.354538 0
M  V30 25 C -2.071728 -5.775069 0.683410 0
M  V30 26 C -1.744162 -6.932285 -0.015598 0
M  V30 27 C -0.336705 -7.427465 -0.090726 0
M  V30 28 F 0.515705 -6.511406 -0.675268 0
M  V30 29 F 0.104854 -7.780099 1.168375 0
M  V30 30 F -0.274838 -8.566834 -0.864520 0
M  V30 31 C -2.720718 -7.640560 -0.650269 0
M  V30 32 C -4.064922 -7.335566 -0.686949 0
M  V30 33 N -5.235318 -7.769673 -1.176118 0
M  V30 34 N -6.236322 -6.971545 -0.829970 0
M  V30 35 C -5.762151 -5.945349 -0.075949 0
M  V30 36 C -4.408251 -6.190901 0.001029 0
M  V30 37 C -3.409494 -5.459275 0.654814 0
M  V30 38 S -3.461447 -3.950658 1.632035 0
M  V30 39 H 1.872293 -2.614955 2.834659 0
M  V30 40 H 1.919240 -1.264324 4.066915 0
M  V30 41 H 2.817195 -1.166381 2.492886 0
M  V30 42 H -1.167041 -0.470430 3.509638 0
M  V30 43 H 0.425981 -0.178939 4.365283 0
M  V30 44 H -0.106549 0.956926 3.065075 0
M  V30 45 H 0.527164 -0.293215 0.279426 0
M  V30 46 H 2.264970 0.990592 3.365400 0
M  V30 47 H 3.665952 2.939726 3.446216 0
M  V30 48 H 1.042239 4.351877 -1.180481 0
M  V30 49 H 2.824698 6.178919 -2.538163 0
M  V30 50 H 2.549314 4.699593 -3.586737 0
M  V30 51 H 1.035696 6.609189 -4.043948 0
M  V30 52 H 0.126274 5.137731 -3.533909 0
M  V30 53 H -1.371083 7.956448 -1.680602 0
M  V30 54 H 1.590500 1.613598 -0.774432 0
M  V30 55 H -0.501727 -3.049585 3.674146 0
M  V30 56 H -2.459714 -8.559886 -1.205525 0
M  V30 57 H -5.262053 -8.652987 -1.758376 0
M  V30 58 H -6.248953 -5.100491 0.390990 0
M  V30 END ATOM
M  V30 BEGIN BOND
M  V30 1 1 1 2
M  V30 2 1 2 3
M  V30 3 1 2 4
M  V30 4 1 4 5
M  V30 5 2 5 6
M  V30 6 1 6 7
M  V30 7 2 7 8
M  V30 8 1 8 9
M  V30 9 1 8 10
M  V30 10 1 10 11
M  V30 11 2 11 12
M  V30 12 1 11 13
M  V30 13 1 13 14
M  V30 14 1 14 15
M  V30 15 1 15 16
M  V30 16 2 16 17
M  V30 17 1 16 18
M  V30 18 2 10 19
M  V30 19 1 2 20
M  V30 20 2 20 21
M  V30 21 1 20 22
M  V30 22 1 22 23
M  V30 23 2 23 24
M  V30 24 1 24 25
M  V30 25 2 25 26
M  V30 26 1 26 27
M  V30 27 1 27 28
M  V30 28 1 27 29
M  V30 29 1 27 30
M  V30 30 1 26 31
M  V30 31 2 31 32
M  V30 32 1 32 33
M  V30 33 1 33 34
M  V30 34 2 34 35
M  V30 35 1 35 36
M  V30 36 2 36 37
M  V30 37 1 37 38
M  V30 38 1 19 5
M  V30 39 1 38 23
M  V30 40 1 37 25
M  V30 41 1 36 32
M  V30 42 1 1 39
M  V30 43 1 1 40
M  V30 44 1 1 41
M  V30 45 1 3 42
M  V30 46 1 3 43
M  V30 47 1 3 44
M  V30 48 1 4 45
M  V30 49 1 6 46
M  V30 50 1 7 47
M  V30 51 1 13 48
M  V30 52 1 14 49
M  V30 53 1 14 50
M  V30 54 1 15 51
M  V30 55 1 15 52
M  V30 56 1 18 53
M  V30 57 1 19 54
M  V30 58 1 22 55
M  V30 59 1 31 56
M  V30 60 1 33 57
M  V30 61 1 35 58
M  V30 END BOND
M  V30 END CTAB
M  END
>  <Dataset>  (641) 
ChEMBL_Kinases

>  <Ligand_Instance>  (641) 
nan

>  <PDB_ID>  (641) 
nan

>  <Standardized_SMILES>  (641) 
CC(C)(Nc1ccc(Cl)c(C(=O)NCCC(=O)O)c1)C(=O)Nc1nc2c(C(F)(F)F)cc3[nH]ncc3c2s1

>  <Name>  (641) 
nan

>  <Pocket>  (641) 
nan

>  <ATP_Site>  (641) 
nan

>  <Peripheral>  (641) 
nan

>  <Num_H_Atoms_ProtBoundConf>  (641) 
nan

>  <Num_Resolved_Atoms>  (641) 
nan

>  <Num_Not_Resolved_Atoms>  (641) 
nan

$$$$
CHEMBL3716567
     RDKit          3D

  0  0  0  0  0  0  0  0  0  0999 V3000
M  V30 BEGIN CTAB
M  V30 COUNTS 59 61 0 0 0
M  V30 BEGIN ATOM
M  V30 1 C 2.785842 -1.368350 7.437451 0
M  V30 2 C 1.716440 -1.554620 6.381203 0
M  V30 3 C 0.805763 -0.337172 6.493929 0
M  V30 4 C 0.910840 -2.762571 6.765519 0
M  V30 5 C 2.248329 -1.621074 5.009413 0
M  V30 6 C 1.312609 -1.788696 4.022392 0
M  V30 7 C 1.666908 -1.867713 2.696081 0
M  V30 8 C 3.000112 -1.778464 2.317672 0
M  V30 9 O 3.641672 -1.822258 1.101620 0
M  V30 10 C 3.067565 -1.975125 -0.155456 0
M  V30 11 C 2.123008 -0.910474 -0.557209 0
M  V30 12 O 1.681556 -1.189359 -1.716202 0
M  V30 13 N 1.648279 0.280137 0.058668 0
M  V30 14 C 0.712048 0.904513 -0.870289 0
M  V30 15 C -0.406024 -0.072181 -1.111521 0
M  V30 16 O -0.782453 -1.228181 -0.775242 0
M  V30 17 N -1.355643 0.474918 -2.011275 0
M  V30 18 C -2.580262 -0.187672 -2.480705 0
M  V30 19 C -3.793411 0.634517 -2.210518 0
M  V30 20 C -4.659649 0.929781 -3.384840 0
M  V30 21 C -3.874815 1.448467 -4.577812 0
M  V30 22 C -2.989910 0.317192 -4.985801 0
M  V30 23 C -2.752615 0.005153 -6.293543 0
M  V30 24 C -1.931012 -1.047087 -6.609104 0
M  V30 25 C -1.324650 -1.815799 -5.638104 0
M  V30 26 C -1.604483 -1.449173 -4.318624 0
M  V30 27 C -2.432968 -0.387555 -3.939654 0
M  V30 28 C 3.957775 -1.606943 3.326649 0
M  V30 29 C 3.582856 -1.527992 4.674397 0
M  V30 30 H 3.486695 -2.224126 7.382555 0
M  V30 31 H 2.235790 -1.478042 8.418262 0
M  V30 32 H 3.245038 -0.381987 7.372263 0
M  V30 33 H 0.714876 0.038830 7.532612 0
M  V30 34 H 1.232843 0.509095 5.905204 0
M  V30 35 H -0.217291 -0.562314 6.147243 0
M  V30 36 H 1.214806 -3.182057 7.741932 0
M  V30 37 H -0.172029 -2.523798 6.832082 0
M  V30 38 H 0.983615 -3.585964 6.030976 0
M  V30 39 H 0.227333 -1.878467 4.126670 0
M  V30 40 H 1.050745 -1.997202 1.815019 0
M  V30 41 H 2.558322 -2.973550 -0.234362 0
M  V30 42 H 3.895620 -1.972066 -0.925124 0
M  V30 43 H 2.089892 0.394409 0.996520 0
M  V30 44 H 1.214542 1.098265 -1.823779 0
M  V30 45 H 0.321385 1.835140 -0.413449 0
M  V30 46 H -1.335152 1.421403 -2.475672 0
M  V30 47 H -2.630221 -1.196502 -2.000295 0
M  V30 48 H -3.490832 1.560916 -1.669815 0
M  V30 49 H -4.425788 0.062788 -1.476819 0
M  V30 50 H -5.409721 1.683380 -3.068024 0
M  V30 51 H -5.189201 0.015095 -3.719036 0
M  V30 52 H -4.609231 1.621973 -5.387511 0
M  V30 53 H -3.277210 2.347323 -4.317007 0
M  V30 54 H -3.218894 0.595691 -7.066414 0
M  V30 55 H -1.721661 -1.321805 -7.643633 0
M  V30 56 H -0.685436 -2.634255 -5.862102 0
M  V30 57 H -1.114930 -2.069833 -3.570940 0
M  V30 58 H 5.041910 -1.517043 3.222776 0
M  V30 59 H 4.279350 -1.396451 5.490323 0
M  V30 END ATOM
M  V30 BEGIN BOND
M  V30 1 1 1 2
M  V30 2 1 2 3
M  V30 3 1 2 4
M  V30 4 1 2 5
M  V30 5 2 5 6
M  V30 6 1 6 7
M  V30 7 2 7 8
M  V30 8 1 8 9
M  V30 9 1 9 10
M  V30 10 1 10 11
M  V30 11 2 11 12
M  V30 12 1 11 13
M  V30 13 1 13 14
M  V30 14 1 14 15
M  V30 15 2 15 16
M  V30 16 1 15 17
M  V30 17 1 17 18
M  V30 18 1 18 19
M  V30 19 1 19 20
M  V30 20 1 20 21
M  V30 21 1 21 22
M  V30 22 2 22 23
M  V30 23 1 23 24
M  V30 24 2 24 25
M  V30 25 1 25 26
M  V30 26 2 26 27
M  V30 27 1 8 28
M  V30 28 2 28 29
M  V30 29 1 29 5
M  V30 30 1 27 18
M  V30 31 1 27 22
M  V30 32 1 1 30
M  V30 33 1 1 31
M  V30 34 1 1 32
M  V30 35 1 3 33
M  V30 36 1 3 34
M  V30 37 1 3 35
M  V30 38 1 4 36
M  V30 39 1 4 37
M  V30 40 1 4 38
M  V30 41 1 6 39
M  V30 42 1 7 40
M  V30 43 1 10 41
M  V30 44 1 10 42
M  V30 45 1 13 43
M  V30 46 1 14 44
M  V30 47 1 14 45
M  V30 48 1 17 46
M  V30 49 1 18 47
M  V30 50 1 19 48
M  V30 51 1 19 49
M  V30 52 1 20 50
M  V30 53 1 20 51
M  V30 54 1 21 52
M  V30 55 1 21 53
M  V30 56 1 23 54
M  V30 57 1 24 55
M  V30 58 1 25 56
M  V30 59 1 26 57
M  V30 60 1 28 58
M  V30 61 1 29 59
M  V30 END BOND
M  V30 END CTAB
M  END
>  <Dataset>  (642) 
ChEMBL_Kinases

>  <Ligand_Instance>  (642) 
nan

>  <PDB_ID>  (642) 
nan

>  <Standardized_SMILES>  (642) 
CC(C)(C)c1ccc(OCC(=O)NCC(=O)NC2CCCc3ccccc32)cc1

>  <Name>  (642) 
nan

>  <Pocket>  (642) 
nan

>  <ATP_Site>  (642) 
nan

>  <Peripheral>  (642) 
nan

>  <Num_H_Atoms_ProtBoundConf>  (642) 
nan

>  <Num_Resolved_Atoms>  (642) 
nan

>  <Num_Not_Resolved_Atoms>  (642) 
nan

$$$$
CHEMBL3716597
     RDKit          3D

  0  0  0  0  0  0  0  0  0  0999 V3000
M  V30 BEGIN CTAB
M  V30 COUNTS 64 66 0 0 0
M  V30 BEGIN ATOM
M  V30 1 C 2.006751 -1.153888 4.748733 0
M  V30 2 C 2.858843 0.042089 4.340129 0
M  V30 3 C 4.317607 -0.352297 4.467187 0
M  V30 4 C 5.202952 0.806437 4.072187 0
M  V30 5 C 4.980047 1.259365 2.648133 0
M  V30 6 C 5.279655 0.096758 1.718803 0
M  V30 7 C 5.065591 0.514598 0.260319 0
M  V30 8 C 3.656335 0.941085 0.050238 0
M  V30 9 C 2.806274 -0.081518 -0.322410 0
M  V30 10 C 1.469329 0.173546 -0.551829 0
M  V30 11 C 0.944259 1.442743 -0.418116 0
M  V30 12 C -0.443063 1.847067 -0.630986 0
M  V30 13 O -0.852001 3.043641 -0.483102 0
M  V30 14 N -1.477528 0.944252 -1.025256 0
M  V30 15 C -2.721049 1.653204 -1.148533 0
M  V30 16 C -3.864360 0.801564 -1.556851 0
M  V30 17 O -4.921172 1.481773 -1.646388 0
M  V30 18 N -3.744539 -0.591664 -1.804824 0
M  V30 19 C -4.801440 -1.499044 -2.206007 0
M  V30 20 C -4.538783 -2.112974 -3.552246 0
M  V30 21 C -3.450207 -3.136860 -3.556338 0
M  V30 22 C -3.134327 -3.765263 -2.237148 0
M  V30 23 C -4.170392 -3.597514 -1.202803 0
M  V30 24 C -4.329260 -4.575176 -0.223765 0
M  V30 25 C -5.272065 -4.484047 0.766934 0
M  V30 26 C -6.116397 -3.381171 0.818887 0
M  V30 27 C -5.969587 -2.393625 -0.154694 0
M  V30 28 C -5.009657 -2.508812 -1.145017 0
M  V30 29 C 1.821296 2.442967 -0.044131 0
M  V30 30 C 3.163783 2.222899 0.193173 0
M  V30 31 H 1.522847 -1.632147 3.885372 0
M  V30 32 H 2.575855 -1.919344 5.292133 0
M  V30 33 H 1.163317 -0.838097 5.417024 0
M  V30 34 H 2.673557 0.918769 5.007779 0
M  V30 35 H 2.633174 0.233126 3.283491 0
M  V30 36 H 4.509192 -1.266977 3.876261 0
M  V30 37 H 4.483889 -0.536254 5.548582 0
M  V30 38 H 4.928235 1.650615 4.760719 0
M  V30 39 H 6.256992 0.560266 4.239088 0
M  V30 40 H 3.945798 1.604593 2.543424 0
M  V30 41 H 5.698457 2.062871 2.440561 0
M  V30 42 H 6.294367 -0.295739 1.858905 0
M  V30 43 H 4.517581 -0.683015 1.923015 0
M  V30 44 H 5.375386 -0.284652 -0.412846 0
M  V30 45 H 5.690160 1.418025 0.065064 0
M  V30 46 H 3.116558 -1.120728 -0.456808 0
M  V30 47 H 0.774159 -0.591538 -0.843111 0
M  V30 48 H -1.161862 -0.054137 -1.154151 0
M  V30 49 H -2.624933 2.526787 -1.856980 0
M  V30 50 H -3.027914 2.142927 -0.182479 0
M  V30 51 H -2.826385 -1.074622 -1.705703 0
M  V30 52 H -5.741774 -0.914730 -2.286302 0
M  V30 53 H -4.210266 -1.282000 -4.230233 0
M  V30 54 H -5.484370 -2.498665 -3.987132 0
M  V30 55 H -2.503144 -2.736116 -3.982403 0
M  V30 56 H -3.756847 -3.956783 -4.251861 0
M  V30 57 H -2.955032 -4.863923 -2.350821 0
M  V30 58 H -2.170800 -3.379450 -1.819161 0
M  V30 59 H -3.725980 -5.472652 -0.171547 0
M  V30 60 H -5.457983 -5.185918 1.550934 0
M  V30 61 H -6.906746 -3.177481 1.545457 0
M  V30 62 H -6.593190 -1.502868 -0.178714 0
M  V30 63 H 1.567810 3.505430 0.106350 0
M  V30 64 H 3.873462 2.978912 0.485528 0
M  V30 END ATOM
M  V30 BEGIN BOND
M  V30 1 1 1 2
M  V30 2 1 2 3
M  V30 3 1 3 4
M  V30 4 1 4 5
M  V30 5 1 5 6
M  V30 6 1 6 7
M  V30 7 1 7 8
M  V30 8 2 8 9
M  V30 9 1 9 10
M  V30 10 2 10 11
M  V30 11 1 11 12
M  V30 12 2 12 13
M  V30 13 1 12 14
M  V30 14 1 14 15
M  V30 15 1 15 16
M  V30 16 2 16 17
M  V30 17 1 16 18
M  V30 18 1 18 19
M  V30 19 1 19 20
M  V30 20 1 20 21
M  V30 21 1 21 22
M  V30 22 1 22 23
M  V30 23 2 23 24
M  V30 24 1 24 25
M  V30 25 2 25 26
M  V30 26 1 26 27
M  V30 27 2 27 28
M  V30 28 1 11 29
M  V30 29 2 29 30
M  V30 30 1 30 8
M  V30 31 1 28 19
M  V30 32 1 28 23
M  V30 33 1 1 31
M  V30 34 1 1 32
M  V30 35 1 1 33
M  V30 36 1 2 34
M  V30 37 1 2 35
M  V30 38 1 3 36
M  V30 39 1 3 37
M  V30 40 1 4 38
M  V30 41 1 4 39
M  V30 42 1 5 40
M  V30 43 1 5 41
M  V30 44 1 6 42
M  V30 45 1 6 43
M  V30 46 1 7 44
M  V30 47 1 7 45
M  V30 48 1 9 46
M  V30 49 1 10 47
M  V30 50 1 14 48
M  V30 51 1 15 49
M  V30 52 1 15 50
M  V30 53 1 18 51
M  V30 54 1 19 52
M  V30 55 1 20 53
M  V30 56 1 20 54
M  V30 57 1 21 55
M  V30 58 1 21 56
M  V30 59 1 22 57
M  V30 60 1 22 58
M  V30 61 1 24 59
M  V30 62 1 25 60
M  V30 63 1 26 61
M  V30 64 1 27 62
M  V30 65 1 29 63
M  V30 66 1 30 64
M  V30 END BOND
M  V30 END CTAB
M  END
>  <Dataset>  (643) 
ChEMBL_Kinases

>  <Ligand_Instance>  (643) 
nan

>  <PDB_ID>  (643) 
nan

>  <Standardized_SMILES>  (643) 
CCCCCCCc1ccc(C(=O)NCC(=O)NC2CCCc3ccccc32)cc1

>  <Name>  (643) 
nan

>  <Pocket>  (643) 
nan

>  <ATP_Site>  (643) 
nan

>  <Peripheral>  (643) 
nan

>  <Num_H_Atoms_ProtBoundConf>  (643) 
nan

>  <Num_Resolved_Atoms>  (643) 
nan

>  <Num_Not_Resolved_Atoms>  (643) 
nan

$$$$
CHEMBL4449570
     RDKit          3D

  0  0  0  0  0  0  0  0  0  0999 V3000
M  V30 BEGIN CTAB
M  V30 COUNTS 47 50 0 0 0
M  V30 BEGIN ATOM
M  V30 1 C 3.389363 -0.006744 7.237527 0
M  V30 2 S 2.054146 0.953117 6.584241 0 CHG=1 VAL=3
M  V30 3 O 2.429448 2.591244 6.836119 0 CHG=-1 VAL=1
M  V30 4 C 1.761055 0.643759 4.890542 0
M  V30 5 N 2.312589 1.277259 3.857713 0
M  V30 6 C 1.849920 0.771029 2.687097 0
M  V30 7 C 2.139070 1.113963 1.302530 0
M  V30 8 C 1.301037 1.652861 0.351462 0
M  V30 9 C 1.699603 1.930126 -0.936136 0
M  V30 10 C 3.021404 1.651181 -1.298526 0
M  V30 11 F 3.298100 1.964358 -2.585792 0
M  V30 12 C 3.883614 1.110454 -0.364641 0
M  V30 13 C 3.458631 0.841749 0.920627 0
M  V30 14 C 0.958981 -0.235246 2.993668 0
M  V30 15 C 0.124596 -1.161963 2.239465 0
M  V30 16 C 0.532608 -2.488492 2.435099 0
M  V30 17 C -0.129059 -3.528069 1.811122 0
M  V30 18 N -1.175356 -3.259358 1.008586 0
M  V30 19 C -1.588122 -1.989752 0.803849 0
M  V30 20 N -2.689119 -1.634579 -0.033948 0
M  V30 21 C -2.295277 -1.404270 -1.363159 0
M  V30 22 O -1.047980 -1.545289 -1.602599 0
M  V30 23 C -3.265272 -1.023426 -2.413817 0
M  V30 24 C -2.633498 -0.826067 -3.775847 0
M  V30 25 C -3.812459 -1.579454 -4.369312 0
M  V30 26 C -4.112368 -2.100770 -2.977681 0
M  V30 27 C -0.954094 -0.948963 1.406002 0
M  V30 28 N 0.931625 -0.282900 4.358018 0
M  V30 29 H 3.848687 0.557956 8.061699 0
M  V30 30 H 4.197156 -0.166359 6.487568 0
M  V30 31 H 2.967170 -0.954653 7.622250 0
M  V30 32 H 0.314504 1.842052 0.691380 0
M  V30 33 H 0.937438 2.359498 -1.600551 0
M  V30 34 H 4.860660 0.949956 -0.780174 0
M  V30 35 H 4.238010 0.422932 1.535930 0
M  V30 36 H 1.360169 -2.823438 3.058040 0
M  V30 37 H 0.148855 -4.567587 1.931113 0
M  V30 38 H -3.668482 -1.549383 0.274029 0
M  V30 39 H -3.878088 -0.127495 -2.131833 0
M  V30 40 H -2.562723 0.226577 -4.078955 0
M  V30 41 H -1.678917 -1.402012 -3.818204 0
M  V30 42 H -4.556385 -0.828677 -4.720290 0
M  V30 43 H -3.553719 -2.364264 -5.107469 0
M  V30 44 H -5.203214 -2.031910 -2.788274 0
M  V30 45 H -3.805871 -3.153054 -2.835312 0
M  V30 46 H -1.188573 0.102299 1.324218 0
M  V30 47 H 0.370226 -0.922466 4.994222 0
M  V30 END ATOM
M  V30 BEGIN BOND
M  V30 1 1 1 2
M  V30 2 1 2 3
M  V30 3 1 2 4
M  V30 4 2 4 5
M  V30 5 1 5 6
M  V30 6 1 6 7
M  V30 7 2 7 8
M  V30 8 1 8 9
M  V30 9 2 9 10
M  V30 10 1 10 11
M  V30 11 1 10 12
M  V30 12 2 12 13
M  V30 13 2 6 14
M  V30 14 1 14 15
M  V30 15 2 15 16
M  V30 16 1 16 17
M  V30 17 2 17 18
M  V30 18 1 18 19
M  V30 19 1 19 20
M  V30 20 1 20 21
M  V30 21 2 21 22
M  V30 22 1 21 23
M  V30 23 1 23 24
M  V30 24 1 24 25
M  V30 25 1 25 26
M  V30 26 2 19 27
M  V30 27 1 14 28
M  V30 28 1 28 4
M  V30 29 1 13 7
M  V30 30 1 27 15
M  V30 31 1 26 23
M  V30 32 1 1 29
M  V30 33 1 1 30
M  V30 34 1 1 31
M  V30 35 1 8 32
M  V30 36 1 9 33
M  V30 37 1 12 34
M  V30 38 1 13 35
M  V30 39 1 16 36
M  V30 40 1 17 37
M  V30 41 1 20 38
M  V30 42 1 23 39
M  V30 43 1 24 40
M  V30 44 1 24 41
M  V30 45 1 25 42
M  V30 46 1 25 43
M  V30 47 1 26 44
M  V30 48 1 26 45
M  V30 49 1 27 46
M  V30 50 1 28 47
M  V30 END BOND
M  V30 END CTAB
M  END
>  <Dataset>  (644) 
ChEMBL_Kinases

>  <Ligand_Instance>  (644) 
nan

>  <PDB_ID>  (644) 
nan

>  <Standardized_SMILES>  (644) 
C[S+]([O-])c1nc(-c2ccc(F)cc2)c(-c2ccnc(NC(=O)C3CCC3)c2)[nH]1

>  <Name>  (644) 
nan

>  <Pocket>  (644) 
nan

>  <ATP_Site>  (644) 
nan

>  <Peripheral>  (644) 
nan

>  <Num_H_Atoms_ProtBoundConf>  (644) 
nan

>  <Num_Resolved_Atoms>  (644) 
nan

>  <Num_Not_Resolved_Atoms>  (644) 
nan

$$$$
CHEMBL3716615
     RDKit          3D

  0  0  0  0  0  0  0  0  0  0999 V3000
M  V30 BEGIN CTAB
M  V30 COUNTS 42 45 0 0 0
M  V30 BEGIN ATOM
M  V30 1 C 1.343589 1.838840 3.078081 0
M  V30 2 C 1.406528 0.339556 3.255548 0
M  V30 3 C 0.671424 0.014775 4.555037 0
M  V30 4 N 2.759216 -0.168453 3.352128 0
M  V30 5 C 3.690320 0.006850 2.293428 0
M  V30 6 C 3.396221 0.655365 1.113465 0
M  V30 7 C 4.293074 0.831283 0.080119 0
M  V30 8 C 5.584029 0.329652 0.216069 0
M  V30 9 Cl 6.787322 0.506753 -1.043557 0
M  V30 10 C 5.919652 -0.326596 1.382194 0
M  V30 11 C 4.980052 -0.471314 2.379714 0
M  V30 12 C 0.763902 -0.368925 2.110470 0
M  V30 13 O 0.915096 -1.234429 1.186663 0
M  V30 14 N -0.595327 0.089307 1.950422 0
M  V30 15 C -1.333143 -0.550947 0.835820 0
M  V30 16 N -1.442901 -0.272154 -0.254621 0
M  V30 17 C -2.117083 -0.872506 -1.235226 0
M  V30 18 C -2.260651 -0.545775 -2.568059 0
M  V30 19 C -3.013647 -1.317912 -3.412437 0
M  V30 20 C -3.684255 -2.465461 -3.027352 0
M  V30 21 N -4.473900 -3.429299 -3.531843 0
M  V30 22 N -4.800883 -4.303144 -2.567027 0
M  V30 23 C -4.239730 -3.946079 -1.397850 0
M  V30 24 C -3.556294 -2.813287 -1.699453 0
M  V30 25 C -2.781341 -1.998429 -0.880433 0
M  V30 26 S -2.394116 -2.153474 0.918475 0
M  V30 27 H 0.707412 2.163238 2.237276 0
M  V30 28 H 2.388658 2.263687 3.032594 0
M  V30 29 H 0.892198 2.352003 3.977829 0
M  V30 30 H 1.407821 -0.095240 5.387970 0
M  V30 31 H 0.114209 -0.926897 4.367241 0
M  V30 32 H -0.037408 0.819400 4.832294 0
M  V30 33 H 3.080127 -0.675792 4.204145 0
M  V30 34 H 2.408960 1.061480 0.959416 0
M  V30 35 H 4.046136 1.343561 -0.841158 0
M  V30 36 H 6.924438 -0.720154 1.494681 0
M  V30 37 H 5.260029 -0.992248 3.295450 0
M  V30 38 H -1.191516 0.796744 2.465571 0
M  V30 39 H -1.796120 0.329950 -3.034542 0
M  V30 40 H -3.127437 -1.059332 -4.467767 0
M  V30 41 H -4.746286 -3.422051 -4.545964 0
M  V30 42 H -4.283479 -4.405091 -0.423099 0
M  V30 END ATOM
M  V30 BEGIN BOND
M  V30 1 1 1 2
M  V30 2 1 2 3
M  V30 3 1 2 4
M  V30 4 1 4 5
M  V30 5 2 5 6
M  V30 6 1 6 7
M  V30 7 2 7 8
M  V30 8 1 8 9
M  V30 9 1 8 10
M  V30 10 2 10 11
M  V30 11 1 2 12
M  V30 12 2 12 13
M  V30 13 1 12 14
M  V30 14 1 14 15
M  V30 15 2 15 16
M  V30 16 1 16 17
M  V30 17 2 17 18
M  V30 18 1 18 19
M  V30 19 2 19 20
M  V30 20 1 20 21
M  V30 21 1 21 22
M  V30 22 2 22 23
M  V30 23 1 23 24
M  V30 24 2 24 25
M  V30 25 1 25 26
M  V30 26 1 11 5
M  V30 27 1 26 15
M  V30 28 1 25 17
M  V30 29 1 24 20
M  V30 30 1 1 27
M  V30 31 1 1 28
M  V30 32 1 1 29
M  V30 33 1 3 30
M  V30 34 1 3 31
M  V30 35 1 3 32
M  V30 36 1 4 33
M  V30 37 1 6 34
M  V30 38 1 7 35
M  V30 39 1 10 36
M  V30 40 1 11 37
M  V30 41 1 14 38
M  V30 42 1 18 39
M  V30 43 1 19 40
M  V30 44 1 21 41
M  V30 45 1 23 42
M  V30 END BOND
M  V30 END CTAB
M  END
>  <Dataset>  (645) 
ChEMBL_Kinases

>  <Ligand_Instance>  (645) 
nan

>  <PDB_ID>  (645) 
nan

>  <Standardized_SMILES>  (645) 
CC(C)(Nc1ccc(Cl)cc1)C(=O)Nc1nc2ccc3[nH]ncc3c2s1

>  <Name>  (645) 
nan

>  <Pocket>  (645) 
nan

>  <ATP_Site>  (645) 
nan

>  <Peripheral>  (645) 
nan

>  <Num_H_Atoms_ProtBoundConf>  (645) 
nan

>  <Num_Resolved_Atoms>  (645) 
nan

>  <Num_Not_Resolved_Atoms>  (645) 
nan

$$$$
CHEMBL3716742
     RDKit          3D

  0  0  0  0  0  0  0  0  0  0999 V3000
M  V30 BEGIN CTAB
M  V30 COUNTS 49 51 0 0 0
M  V30 BEGIN ATOM
M  V30 1 O -1.949657 -1.065179 2.129225 0
M  V30 2 C -1.937269 -0.549342 0.978196 0
M  V30 3 C -1.160834 0.295284 0.034251 0
M  V30 4 C 0.127137 0.683553 0.735911 0
M  V30 5 N 0.952418 1.517098 -0.122845 0
M  V30 6 C 1.370483 2.856262 0.115657 0
M  V30 7 O 0.966447 3.353667 1.201250 0
M  V30 8 C 2.203833 3.552812 -0.858096 0
M  V30 9 C 2.668654 3.051850 -2.056918 0
M  V30 10 C 3.453753 3.828457 -2.885343 0
M  V30 11 C 3.809088 5.123150 -2.564879 0
M  V30 12 C 3.352647 5.657148 -1.356668 0
M  V30 13 C 2.568457 4.848736 -0.553323 0
M  V30 14 C 0.896468 -0.508487 1.178418 0
M  V30 15 C 0.991702 -0.980710 2.467723 0
M  V30 16 C 1.705792 -2.085218 2.837140 0
M  V30 17 C 2.376398 -2.775911 1.863034 0
M  V30 18 C 2.330911 -2.363519 0.535510 0
M  V30 19 C 1.592228 -1.240449 0.226764 0
M  V30 20 N -3.185145 -0.970971 0.378904 0
M  V30 21 C -4.040784 -1.817199 1.227304 0
M  V30 22 C -3.229189 -3.037248 1.539935 0
M  V30 23 O -2.090359 -3.570000 1.327061 0
M  V30 24 N -3.953896 -3.955417 2.369995 0
M  V30 25 C -3.162707 -5.170956 2.689069 0
M  V30 26 N -3.150799 -6.127073 2.073115 0
M  V30 27 C -2.488657 -7.257792 2.264877 0
M  V30 28 C -1.695072 -7.316819 3.352597 0
M  V30 29 S -1.954534 -5.617560 4.108946 0
M  V30 30 H -1.007229 -0.265094 -0.889204 0
M  V30 31 H -1.705808 1.228905 -0.223193 0
M  V30 32 H -0.152865 1.249683 1.644722 0
M  V30 33 H 1.214172 0.984774 -0.980761 0
M  V30 34 H 2.377060 2.036328 -2.285190 0
M  V30 35 H 3.747155 3.298098 -3.800050 0
M  V30 36 H 4.428431 5.646515 -3.284294 0
M  V30 37 H 3.633686 6.659017 -1.119472 0
M  V30 38 H 2.264922 5.366369 0.370013 0
M  V30 39 H 0.464323 -0.430053 3.233069 0
M  V30 40 H 1.733082 -2.398478 3.884463 0
M  V30 41 H 2.949119 -3.656771 2.140614 0
M  V30 42 H 2.881303 -2.951583 -0.182974 0
M  V30 43 H 1.622878 -1.007196 -0.828232 0
M  V30 44 H -3.522617 -0.724556 -0.597671 0
M  V30 45 H -4.936726 -2.100607 0.649602 0
M  V30 46 H -4.256548 -1.246848 2.133000 0
M  V30 47 H -4.906434 -3.940818 2.786180 0
M  V30 48 H -2.538627 -8.140773 1.609469 0
M  V30 49 H -1.063891 -8.072531 3.748695 0
M  V30 END ATOM
M  V30 BEGIN BOND
M  V30 1 2 1 2
M  V30 2 1 2 3
M  V30 3 1 3 4
M  V30 4 1 4 5
M  V30 5 1 5 6
M  V30 6 2 6 7
M  V30 7 1 6 8
M  V30 8 2 8 9
M  V30 9 1 9 10
M  V30 10 2 10 11
M  V30 11 1 11 12
M  V30 12 2 12 13
M  V30 13 1 4 14
M  V30 14 2 14 15
M  V30 15 1 15 16
M  V30 16 2 16 17
M  V30 17 1 17 18
M  V30 18 2 18 19
M  V30 19 1 2 20
M  V30 20 1 20 21
M  V30 21 1 21 22
M  V30 22 2 22 23
M  V30 23 1 22 24
M  V30 24 1 24 25
M  V30 25 2 25 26
M  V30 26 1 26 27
M  V30 27 2 27 28
M  V30 28 1 28 29
M  V30 29 1 13 8
M  V30 30 1 19 14
M  V30 31 1 29 25
M  V30 32 1 3 30
M  V30 33 1 3 31
M  V30 34 1 4 32
M  V30 35 1 5 33
M  V30 36 1 9 34
M  V30 37 1 10 35
M  V30 38 1 11 36
M  V30 39 1 12 37
M  V30 40 1 13 38
M  V30 41 1 15 39
M  V30 42 1 16 40
M  V30 43 1 17 41
M  V30 44 1 18 42
M  V30 45 1 19 43
M  V30 46 1 20 44
M  V30 47 1 21 45
M  V30 48 1 21 46
M  V30 49 1 24 47
M  V30 50 1 27 48
M  V30 51 1 28 49
M  V30 END BOND
M  V30 END CTAB
M  END
>  <Dataset>  (646) 
ChEMBL_Kinases

>  <Ligand_Instance>  (646) 
nan

>  <PDB_ID>  (646) 
nan

>  <Standardized_SMILES>  (646) 
O=C(CC(NC(=O)c1ccccc1)c1ccccc1)NCC(=O)Nc1nccs1

>  <Name>  (646) 
nan

>  <Pocket>  (646) 
nan

>  <ATP_Site>  (646) 
nan

>  <Peripheral>  (646) 
nan

>  <Num_H_Atoms_ProtBoundConf>  (646) 
nan

>  <Num_Resolved_Atoms>  (646) 
nan

>  <Num_Not_Resolved_Atoms>  (646) 
nan

$$$$
CHEMBL3716744
     RDKit          3D

  0  0  0  0  0  0  0  0  0  0999 V3000
M  V30 BEGIN CTAB
M  V30 COUNTS 59 61 0 0 0
M  V30 BEGIN ATOM
M  V30 1 C -0.225047 -0.807360 7.765916 0
M  V30 2 C 0.594901 -2.012841 7.352086 0
M  V30 3 C 1.956666 -2.023190 7.924834 0
M  V30 4 C 2.873642 -0.902022 7.586727 0
M  V30 5 O 3.242887 -0.680977 6.315770 0
M  V30 6 C 2.767613 -0.369894 5.123714 0
M  V30 7 C 1.571816 -0.080809 4.521784 0
M  V30 8 C 1.341682 0.220181 3.201359 0
M  V30 9 C 2.455990 0.230018 2.394188 0
M  V30 10 C 2.258152 0.543446 0.989609 0
M  V30 11 O 3.252274 0.566509 0.201299 0
M  V30 12 N 1.028592 0.839654 0.369921 0
M  V30 13 C 0.863958 1.148938 -1.037189 0
M  V30 14 C 0.304673 2.560715 -1.143189 0
M  V30 15 C -0.094606 0.195577 -1.679953 0
M  V30 16 O -0.550938 -0.662843 -0.886624 0
M  V30 17 N -0.364018 0.370929 -3.065159 0
M  V30 18 C -1.271838 -0.518372 -3.712241 0
M  V30 19 C -2.511840 0.262857 -4.070501 0
M  V30 20 C -3.513436 -0.447396 -4.900417 0
M  V30 21 C -3.062667 -1.827285 -5.177984 0
M  V30 22 C -4.059646 -2.758278 -5.494239 0
M  V30 23 C -3.849631 -4.089093 -5.784698 0
M  V30 24 C -2.551067 -4.547170 -5.763505 0
M  V30 25 C -1.536854 -3.663599 -5.456667 0
M  V30 26 C -1.784470 -2.354400 -5.174966 0
M  V30 27 C -0.733440 -1.329548 -4.831239 0
M  V30 28 C 3.712765 -0.041672 2.871810 0
M  V30 29 C 3.865963 -0.341807 4.239238 0
M  V30 30 H 0.305996 0.149063 7.652629 0
M  V30 31 H -1.093673 -0.770921 7.055389 0
M  V30 32 H -0.692346 -0.957988 8.759848 0
M  V30 33 H 0.493480 -2.181859 6.280868 0
M  V30 34 H 0.049071 -2.888897 7.827921 0
M  V30 35 H 1.888099 -2.200996 9.032171 0
M  V30 36 H 2.457061 -2.963743 7.549312 0
M  V30 37 H 3.823114 -1.111743 8.197472 0
M  V30 38 H 2.525450 0.070105 8.057238 0
M  V30 39 H 0.767173 -0.097520 5.210310 0
M  V30 40 H 0.318332 0.419660 2.919272 0
M  V30 41 H 0.162870 0.841289 0.950019 0
M  V30 42 H 1.846490 1.123994 -1.575969 0
M  V30 43 H -0.810824 2.454684 -1.096037 0
M  V30 44 H 0.582099 3.183113 -0.267179 0
M  V30 45 H 0.566067 3.029544 -2.119561 0
M  V30 46 H 0.106547 1.146023 -3.583249 0
M  V30 47 H -1.623430 -1.253538 -2.928550 0
M  V30 48 H -3.007599 0.673202 -3.166504 0
M  V30 49 H -2.210304 1.187285 -4.646899 0
M  V30 50 H -3.749144 0.070896 -5.860768 0
M  V30 51 H -4.490427 -0.515961 -4.370622 0
M  V30 52 H -5.108889 -2.439212 -5.523249 0
M  V30 53 H -4.657320 -4.744431 -6.017759 0
M  V30 54 H -2.339475 -5.584382 -5.985149 0
M  V30 55 H -0.489204 -3.972971 -5.425493 0
M  V30 56 H -0.492210 -0.697137 -5.714644 0
M  V30 57 H 0.122617 -1.930026 -4.461328 0
M  V30 58 H 4.514774 -0.004205 2.143354 0
M  V30 59 H 4.922399 -0.528537 4.437023 0
M  V30 END ATOM
M  V30 BEGIN BOND
M  V30 1 1 1 2
M  V30 2 1 2 3
M  V30 3 1 3 4
M  V30 4 1 4 5
M  V30 5 1 5 6
M  V30 6 2 6 7
M  V30 7 1 7 8
M  V30 8 2 8 9
M  V30 9 1 9 10
M  V30 10 2 10 11
M  V30 11 1 10 12
M  V30 12 1 12 13
M  V30 13 1 13 14
M  V30 14 1 13 15
M  V30 15 2 15 16
M  V30 16 1 15 17
M  V30 17 1 17 18
M  V30 18 1 18 19
M  V30 19 1 19 20
M  V30 20 1 20 21
M  V30 21 2 21 22
M  V30 22 1 22 23
M  V30 23 2 23 24
M  V30 24 1 24 25
M  V30 25 2 25 26
M  V30 26 1 26 27
M  V30 27 1 9 28
M  V30 28 2 28 29
M  V30 29 1 29 6
M  V30 30 1 27 18
M  V30 31 1 26 21
M  V30 32 1 1 30
M  V30 33 1 1 31
M  V30 34 1 1 32
M  V30 35 1 2 33
M  V30 36 1 2 34
M  V30 37 1 3 35
M  V30 38 1 3 36
M  V30 39 1 4 37
M  V30 40 1 4 38
M  V30 41 1 7 39
M  V30 42 1 8 40
M  V30 43 1 12 41
M  V30 44 1 13 42
M  V30 45 1 14 43
M  V30 46 1 14 44
M  V30 47 1 14 45
M  V30 48 1 17 46
M  V30 49 1 18 47
M  V30 50 1 19 48
M  V30 51 1 19 49
M  V30 52 1 20 50
M  V30 53 1 20 51
M  V30 54 1 22 52
M  V30 55 1 23 53
M  V30 56 1 24 54
M  V30 57 1 25 55
M  V30 58 1 27 56
M  V30 59 1 27 57
M  V30 60 1 28 58
M  V30 61 1 29 59
M  V30 END BOND
M  V30 END CTAB
M  END
>  <Dataset>  (647) 
ChEMBL_Kinases

>  <Ligand_Instance>  (647) 
nan

>  <PDB_ID>  (647) 
nan

>  <Standardized_SMILES>  (647) 
CCCCOc1ccc(C(=O)NC(C)C(=O)NC2CCc3ccccc3C2)cc1

>  <Name>  (647) 
nan

>  <Pocket>  (647) 
nan

>  <ATP_Site>  (647) 
nan

>  <Peripheral>  (647) 
nan

>  <Num_H_Atoms_ProtBoundConf>  (647) 
nan

>  <Num_Resolved_Atoms>  (647) 
nan

>  <Num_Not_Resolved_Atoms>  (647) 
nan

$$$$
CHEMBL3716385
     RDKit          3D

  0  0  0  0  0  0  0  0  0  0999 V3000
M  V30 BEGIN CTAB
M  V30 COUNTS 52 55 0 0 0
M  V30 BEGIN ATOM
M  V30 1 C 2.925651 -1.962744 4.797980 0
M  V30 2 C 1.877733 -1.004044 4.357748 0
M  V30 3 O 0.699426 -1.421900 4.294358 0
M  V30 4 N 2.276197 0.330772 4.034793 0
M  V30 5 C 1.511850 1.444498 3.594070 0
M  V30 6 C 1.287586 1.704177 2.259233 0
M  V30 7 C 0.560001 2.759608 1.752081 0
M  V30 8 N 0.353452 2.996893 0.374780 0
M  V30 9 C 0.887954 2.166844 -0.660456 0
M  V30 10 C 2.394808 2.166229 -0.588636 0
M  V30 11 C 0.530260 2.825332 -2.001965 0
M  V30 12 C 0.307596 0.797045 -0.697952 0
M  V30 13 O 0.910812 0.234820 -1.649055 0
M  V30 14 N -0.686284 0.150791 0.084824 0
M  V30 15 C -0.993745 -1.212556 -0.251628 0
M  V30 16 N -1.766159 -1.690616 -0.980579 0
M  V30 17 C -1.995550 -2.962488 -1.240996 0
M  V30 18 C -2.920076 -3.545407 -2.113971 0
M  V30 19 C -3.859249 -2.729357 -2.946071 0
M  V30 20 F -4.629293 -3.591660 -3.687759 0
M  V30 21 F -3.171824 -1.830245 -3.734181 0
M  V30 22 F -4.716883 -2.034560 -2.103497 0
M  V30 23 C -2.947881 -4.914496 -2.192820 0
M  V30 24 C -2.171953 -5.818490 -1.514374 0
M  V30 25 N -1.973859 -7.137333 -1.383536 0
M  V30 26 N -1.012945 -7.383820 -0.509399 0
M  V30 27 C -0.533675 -6.225004 -0.023509 0
M  V30 28 C -1.257636 -5.238782 -0.650918 0
M  V30 29 C -1.191448 -3.850819 -0.536037 0
M  V30 30 S -0.160596 -2.795290 0.453036 0
M  V30 31 C 0.053428 3.569133 2.746608 0
M  V30 32 C 0.226140 3.387272 4.102359 0
M  V30 33 C 0.968600 2.305195 4.524619 0
M  V30 34 Cl 1.216444 2.030784 6.226333 0
M  V30 35 H 3.810719 -1.409348 5.155434 0
M  V30 36 H 3.193148 -2.544052 3.874047 0
M  V30 37 H 2.498281 -2.666286 5.518677 0
M  V30 38 H 3.277705 0.603664 4.112412 0
M  V30 39 H 1.740542 0.986636 1.589744 0
M  V30 40 H -0.234709 3.845965 0.154501 0
M  V30 41 H 2.834985 1.139875 -0.527323 0
M  V30 42 H 2.737642 2.729930 0.297437 0
M  V30 43 H 2.875725 2.688986 -1.458645 0
M  V30 44 H -0.573473 2.899945 -2.105270 0
M  V30 45 H 0.960647 3.863475 -1.919511 0
M  V30 46 H 1.020008 2.311529 -2.839742 0
M  V30 47 H -1.046321 0.807633 0.809720 0
M  V30 48 H -3.679898 -5.368682 -2.883751 0
M  V30 49 H -2.552735 -7.809888 -1.942100 0
M  V30 50 H 0.253587 -6.011002 0.708851 0
M  V30 51 H -0.546528 4.447522 2.477270 0
M  V30 52 H -0.203868 4.067772 4.826459 0
M  V30 END ATOM
M  V30 BEGIN BOND
M  V30 1 1 1 2
M  V30 2 2 2 3
M  V30 3 1 2 4
M  V30 4 1 4 5
M  V30 5 2 5 6
M  V30 6 1 6 7
M  V30 7 1 7 8
M  V30 8 1 8 9
M  V30 9 1 9 10
M  V30 10 1 9 11
M  V30 11 1 9 12
M  V30 12 2 12 13
M  V30 13 1 12 14
M  V30 14 1 14 15
M  V30 15 2 15 16
M  V30 16 1 16 17
M  V30 17 2 17 18
M  V30 18 1 18 19
M  V30 19 1 19 20
M  V30 20 1 19 21
M  V30 21 1 19 22
M  V30 22 1 18 23
M  V30 23 2 23 24
M  V30 24 1 24 25
M  V30 25 1 25 26
M  V30 26 2 26 27
M  V30 27 1 27 28
M  V30 28 2 28 29
M  V30 29 1 29 30
M  V30 30 2 7 31
M  V30 31 1 31 32
M  V30 32 2 32 33
M  V30 33 1 33 34
M  V30 34 1 33 5
M  V30 35 1 30 15
M  V30 36 1 29 17
M  V30 37 1 28 24
M  V30 38 1 1 35
M  V30 39 1 1 36
M  V30 40 1 1 37
M  V30 41 1 4 38
M  V30 42 1 6 39
M  V30 43 1 8 40
M  V30 44 1 10 41
M  V30 45 1 10 42
M  V30 46 1 10 43
M  V30 47 1 11 44
M  V30 48 1 11 45
M  V30 49 1 11 46
M  V30 50 1 14 47
M  V30 51 1 23 48
M  V30 52 1 25 49
M  V30 53 1 27 50
M  V30 54 1 31 51
M  V30 55 1 32 52
M  V30 END BOND
M  V30 END CTAB
M  END
>  <Dataset>  (648) 
ChEMBL_Kinases

>  <Ligand_Instance>  (648) 
nan

>  <PDB_ID>  (648) 
nan

>  <Standardized_SMILES>  (648) 
CC(=O)Nc1cc(NC(C)(C)C(=O)Nc2nc3c(C(F)(F)F)cc4[nH]ncc4c3s2)ccc1Cl

>  <Name>  (648) 
nan

>  <Pocket>  (648) 
nan

>  <ATP_Site>  (648) 
nan

>  <Peripheral>  (648) 
nan

>  <Num_H_Atoms_ProtBoundConf>  (648) 
nan

>  <Num_Resolved_Atoms>  (648) 
nan

>  <Num_Not_Resolved_Atoms>  (648) 
nan

$$$$
CHEMBL3680597
     RDKit          3D

  0  0  0  0  0  0  0  0  0  0999 V3000
M  V30 BEGIN CTAB
M  V30 COUNTS 49 53 0 0 0
M  V30 BEGIN ATOM
M  V30 1 N 6.327608 1.263113 4.138290 0
M  V30 2 C 5.990304 -0.113968 4.231335 0
M  V30 3 O 6.600937 -0.342510 5.305886 0
M  V30 4 C 5.223725 -1.094459 3.463309 0
M  V30 5 C 5.212071 -2.358767 4.001771 0
M  V30 6 C 4.478472 -3.236928 3.236506 0
M  V30 7 C 3.804436 -2.976314 2.062922 0
M  V30 8 C 3.896615 -1.649341 1.623202 0
M  V30 9 C 3.240387 -1.277195 0.437491 0
M  V30 10 N 2.495804 -2.166240 -0.343744 0
M  V30 11 C 1.764530 -1.933980 -1.574373 0
M  V30 12 C 0.700731 -0.936274 -1.282211 0
M  V30 13 C 0.776655 0.442300 -1.519839 0
M  V30 14 C -0.289267 1.282926 -1.191677 0
M  V30 15 C -1.456045 0.765048 -0.618555 0
M  V30 16 C -1.580302 -0.608956 -0.360104 0
M  V30 17 N -2.726387 -1.185670 0.210967 0
M  V30 18 C -4.042309 -0.642067 0.193605 0
M  V30 19 N -4.857991 0.118815 0.493717 0
M  V30 20 C -6.144257 0.152528 0.164953 0
M  V30 21 C -7.132977 1.073803 0.530566 0
M  V30 22 C -8.410233 0.886711 0.055637 0
M  V30 23 C -8.843322 -0.154871 -0.779209 0
M  V30 24 C -7.905518 -1.086047 -1.165965 0
M  V30 25 C -6.621323 -0.893781 -0.685761 0
M  V30 26 S -5.038759 -1.859429 -0.918894 0
M  V30 27 C -0.484850 -1.327257 -0.719658 0
M  V30 28 N 3.371355 0.003844 0.081793 0
M  V30 29 C 4.063776 0.927047 0.758742 0
M  V30 30 N 4.695696 0.591947 1.892976 0
M  V30 31 C 4.615118 -0.677166 2.322621 0
M  V30 32 H 7.258732 1.600139 3.767201 0
M  V30 33 H 5.839091 2.165411 4.371503 0
M  V30 34 H 5.709764 -2.637335 4.903702 0
M  V30 35 H 4.392920 -4.274528 3.557890 0
M  V30 36 H 3.259434 -3.737210 1.535212 0
M  V30 37 H 2.403120 -3.150928 -0.081544 0
M  V30 38 H 1.293835 -2.842909 -1.991009 0
M  V30 39 H 2.446699 -1.564687 -2.380781 0
M  V30 40 H 1.692146 0.809516 -1.968205 0
M  V30 41 H -0.191046 2.347971 -1.394293 0
M  V30 42 H -2.286238 1.421851 -0.361427 0
M  V30 43 H -2.553729 -2.119378 0.698755 0
M  V30 44 H -6.943861 1.923836 1.165223 0
M  V30 45 H -9.173044 1.622123 0.358152 0
M  V30 46 H -9.837867 -0.294552 -1.141079 0
M  V30 47 H -8.039222 -1.935848 -1.787272 0
M  V30 48 H -0.574515 -2.393580 -0.521611 0
M  V30 49 H 4.172001 1.965791 0.468884 0
M  V30 END ATOM
M  V30 BEGIN BOND
M  V30 1 1 1 2
M  V30 2 2 2 3
M  V30 3 1 2 4
M  V30 4 2 4 5
M  V30 5 1 5 6
M  V30 6 2 6 7
M  V30 7 1 7 8
M  V30 8 2 8 9
M  V30 9 1 9 10
M  V30 10 1 10 11
M  V30 11 1 11 12
M  V30 12 2 12 13
M  V30 13 1 13 14
M  V30 14 2 14 15
M  V30 15 1 15 16
M  V30 16 1 16 17
M  V30 17 1 17 18
M  V30 18 2 18 19
M  V30 19 1 19 20
M  V30 20 2 20 21
M  V30 21 1 21 22
M  V30 22 2 22 23
M  V30 23 1 23 24
M  V30 24 2 24 25
M  V30 25 1 25 26
M  V30 26 2 16 27
M  V30 27 1 9 28
M  V30 28 2 28 29
M  V30 29 1 29 30
M  V30 30 2 30 31
M  V30 31 1 31 4
M  V30 32 1 31 8
M  V30 33 1 27 12
M  V30 34 1 26 18
M  V30 35 1 25 20
M  V30 36 1 1 32
M  V30 37 1 1 33
M  V30 38 1 5 34
M  V30 39 1 6 35
M  V30 40 1 7 36
M  V30 41 1 10 37
M  V30 42 1 11 38
M  V30 43 1 11 39
M  V30 44 1 13 40
M  V30 45 1 14 41
M  V30 46 1 15 42
M  V30 47 1 17 43
M  V30 48 1 21 44
M  V30 49 1 22 45
M  V30 50 1 23 46
M  V30 51 1 24 47
M  V30 52 1 27 48
M  V30 53 1 29 49
M  V30 END BOND
M  V30 END CTAB
M  END
>  <Dataset>  (649) 
ChEMBL_Kinases

>  <Ligand_Instance>  (649) 
nan

>  <PDB_ID>  (649) 
nan

>  <Standardized_SMILES>  (649) 
NC(=O)c1cccc2c(NCc3cccc(Nc4nc5ccccc5s4)c3)ncnc12

>  <Name>  (649) 
nan

>  <Pocket>  (649) 
nan

>  <ATP_Site>  (649) 
nan

>  <Peripheral>  (649) 
nan

>  <Num_H_Atoms_ProtBoundConf>  (649) 
nan

>  <Num_Resolved_Atoms>  (649) 
nan

>  <Num_Not_Resolved_Atoms>  (649) 
nan

$$$$
CHEMBL3094454
     RDKit          3D

  0  0  0  0  0  0  0  0  0  0999 V3000
M  V30 BEGIN CTAB
M  V30 COUNTS 56 59 0 0 0
M  V30 BEGIN ATOM
M  V30 1 C 5.321062 -8.056649 0.324093 0
M  V30 2 O 4.549906 -7.396850 -0.677932 0
M  V30 3 C 3.884420 -6.204924 -0.275238 0
M  V30 4 N 4.082475 -5.867173 1.028603 0
M  V30 5 C 3.531981 -4.771829 1.568906 0
M  V30 6 C 2.739275 -3.986858 0.723404 0
M  V30 7 C 2.081324 -2.765722 1.107134 0
M  V30 8 C 1.213590 -1.796052 0.309460 0
M  V30 9 C 0.939733 -0.955477 1.343100 0
M  V30 10 O 1.036553 -0.113093 0.379518 0
M  V30 11 N 0.659659 -0.724650 2.681494 0
M  V30 12 C 0.681085 0.790736 2.719143 0
M  V30 13 C -0.388438 1.393386 2.164572 0
M  V30 14 C -0.364958 2.789242 2.133054 0
M  V30 15 C -1.368185 3.564327 1.417236 0
M  V30 16 O -1.530090 4.791148 1.353857 0
M  V30 17 N -2.360049 2.939676 0.616964 0
M  V30 18 C -3.441797 2.737689 -0.258884 0
M  V30 19 C -4.730532 2.527119 0.488300 0
M  V30 20 N -5.798627 2.319818 -0.530032 0
M  V30 21 C -3.224290 1.522336 -1.130428 0
M  V30 22 C -3.191905 0.410522 -0.289490 0
M  V30 23 C -2.898027 -0.720976 -1.074762 0
M  V30 24 C -2.691254 -0.724203 -2.401771 0
M  V30 25 C -2.750222 0.450741 -3.147478 0
M  V30 26 C -3.032547 1.681519 -2.488810 0
M  V30 27 C 0.727248 3.358913 2.672009 0
M  V30 28 C 1.813869 2.737852 3.239410 0
M  V30 29 C 1.809877 1.325897 3.273102 0
M  V30 30 Cl 3.140987 0.432321 3.964989 0
M  V30 31 C 1.506329 -2.749567 -0.682926 0
M  V30 32 O 0.723146 -1.893228 -1.464192 0
M  V30 33 N 1.754974 -3.562089 -1.531093 0
M  V30 34 C 2.526663 -4.334154 -0.654294 0
M  V30 35 N 3.145338 -5.502759 -1.126722 0
M  V30 36 H 6.297863 -8.406964 -0.014134 0
M  V30 37 H 4.720831 -8.920971 0.662277 0
M  V30 38 H 5.438195 -7.375562 1.208159 0
M  V30 39 H 3.626471 -4.419381 2.562552 0
M  V30 40 H 2.378682 -2.669737 2.221060 0
M  V30 41 H 0.547432 -1.652165 3.098963 0
M  V30 42 H -1.185229 0.812863 1.792359 0
M  V30 43 H -2.286642 1.924494 0.784703 0
M  V30 44 H -3.642358 3.588877 -0.953027 0
M  V30 45 H -4.994761 3.425790 1.072461 0
M  V30 46 H -4.697502 1.684581 1.204792 0
M  V30 47 H -6.664610 2.638685 -0.036528 0
M  V30 48 H -5.611447 3.042421 -1.294604 0
M  V30 49 H -3.336603 0.275713 0.746742 0
M  V30 50 H -2.848283 -1.686601 -0.505191 0
M  V30 51 H -2.467742 -1.672616 -2.891858 0
M  V30 52 H -2.595034 0.444662 -4.206225 0
M  V30 53 H -3.111411 2.645536 -2.931706 0
M  V30 54 H 0.713212 4.459733 2.627388 0
M  V30 55 H 2.678389 3.185719 3.663770 0
M  V30 56 H 1.565475 -3.777930 -2.463411 0
M  V30 END ATOM
M  V30 BEGIN BOND
M  V30 1 1 1 2
M  V30 2 1 2 3
M  V30 3 2 3 4
M  V30 4 1 4 5
M  V30 5 2 5 6
M  V30 6 1 6 7
M  V30 7 2 7 8
M  V30 8 1 8 9
M  V30 9 2 9 10
M  V30 10 1 9 11
M  V30 11 1 11 12
M  V30 12 2 12 13
M  V30 13 1 13 14
M  V30 14 1 14 15
M  V30 15 2 15 16
M  V30 16 1 15 17
M  V30 17 1 17 18
M  V30 18 1 18 19
M  V30 19 1 19 20
M  V30 20 1 18 21
M  V30 21 2 21 22
M  V30 22 1 22 23
M  V30 23 2 23 24
M  V30 24 1 24 25
M  V30 25 2 25 26
M  V30 26 2 14 27
M  V30 27 1 27 28
M  V30 28 2 28 29
M  V30 29 1 29 30
M  V30 30 1 8 31
M  V30 31 2 31 32
M  V30 32 1 31 33
M  V30 33 1 33 34
M  V30 34 2 34 35
M  V30 35 1 35 3
M  V30 36 1 34 6
M  V30 37 1 29 12
M  V30 38 1 26 21
M  V30 39 1 1 36
M  V30 40 1 1 37
M  V30 41 1 1 38
M  V30 42 1 5 39
M  V30 43 1 7 40
M  V30 44 1 11 41
M  V30 45 1 13 42
M  V30 46 1 17 43
M  V30 47 1 18 44
M  V30 48 1 19 45
M  V30 49 1 19 46
M  V30 50 1 20 47
M  V30 51 1 20 48
M  V30 52 1 22 49
M  V30 53 1 23 50
M  V30 54 1 24 51
M  V30 55 1 25 52
M  V30 56 1 26 53
M  V30 57 1 27 54
M  V30 58 1 28 55
M  V30 59 1 33 56
M  V30 END BOND
M  V30 END CTAB
M  END
>  <Dataset>  (650) 
ChEMBL_Kinases

>  <Ligand_Instance>  (650) 
nan

>  <PDB_ID>  (650) 
nan

>  <Standardized_SMILES>  (650) 
COc1ncc2cc(C(=O)Nc3cc(C(=O)NC(CN)c4ccccc4)ccc3Cl)c(=O)[nH]c2n1

>  <Name>  (650) 
nan

>  <Pocket>  (650) 
nan

>  <ATP_Site>  (650) 
nan

>  <Peripheral>  (650) 
nan

>  <Num_H_Atoms_ProtBoundConf>  (650) 
nan

>  <Num_Resolved_Atoms>  (650) 
nan

>  <Num_Not_Resolved_Atoms>  (650) 
nan

$$$$
CHEMBL3094455
     RDKit          3D

  0  0  0  0  0  0  0  0  0  0999 V3000
M  V30 BEGIN CTAB
M  V30 COUNTS 59 62 0 0 0
M  V30 BEGIN ATOM
M  V30 1 C -10.007168 6.046157 -4.013059 0
M  V30 2 O -9.443907 4.829239 -3.629228 0
M  V30 3 C -8.073574 4.537546 -3.649522 0
M  V30 4 N -7.031776 5.299821 -4.017792 0
M  V30 5 C -5.798989 4.764686 -3.938455 0
M  V30 6 C -5.565200 3.497326 -3.505679 0
M  V30 7 C -4.282652 2.990321 -3.440033 0
M  V30 8 C -4.039796 1.683491 -2.992713 0
M  V30 9 C -2.629897 1.344275 -2.996900 0
M  V30 10 O -1.681539 2.090991 -3.353301 0
M  V30 11 N -2.123972 0.090722 -2.588109 0
M  V30 12 C -0.854143 -0.529517 -2.477906 0
M  V30 13 C -0.170177 -0.393633 -1.291435 0
M  V30 14 C 1.064264 -0.998681 -1.170853 0
M  V30 15 C 1.776918 -0.841238 0.098124 0
M  V30 16 O 1.236062 -0.149061 0.999650 0
M  V30 17 N 3.038131 -1.431462 0.350054 0
M  V30 18 C 3.616154 -1.184572 1.657322 0
M  V30 19 C 4.988509 -0.561252 1.544980 0
M  V30 20 C 5.620154 -0.289432 2.904032 0
M  V30 21 N 5.782463 -1.510142 3.668371 0
M  V30 22 C 3.732406 -2.535375 2.294821 0
M  V30 23 C 4.284705 -3.528672 1.502969 0
M  V30 24 C 4.401987 -4.797914 2.065369 0
M  V30 25 C 3.995408 -5.072112 3.342952 0
M  V30 26 C 3.444149 -4.082451 4.134658 0
M  V30 27 C 3.326647 -2.830381 3.584187 0
M  V30 28 C 1.587564 -1.719444 -2.223466 0
M  V30 29 C 0.874334 -1.844433 -3.421762 0
M  V30 30 C -0.371936 -1.244957 -3.570495 0
M  V30 31 Cl -1.272181 -1.398409 -5.067919 0
M  V30 32 C -5.164071 0.991422 -2.642117 0
M  V30 33 O -4.937785 -0.159197 -2.249229 0
M  V30 34 N -6.394235 1.492709 -2.710391 0
M  V30 35 C -6.646626 2.724366 -3.129638 0
M  V30 36 N -7.885920 3.277368 -3.214624 0
M  V30 37 H -9.281161 6.661286 -4.547925 0
M  V30 38 H -10.892193 5.912063 -4.670032 0
M  V30 39 H -10.354662 6.624550 -3.124875 0
M  V30 40 H -5.005161 5.438165 -4.253038 0
M  V30 41 H -3.487889 3.682295 -3.760468 0
M  V30 42 H -2.733784 -0.682844 -2.251830 0
M  V30 43 H -0.610561 0.179494 -0.485316 0
M  V30 44 H 3.514595 -2.008390 -0.372234 0
M  V30 45 H 3.002171 -0.544970 2.286203 0
M  V30 46 H 5.697276 -1.266622 1.037309 0
M  V30 47 H 4.904640 0.340922 0.941547 0
M  V30 48 H 4.904451 0.383086 3.464517 0
M  V30 49 H 6.574675 0.250652 2.803821 0
M  V30 50 H 5.588214 -1.388973 4.681129 0
M  V30 51 H 6.797333 -1.814080 3.606100 0
M  V30 52 H 4.646371 -3.458371 0.490783 0
M  V30 53 H 4.828543 -5.631585 1.496352 0
M  V30 54 H 4.104457 -6.075761 3.744617 0
M  V30 55 H 3.119648 -4.286212 5.145696 0
M  V30 56 H 2.895290 -2.001849 4.165030 0
M  V30 57 H 2.544112 -2.198943 -2.151053 0
M  V30 58 H 1.322555 -2.423033 -4.230631 0
M  V30 59 H -7.187299 0.885116 -2.420800 0
M  V30 END ATOM
M  V30 BEGIN BOND
M  V30 1 1 1 2
M  V30 2 1 2 3
M  V30 3 2 3 4
M  V30 4 1 4 5
M  V30 5 2 5 6
M  V30 6 1 6 7
M  V30 7 2 7 8
M  V30 8 1 8 9
M  V30 9 2 9 10
M  V30 10 1 9 11
M  V30 11 1 11 12
M  V30 12 2 12 13
M  V30 13 1 13 14
M  V30 14 1 14 15
M  V30 15 2 15 16
M  V30 16 1 15 17
M  V30 17 1 17 18
M  V30 18 1 18 19
M  V30 19 1 19 20
M  V30 20 1 20 21
M  V30 21 1 18 22
M  V30 22 2 22 23
M  V30 23 1 23 24
M  V30 24 2 24 25
M  V30 25 1 25 26
M  V30 26 2 26 27
M  V30 27 2 14 28
M  V30 28 1 28 29
M  V30 29 2 29 30
M  V30 30 1 30 31
M  V30 31 1 8 32
M  V30 32 2 32 33
M  V30 33 1 32 34
M  V30 34 1 34 35
M  V30 35 2 35 36
M  V30 36 1 36 3
M  V30 37 1 35 6
M  V30 38 1 30 12
M  V30 39 1 27 22
M  V30 40 1 1 37
M  V30 41 1 1 38
M  V30 42 1 1 39
M  V30 43 1 5 40
M  V30 44 1 7 41
M  V30 45 1 11 42
M  V30 46 1 13 43
M  V30 47 1 17 44
M  V30 48 1 18 45
M  V30 49 1 19 46
M  V30 50 1 19 47
M  V30 51 1 20 48
M  V30 52 1 20 49
M  V30 53 1 21 50
M  V30 54 1 21 51
M  V30 55 1 23 52
M  V30 56 1 24 53
M  V30 57 1 25 54
M  V30 58 1 26 55
M  V30 59 1 27 56
M  V30 60 1 28 57
M  V30 61 1 29 58
M  V30 62 1 34 59
M  V30 END BOND
M  V30 END CTAB
M  END
>  <Dataset>  (651) 
ChEMBL_Kinases

>  <Ligand_Instance>  (651) 
nan

>  <PDB_ID>  (651) 
nan

>  <Standardized_SMILES>  (651) 
COc1ncc2cc(C(=O)Nc3cc(C(=O)NC(CCN)c4ccccc4)ccc3Cl)c(=O)[nH]c2n1

>  <Name>  (651) 
nan

>  <Pocket>  (651) 
nan

>  <ATP_Site>  (651) 
nan

>  <Peripheral>  (651) 
nan

>  <Num_H_Atoms_ProtBoundConf>  (651) 
nan

>  <Num_Resolved_Atoms>  (651) 
nan

>  <Num_Not_Resolved_Atoms>  (651) 
nan

$$$$
CHEMBL3094456
     RDKit          3D

  0  0  0  0  0  0  0  0  0  0999 V3000
M  V30 BEGIN CTAB
M  V30 COUNTS 62 65 0 0 0
M  V30 BEGIN ATOM
M  V30 1 C 5.046337 3.933062 9.201545 0
M  V30 2 O 5.445393 2.716727 8.561492 0
M  V30 3 C 4.911106 2.312508 7.360227 0
M  V30 4 N 5.356619 1.143595 6.836830 0
M  V30 5 C 4.849085 0.710390 5.646254 0
M  V30 6 C 3.897092 1.494214 5.029358 0
M  V30 7 C 3.371362 1.075381 3.826793 0
M  V30 8 C 2.414557 1.809901 3.153284 0
M  V30 9 C 1.944504 1.254737 1.895838 0
M  V30 10 O 2.396373 0.146174 1.441690 0
M  V30 11 N 0.989930 1.758275 0.994023 0
M  V30 12 C 0.676739 1.041146 -0.196391 0
M  V30 13 C -0.330651 0.078029 -0.256685 0
M  V30 14 C -0.612446 -0.600525 -1.427216 0
M  V30 15 C -1.684873 -1.587458 -1.375132 0
M  V30 16 O -2.277674 -1.759980 -0.293275 0
M  V30 17 N -2.087726 -2.362786 -2.496256 0
M  V30 18 C -3.141266 -3.353031 -2.498326 0
M  V30 19 C -4.186283 -3.056243 -3.545043 0
M  V30 20 C -4.840610 -1.731349 -3.334039 0
M  V30 21 C -5.545051 -1.617114 -2.005281 0
M  V30 22 N -6.118304 -0.261234 -1.984992 0
M  V30 23 C -2.508892 -4.689538 -2.761616 0
M  V30 24 C -2.955457 -5.655178 -3.621430 0
M  V30 25 C -2.268604 -6.843039 -3.763611 0
M  V30 26 C -1.130558 -6.991705 -3.002114 0
M  V30 27 C -0.638949 -6.052014 -2.123267 0
M  V30 28 C -1.355966 -4.879824 -2.012064 0
M  V30 29 C 0.107590 -0.333548 -2.573033 0
M  V30 30 C 1.102574 0.627447 -2.485611 0
M  V30 31 C 1.404357 1.318612 -1.331684 0
M  V30 32 Cl 2.692445 2.514454 -1.353357 0
M  V30 33 C 2.033746 2.977363 3.771238 0
M  V30 34 O 1.166006 3.662471 3.180015 0
M  V30 35 N 2.509660 3.435088 4.939358 0
M  V30 36 C 3.435593 2.683704 5.550031 0
M  V30 37 N 3.972057 3.072091 6.738007 0
M  V30 38 H 4.200908 3.746819 9.895484 0
M  V30 39 H 5.873723 4.301019 9.873899 0
M  V30 40 H 4.770896 4.712621 8.474724 0
M  V30 41 H 5.181904 -0.216351 5.200809 0
M  V30 42 H 3.737050 0.134554 3.416039 0
M  V30 43 H 0.535204 2.664275 1.239731 0
M  V30 44 H -0.836371 -0.060294 0.687882 0
M  V30 45 H -1.608291 -2.236943 -3.411651 0
M  V30 46 H -3.584804 -3.398270 -1.498925 0
M  V30 47 H -4.981829 -3.826559 -3.538926 0
M  V30 48 H -3.761118 -3.076461 -4.567162 0
M  V30 49 H -5.601438 -1.535738 -4.114275 0
M  V30 50 H -4.124942 -0.881096 -3.418590 0
M  V30 51 H -4.888129 -1.791000 -1.143454 0
M  V30 52 H -6.344700 -2.380512 -1.973564 0
M  V30 53 H -5.417379 0.359252 -2.427708 0
M  V30 54 H -6.985636 -0.324047 -2.593614 0
M  V30 55 H -3.861590 -5.414478 -4.159988 0
M  V30 56 H -2.637332 -7.591594 -4.446320 0
M  V30 57 H -0.555893 -7.920122 -3.085693 0
M  V30 58 H 0.265637 -6.230076 -1.551187 0
M  V30 59 H -0.940279 -4.147776 -1.303595 0
M  V30 60 H -0.109822 -0.859305 -3.483132 0
M  V30 61 H 1.670371 0.833876 -3.399460 0
M  V30 62 H 2.162865 4.325163 5.326819 0
M  V30 END ATOM
M  V30 BEGIN BOND
M  V30 1 1 1 2
M  V30 2 1 2 3
M  V30 3 2 3 4
M  V30 4 1 4 5
M  V30 5 2 5 6
M  V30 6 1 6 7
M  V30 7 2 7 8
M  V30 8 1 8 9
M  V30 9 2 9 10
M  V30 10 1 9 11
M  V30 11 1 11 12
M  V30 12 2 12 13
M  V30 13 1 13 14
M  V30 14 1 14 15
M  V30 15 2 15 16
M  V30 16 1 15 17
M  V30 17 1 17 18
M  V30 18 1 18 19
M  V30 19 1 19 20
M  V30 20 1 20 21
M  V30 21 1 21 22
M  V30 22 1 18 23
M  V30 23 2 23 24
M  V30 24 1 24 25
M  V30 25 2 25 26
M  V30 26 1 26 27
M  V30 27 2 27 28
M  V30 28 2 14 29
M  V30 29 1 29 30
M  V30 30 2 30 31
M  V30 31 1 31 32
M  V30 32 1 8 33
M  V30 33 2 33 34
M  V30 34 1 33 35
M  V30 35 1 35 36
M  V30 36 2 36 37
M  V30 37 1 37 3
M  V30 38 1 36 6
M  V30 39 1 31 12
M  V30 40 1 28 23
M  V30 41 1 1 38
M  V30 42 1 1 39
M  V30 43 1 1 40
M  V30 44 1 5 41
M  V30 45 1 7 42
M  V30 46 1 11 43
M  V30 47 1 13 44
M  V30 48 1 17 45
M  V30 49 1 18 46
M  V30 50 1 19 47
M  V30 51 1 19 48
M  V30 52 1 20 49
M  V30 53 1 20 50
M  V30 54 1 21 51
M  V30 55 1 21 52
M  V30 56 1 22 53
M  V30 57 1 22 54
M  V30 58 1 24 55
M  V30 59 1 25 56
M  V30 60 1 26 57
M  V30 61 1 27 58
M  V30 62 1 28 59
M  V30 63 1 29 60
M  V30 64 1 30 61
M  V30 65 1 35 62
M  V30 END BOND
M  V30 END CTAB
M  END
>  <Dataset>  (652) 
ChEMBL_Kinases

>  <Ligand_Instance>  (652) 
nan

>  <PDB_ID>  (652) 
nan

>  <Standardized_SMILES>  (652) 
COc1ncc2cc(C(=O)Nc3cc(C(=O)NC(CCCN)c4ccccc4)ccc3Cl)c(=O)[nH]c2n1

>  <Name>  (652) 
nan

>  <Pocket>  (652) 
nan

>  <ATP_Site>  (652) 
nan

>  <Peripheral>  (652) 
nan

>  <Num_H_Atoms_ProtBoundConf>  (652) 
nan

>  <Num_Resolved_Atoms>  (652) 
nan

>  <Num_Not_Resolved_Atoms>  (652) 
nan

$$$$
CHEMBL4587596
     RDKit          3D

  0  0  0  0  0  0  0  0  0  0999 V3000
M  V30 BEGIN CTAB
M  V30 COUNTS 49 52 0 0 0
M  V30 BEGIN ATOM
M  V30 1 C 1.778764 -5.334126 0.784477 0
M  V30 2 C 1.904837 -3.846215 0.705978 0
M  V30 3 N 3.113511 -3.274276 0.621260 0
M  V30 4 C 3.206867 -1.934672 0.551496 0
M  V30 5 C 4.514943 -1.483528 0.468468 0
M  V30 6 C 4.687109 -0.097228 0.393155 0
M  V30 7 C 3.572159 0.715164 0.405807 0
M  V30 8 F 3.906719 2.022276 0.326592 0
M  V30 9 C 2.276805 0.257547 0.488530 0
M  V30 10 C 1.155856 1.179278 0.496030 0
M  V30 11 C -0.189540 0.912213 0.564592 0
M  V30 12 C -0.947477 2.062386 0.545405 0
M  V30 13 C -0.044800 3.094166 0.460981 0
M  V30 14 N 1.173306 2.520217 0.435448 0
M  V30 15 C -0.507106 4.503218 0.407527 0
M  V30 16 C -1.797425 4.618394 1.179631 0
M  V30 17 N -2.764318 3.727152 0.569553 0
M  V30 18 C -2.401335 2.332029 0.605100 0
M  V30 19 O -3.219849 1.375574 0.680279 0
M  V30 20 C 2.104702 -1.105915 0.562821 0
M  V30 21 N 0.900906 -1.687473 0.647817 0
M  V30 22 C 0.774241 -3.020078 0.718827 0
M  V30 23 N -0.507030 -3.669105 0.809771 0
M  V30 24 C -1.824785 -3.116984 0.845745 0
M  V30 25 C -2.936164 -4.140071 0.934497 0
M  V30 26 C -2.016938 -2.177668 2.024050 0
M  V30 27 C -2.093979 -2.321117 -0.421913 0
M  V30 28 H 2.767674 -5.750728 1.009277 0
M  V30 29 H 1.121272 -5.661308 1.626974 0
M  V30 30 H 1.329315 -5.736314 -0.142825 0
M  V30 31 H 5.376166 -2.137408 0.459950 0
M  V30 32 H 5.703910 0.254933 0.328574 0
M  V30 33 H -0.687059 -0.032235 0.626989 0
M  V30 34 H 2.001018 3.158493 0.372330 0
M  V30 35 H 0.302409 5.122821 0.852478 0
M  V30 36 H -0.676481 4.848016 -0.633053 0
M  V30 37 H -1.585387 4.288501 2.225681 0
M  V30 38 H -2.173928 5.675720 1.185725 0
M  V30 39 H -3.700356 3.919981 0.098727 0
M  V30 40 H -0.523343 -4.729735 0.860595 0
M  V30 41 H -2.768261 -5.009462 0.276664 0
M  V30 42 H -3.123116 -4.480536 1.979613 0
M  V30 43 H -3.877491 -3.661096 0.587851 0
M  V30 44 H -1.035856 -1.727831 2.283090 0
M  V30 45 H -2.758185 -1.415565 1.717238 0
M  V30 46 H -2.414235 -2.787633 2.861690 0
M  V30 47 H -2.651606 -2.915334 -1.166412 0
M  V30 48 H -1.109435 -1.991593 -0.810661 0
M  V30 49 H -2.744100 -1.450297 -0.166820 0
M  V30 END ATOM
M  V30 BEGIN BOND
M  V30 1 1 1 2
M  V30 2 2 2 3
M  V30 3 1 3 4
M  V30 4 2 4 5
M  V30 5 1 5 6
M  V30 6 2 6 7
M  V30 7 1 7 8
M  V30 8 1 7 9
M  V30 9 1 9 10
M  V30 10 2 10 11
M  V30 11 1 11 12
M  V30 12 2 12 13
M  V30 13 1 13 14
M  V30 14 1 13 15
M  V30 15 1 15 16
M  V30 16 1 16 17
M  V30 17 1 17 18
M  V30 18 2 18 19
M  V30 19 2 9 20
M  V30 20 1 20 21
M  V30 21 2 21 22
M  V30 22 1 22 23
M  V30 23 1 23 24
M  V30 24 1 24 25
M  V30 25 1 24 26
M  V30 26 1 24 27
M  V30 27 1 22 2
M  V30 28 1 20 4
M  V30 29 1 14 10
M  V30 30 1 18 12
M  V30 31 1 1 28
M  V30 32 1 1 29
M  V30 33 1 1 30
M  V30 34 1 5 31
M  V30 35 1 6 32
M  V30 36 1 11 33
M  V30 37 1 14 34
M  V30 38 1 15 35
M  V30 39 1 15 36
M  V30 40 1 16 37
M  V30 41 1 16 38
M  V30 42 1 17 39
M  V30 43 1 23 40
M  V30 44 1 25 41
M  V30 45 1 25 42
M  V30 46 1 25 43
M  V30 47 1 26 44
M  V30 48 1 26 45
M  V30 49 1 26 46
M  V30 50 1 27 47
M  V30 51 1 27 48
M  V30 52 1 27 49
M  V30 END BOND
M  V30 END CTAB
M  END
>  <Dataset>  (653) 
ChEMBL_Kinases

>  <Ligand_Instance>  (653) 
nan

>  <PDB_ID>  (653) 
nan

>  <Standardized_SMILES>  (653) 
Cc1nc2ccc(F)c(-c3cc4c([nH]3)CCNC4=O)c2nc1NC(C)(C)C

>  <Name>  (653) 
nan

>  <Pocket>  (653) 
nan

>  <ATP_Site>  (653) 
nan

>  <Peripheral>  (653) 
nan

>  <Num_H_Atoms_ProtBoundConf>  (653) 
nan

>  <Num_Resolved_Atoms>  (653) 
nan

>  <Num_Not_Resolved_Atoms>  (653) 
nan

$$$$
CHEMBL3680595
     RDKit          3D

  0  0  0  0  0  0  0  0  0  0999 V3000
M  V30 BEGIN CTAB
M  V30 COUNTS 52 55 0 0 0
M  V30 BEGIN ATOM
M  V30 1 C 0.442646 -1.877916 3.095553 0
M  V30 2 C -0.502683 -0.715400 3.099618 0 CFG=1
M  V30 3 N -0.189998 0.088067 1.917364 0
M  V30 4 C 1.110760 0.599844 1.762615 0
M  V30 5 N 2.051018 0.333954 2.703650 0
M  V30 6 C 3.307539 0.811527 2.571898 0
M  V30 7 N 3.704604 1.568001 1.520296 0
M  V30 8 C 2.781038 1.826810 0.600125 0
M  V30 9 C 3.146889 2.593691 -0.484640 0
M  V30 10 C 4.477675 3.145084 -0.692872 0
M  V30 11 N 5.597874 2.984792 0.172922 0
M  V30 12 O 4.852466 3.853414 -1.672284 0
M  V30 13 C 2.229756 2.900157 -1.481494 0
M  V30 14 C 0.928006 2.443029 -1.409316 0
M  V30 15 C 0.574020 1.673218 -0.312671 0
M  V30 16 C 1.488761 1.367867 0.681511 0
M  V30 17 C -1.926849 -1.164190 3.103451 0
M  V30 18 C -2.870672 -1.100511 4.106062 0
M  V30 19 C -4.141133 -1.586530 3.896533 0
M  V30 20 C -4.485901 -2.141383 2.687762 0
M  V30 21 C -3.587367 -2.243889 1.620828 0
M  V30 22 N -3.922783 -2.824282 0.364297 0
M  V30 23 C -2.868352 -2.895390 -0.614402 0
M  V30 24 N -2.168241 -4.014126 -0.354762 0
M  V30 25 C -1.093012 -4.338792 -1.131283 0
M  V30 26 C -0.763422 -3.491844 -2.167639 0
M  V30 27 C 0.401477 -3.809988 -3.031338 0
M  V30 28 F 0.951204 -5.049230 -2.680570 0
M  V30 29 F 1.439823 -2.889796 -2.870605 0
M  V30 30 F 0.075087 -3.899371 -4.371370 0
M  V30 31 C -1.467849 -2.341130 -2.451074 0
M  V30 32 C -2.558650 -2.033953 -1.644404 0
M  V30 33 Cl -3.616383 -0.669118 -1.768084 0
M  V30 34 C -2.319612 -1.733084 1.899041 0
M  V30 35 H 1.251639 -1.699559 3.839379 0
M  V30 36 H 0.963154 -1.961958 2.120199 0
M  V30 37 H -0.025151 -2.844401 3.390095 0
M  V30 38 H -0.280623 -0.079833 3.975880 0
M  V30 39 H -0.996332 0.212020 1.271482 0
M  V30 40 H 4.076355 0.600194 3.327014 0
M  V30 41 H 6.036289 2.098212 -0.199691 0
M  V30 42 H 6.109998 3.401269 0.991701 0
M  V30 43 H 2.495157 3.499620 -2.340225 0
M  V30 44 H 0.169655 2.664064 -2.177654 0
M  V30 45 H -0.443133 1.331287 -0.278683 0
M  V30 46 H -2.460392 -0.633808 5.011078 0
M  V30 47 H -4.812391 -1.496688 4.729472 0
M  V30 48 H -5.500705 -2.520907 2.545836 0
M  V30 49 H -4.911380 -3.145240 0.273676 0
M  V30 50 H -0.465663 -5.227662 -0.993345 0
M  V30 51 H -1.279614 -1.642550 -3.227586 0
M  V30 52 H -1.640255 -1.820136 1.060345 0
M  V30 END ATOM
M  V30 BEGIN BOND
M  V30 1 1 1 2
M  V30 2 1 2 3
M  V30 3 1 3 4
M  V30 4 2 4 5
M  V30 5 1 5 6
M  V30 6 2 6 7
M  V30 7 1 7 8
M  V30 8 2 8 9
M  V30 9 1 9 10
M  V30 10 1 10 11
M  V30 11 2 10 12
M  V30 12 1 9 13
M  V30 13 2 13 14
M  V30 14 1 14 15
M  V30 15 2 15 16
M  V30 16 1 2 17
M  V30 17 2 17 18
M  V30 18 1 18 19
M  V30 19 2 19 20
M  V30 20 1 20 21
M  V30 21 1 21 22
M  V30 22 1 22 23
M  V30 23 2 23 24
M  V30 24 1 24 25
M  V30 25 2 25 26
M  V30 26 1 26 27
M  V30 27 1 27 28
M  V30 28 1 27 29
M  V30 29 1 27 30
M  V30 30 1 26 31
M  V30 31 2 31 32
M  V30 32 1 32 33
M  V30 33 2 21 34
M  V30 34 1 16 4
M  V30 35 1 34 17
M  V30 36 1 16 8
M  V30 37 1 32 23
M  V30 38 1 1 35
M  V30 39 1 1 36
M  V30 40 1 1 37
M  V30 41 1 2 38 CFG=1
M  V30 42 1 3 39
M  V30 43 1 6 40
M  V30 44 1 11 41
M  V30 45 1 11 42
M  V30 46 1 13 43
M  V30 47 1 14 44
M  V30 48 1 15 45
M  V30 49 1 18 46
M  V30 50 1 19 47
M  V30 51 1 20 48
M  V30 52 1 22 49
M  V30 53 1 25 50
M  V30 54 1 31 51
M  V30 55 1 34 52
M  V30 END BOND
M  V30 END CTAB
M  END
>  <Dataset>  (654) 
ChEMBL_Kinases

>  <Ligand_Instance>  (654) 
nan

>  <PDB_ID>  (654) 
nan

>  <Standardized_SMILES>  (654) 
C[C@@H](Nc1ncnc2c(C(N)=O)cccc12)c1cccc(Nc2ncc(C(F)(F)F)cc2Cl)c1

>  <Name>  (654) 
nan

>  <Pocket>  (654) 
nan

>  <ATP_Site>  (654) 
nan

>  <Peripheral>  (654) 
nan

>  <Num_H_Atoms_ProtBoundConf>  (654) 
nan

>  <Num_Resolved_Atoms>  (654) 
nan

>  <Num_Not_Resolved_Atoms>  (654) 
nan

$$$$
CHEMBL3680593
     RDKit          3D

  0  0  0  0  0  0  0  0  0  0999 V3000
M  V30 BEGIN CTAB
M  V30 COUNTS 53 56 0 0 0
M  V30 BEGIN ATOM
M  V30 1 C -0.268191 -0.203594 4.213107 0
M  V30 2 C -0.925623 0.977409 3.568560 0 CFG=1
M  V30 3 N 0.070795 1.847825 2.939866 0
M  V30 4 C 0.873900 1.296446 1.896543 0
M  V30 5 N 0.724208 0.034392 1.502342 0
M  V30 6 C 1.441618 -0.551660 0.527676 0
M  V30 7 N 2.389346 0.154848 -0.120731 0
M  V30 8 C 2.614775 1.451224 0.212094 0
M  V30 9 C 3.576707 2.201646 -0.431639 0
M  V30 10 C 4.334646 1.542861 -1.478477 0
M  V30 11 N 5.359710 2.170156 -2.238933 0
M  V30 12 O 4.099915 0.339603 -1.761701 0
M  V30 13 C 3.819040 3.518956 -0.106766 0
M  V30 14 C 3.049997 4.035464 0.889829 0
M  V30 15 C 2.092856 3.289624 1.530715 0
M  V30 16 C 1.844378 1.983144 1.216700 0
M  V30 17 C -1.892570 0.484683 2.549860 0
M  V30 18 C -2.278962 1.522147 1.722208 0
M  V30 19 C -3.188038 1.318288 0.677840 0
M  V30 20 C -3.705637 0.042466 0.479127 0
M  V30 21 C -3.303800 -0.974879 1.318877 0
M  V30 22 N -3.765491 -2.337235 1.218231 0
M  V30 23 C -2.961073 -3.130961 0.379431 0
M  V30 24 O -1.941761 -3.040745 -0.332531 0
M  V30 25 O -3.205760 -4.492743 0.121251 0
M  V30 26 C -2.348410 -5.215079 -0.733169 0
M  V30 27 C -1.270346 -5.841245 -0.144131 0
M  V30 28 C -0.362446 -6.577318 -0.878826 0
M  V30 29 C -0.566425 -6.673084 -2.253456 0
M  V30 30 C -1.647394 -6.048958 -2.866063 0
M  V30 31 C -2.554192 -5.310336 -2.111964 0
M  V30 32 C -2.408174 -0.769628 2.346329 0
M  V30 33 H -0.108019 -1.000045 3.462833 0
M  V30 34 H 0.712499 0.069399 4.691644 0
M  V30 35 H -0.937750 -0.571004 5.021049 0
M  V30 36 H -1.472969 1.554350 4.335193 0
M  V30 37 H 0.136890 2.822237 3.290818 0
M  V30 38 H 1.258690 -1.575737 0.269641 0
M  V30 39 H 6.292956 1.994479 -1.817694 0
M  V30 40 H 4.900256 2.660548 -3.048612 0
M  V30 41 H 4.587358 4.050261 -0.650310 0
M  V30 42 H 3.230230 5.084168 1.161229 0
M  V30 43 H 1.548408 3.802315 2.299756 0
M  V30 44 H -1.967037 2.559118 1.750432 0
M  V30 45 H -3.532497 2.082734 -0.005218 0
M  V30 46 H -4.407118 -0.255404 -0.278796 0
M  V30 47 H -4.579068 -2.824868 1.653411 0
M  V30 48 H -1.071377 -5.794964 0.918817 0
M  V30 49 H 0.507371 -7.099498 -0.503694 0
M  V30 50 H 0.091549 -7.231830 -2.935060 0
M  V30 51 H -1.845406 -6.096034 -3.929916 0
M  V30 52 H -3.421346 -4.795818 -2.521742 0
M  V30 53 H -2.035151 -1.492106 3.051622 0
M  V30 END ATOM
M  V30 BEGIN BOND
M  V30 1 1 1 2
M  V30 2 1 2 3
M  V30 3 1 3 4
M  V30 4 2 4 5
M  V30 5 1 5 6
M  V30 6 2 6 7
M  V30 7 1 7 8
M  V30 8 2 8 9
M  V30 9 1 9 10
M  V30 10 1 10 11
M  V30 11 2 10 12
M  V30 12 1 9 13
M  V30 13 2 13 14
M  V30 14 1 14 15
M  V30 15 2 15 16
M  V30 16 1 2 17
M  V30 17 2 17 18
M  V30 18 1 18 19
M  V30 19 2 19 20
M  V30 20 1 20 21
M  V30 21 1 21 22
M  V30 22 1 22 23
M  V30 23 2 23 24
M  V30 24 1 23 25
M  V30 25 1 25 26
M  V30 26 2 26 27
M  V30 27 1 27 28
M  V30 28 2 28 29
M  V30 29 1 29 30
M  V30 30 2 30 31
M  V30 31 2 21 32
M  V30 32 1 16 4
M  V30 33 1 32 17
M  V30 34 1 16 8
M  V30 35 1 31 26
M  V30 36 1 1 33
M  V30 37 1 1 34
M  V30 38 1 1 35
M  V30 39 1 2 36 CFG=1
M  V30 40 1 3 37
M  V30 41 1 6 38
M  V30 42 1 11 39
M  V30 43 1 11 40
M  V30 44 1 13 41
M  V30 45 1 14 42
M  V30 46 1 15 43
M  V30 47 1 18 44
M  V30 48 1 19 45
M  V30 49 1 20 46
M  V30 50 1 22 47
M  V30 51 1 27 48
M  V30 52 1 28 49
M  V30 53 1 29 50
M  V30 54 1 30 51
M  V30 55 1 31 52
M  V30 56 1 32 53
M  V30 END BOND
M  V30 END CTAB
M  END
>  <Dataset>  (655) 
ChEMBL_Kinases

>  <Ligand_Instance>  (655) 
nan

>  <PDB_ID>  (655) 
nan

>  <Standardized_SMILES>  (655) 
C[C@@H](Nc1ncnc2c(C(N)=O)cccc12)c1cccc(NC(=O)Oc2ccccc2)c1

>  <Name>  (655) 
nan

>  <Pocket>  (655) 
nan

>  <ATP_Site>  (655) 
nan

>  <Peripheral>  (655) 
nan

>  <Num_H_Atoms_ProtBoundConf>  (655) 
nan

>  <Num_Resolved_Atoms>  (655) 
nan

>  <Num_Not_Resolved_Atoms>  (655) 
nan

$$$$
CHEMBL3094457
     RDKit          3D

  0  0  0  0  0  0  0  0  0  0999 V3000
M  V30 BEGIN CTAB
M  V30 COUNTS 65 68 0 0 0
M  V30 BEGIN ATOM
M  V30 1 C 9.371909 -1.098356 3.737992 0
M  V30 2 O 9.194109 -1.222932 2.336617 0
M  V30 3 C 8.041216 -0.805515 1.697678 0
M  V30 4 N 7.825219 -0.902587 0.376857 0
M  V30 5 C 6.667828 -0.475546 -0.208059 0
M  V30 6 C 5.664019 0.082689 0.572226 0
M  V30 7 C 4.482621 0.523557 0.008284 0
M  V30 8 C 3.479724 1.085950 0.814204 0
M  V30 9 C 2.330591 1.477482 0.022338 0
M  V30 10 O 2.160323 1.371289 -1.218591 0
M  V30 11 N 1.187335 2.065523 0.600977 0
M  V30 12 C -0.074885 2.559850 0.179435 0
M  V30 13 C -1.155031 1.667917 0.144293 0
M  V30 14 C -2.406940 2.068964 -0.247893 0
M  V30 15 C -3.569363 1.158871 -0.294082 0
M  V30 16 O -4.700234 1.635308 -0.660374 0
M  V30 17 N -3.564072 -0.246135 0.038327 0
M  V30 18 C -4.741200 -1.025555 -0.040474 0
M  V30 19 C -4.893552 -1.784482 -1.295209 0
M  V30 20 C -3.913676 -2.792869 -1.714344 0
M  V30 21 C -2.512164 -2.387959 -1.991410 0
M  V30 22 C -1.694783 -3.615699 -2.452314 0
M  V30 23 N -2.268119 -4.171928 -3.640613 0
M  V30 24 C -5.028585 -1.802513 1.194476 0
M  V30 25 C -6.300661 -1.890159 1.770858 0
M  V30 26 C -6.464927 -2.639988 2.930466 0
M  V30 27 C -5.375332 -3.270777 3.473573 0
M  V30 28 C -4.106155 -3.189112 2.907086 0
M  V30 29 C -3.915143 -2.441345 1.741450 0
M  V30 30 C -2.603988 3.377431 -0.615091 0
M  V30 31 C -1.563980 4.280700 -0.591891 0
M  V30 32 C -0.313090 3.863664 -0.195776 0
M  V30 33 Cl 1.094627 4.912741 -0.120052 0
M  V30 34 C 3.765091 1.155846 2.157703 0
M  V30 35 O 2.859334 1.655090 2.826966 0
M  V30 36 N 4.929508 0.711893 2.651578 0
M  V30 37 C 5.915885 0.169099 1.928655 0
M  V30 38 N 7.074147 -0.266915 2.454298 0
M  V30 39 H 8.484862 -1.416289 4.296831 0
M  V30 40 H 9.480781 0.003958 3.923090 0
M  V30 41 H 10.241397 -1.680529 4.078581 0
M  V30 42 H 6.535250 -0.572737 -1.280380 0
M  V30 43 H 4.425861 0.391150 -1.071251 0
M  V30 44 H 1.064743 2.267776 1.607184 0
M  V30 45 H -0.964647 0.651446 0.437278 0
M  V30 46 H -2.595893 -0.480798 0.337231 0
M  V30 47 H -5.604224 -0.258163 -0.072258 0
M  V30 48 H -5.125651 -1.048735 -2.134486 0
M  V30 49 H -5.892829 -2.347000 -1.212141 0
M  V30 50 H -3.973657 -3.655502 -0.996697 0
M  V30 51 H -4.309480 -3.251625 -2.673721 0
M  V30 52 H -1.943723 -1.998900 -1.144587 0
M  V30 53 H -2.411911 -1.650456 -2.811519 0
M  V30 54 H -1.635729 -4.314208 -1.594648 0
M  V30 55 H -0.651449 -3.289452 -2.689662 0
M  V30 56 H -2.027326 -5.155877 -3.796767 0
M  V30 57 H -2.095248 -3.532953 -4.430353 0
M  V30 58 H -7.108740 -1.361639 1.279038 0
M  V30 59 H -7.471895 -2.681517 3.344450 0
M  V30 60 H -5.567437 -3.841619 4.378710 0
M  V30 61 H -3.269321 -3.714661 3.386025 0
M  V30 62 H -2.933790 -2.370734 1.292633 0
M  V30 63 H -3.550369 3.784847 -0.937622 0
M  V30 64 H -1.693871 5.306898 -0.874218 0
M  V30 65 H 5.035624 0.816024 3.683885 0
M  V30 END ATOM
M  V30 BEGIN BOND
M  V30 1 1 1 2
M  V30 2 1 2 3
M  V30 3 2 3 4
M  V30 4 1 4 5
M  V30 5 2 5 6
M  V30 6 1 6 7
M  V30 7 2 7 8
M  V30 8 1 8 9
M  V30 9 2 9 10
M  V30 10 1 9 11
M  V30 11 1 11 12
M  V30 12 2 12 13
M  V30 13 1 13 14
M  V30 14 1 14 15
M  V30 15 2 15 16
M  V30 16 1 15 17
M  V30 17 1 17 18
M  V30 18 1 18 19
M  V30 19 1 19 20
M  V30 20 1 20 21
M  V30 21 1 21 22
M  V30 22 1 22 23
M  V30 23 1 18 24
M  V30 24 2 24 25
M  V30 25 1 25 26
M  V30 26 2 26 27
M  V30 27 1 27 28
M  V30 28 2 28 29
M  V30 29 2 14 30
M  V30 30 1 30 31
M  V30 31 2 31 32
M  V30 32 1 32 33
M  V30 33 1 8 34
M  V30 34 2 34 35
M  V30 35 1 34 36
M  V30 36 1 36 37
M  V30 37 2 37 38
M  V30 38 1 38 3
M  V30 39 1 37 6
M  V30 40 1 32 12
M  V30 41 1 29 24
M  V30 42 1 1 39
M  V30 43 1 1 40
M  V30 44 1 1 41
M  V30 45 1 5 42
M  V30 46 1 7 43
M  V30 47 1 11 44
M  V30 48 1 13 45
M  V30 49 1 17 46
M  V30 50 1 18 47
M  V30 51 1 19 48
M  V30 52 1 19 49
M  V30 53 1 20 50
M  V30 54 1 20 51
M  V30 55 1 21 52
M  V30 56 1 21 53
M  V30 57 1 22 54
M  V30 58 1 22 55
M  V30 59 1 23 56
M  V30 60 1 23 57
M  V30 61 1 25 58
M  V30 62 1 26 59
M  V30 63 1 27 60
M  V30 64 1 28 61
M  V30 65 1 29 62
M  V30 66 1 30 63
M  V30 67 1 31 64
M  V30 68 1 36 65
M  V30 END BOND
M  V30 END CTAB
M  END
>  <Dataset>  (656) 
ChEMBL_Kinases

>  <Ligand_Instance>  (656) 
nan

>  <PDB_ID>  (656) 
nan

>  <Standardized_SMILES>  (656) 
COc1ncc2cc(C(=O)Nc3cc(C(=O)NC(CCCCN)c4ccccc4)ccc3Cl)c(=O)[nH]c2n1

>  <Name>  (656) 
nan

>  <Pocket>  (656) 
nan

>  <ATP_Site>  (656) 
nan

>  <Peripheral>  (656) 
nan

>  <Num_H_Atoms_ProtBoundConf>  (656) 
nan

>  <Num_Resolved_Atoms>  (656) 
nan

>  <Num_Not_Resolved_Atoms>  (656) 
nan

$$$$
CHEMBL4455711
     RDKit          3D

  0  0  0  0  0  0  0  0  0  0999 V3000
M  V30 BEGIN CTAB
M  V30 COUNTS 42 45 0 0 0
M  V30 BEGIN ATOM
M  V30 1 C 2.812850 -4.691069 3.017032 0
M  V30 2 C 2.673023 -3.473027 2.147809 0
M  V30 3 N 3.452403 -3.110192 1.114154 0
M  V30 4 C 2.984222 -1.945422 0.599309 0
M  V30 5 C 3.478939 -1.144905 -0.524332 0
M  V30 6 C 4.688065 -0.528092 -0.719625 0
M  V30 7 C 4.892445 0.173409 -1.889035 0
M  V30 8 C 3.949406 0.283354 -2.861372 0
M  V30 9 F 4.211920 0.990069 -3.994301 0
M  V30 10 C 2.740161 -0.326311 -2.679803 0
M  V30 11 C 2.490357 -1.047983 -1.508801 0
M  V30 12 C 1.887034 -1.631406 1.376918 0
M  V30 13 C 1.050385 -0.447326 1.194589 0
M  V30 14 C 1.770539 0.734214 1.402984 0
M  V30 15 C 1.157615 1.965081 1.278081 0
M  V30 16 N -0.151224 2.015306 0.950757 0
M  V30 17 C -0.865724 0.877237 0.744738 0
M  V30 18 N -2.245308 0.847645 0.397596 0
M  V30 19 C -3.228214 0.802497 1.429441 0
M  V30 20 O -2.727830 0.794242 2.578169 0
M  V30 21 C -4.686062 0.770175 1.101116 0
M  V30 22 C -5.530046 -0.282890 1.819855 0
M  V30 23 C -5.679148 1.192059 2.119267 0
M  V30 24 C -0.275086 -0.364657 0.863913 0
M  V30 25 N 1.708609 -2.569997 2.316179 0
M  V30 26 H 1.887253 -5.294446 3.003907 0
M  V30 27 H 3.640870 -5.305352 2.609087 0
M  V30 28 H 3.033058 -4.440409 4.063394 0
M  V30 29 H 5.350677 -0.684937 0.114932 0
M  V30 30 H 5.864188 0.630811 -1.974642 0
M  V30 31 H 2.004587 -0.218458 -3.479802 0
M  V30 32 H 1.497624 -1.475296 -1.498749 0
M  V30 33 H 2.834865 0.801592 1.671610 0
M  V30 34 H 1.673338 2.918053 1.429867 0
M  V30 35 H -2.546787 0.858908 -0.611868 0
M  V30 36 H -4.908019 0.786501 0.007839 0
M  V30 37 H -6.391682 -0.734733 1.293611 0
M  V30 38 H -4.960715 -0.896103 2.549598 0
M  V30 39 H -5.292569 1.566724 3.077346 0
M  V30 40 H -6.604107 1.708521 1.755076 0
M  V30 41 H -0.741946 -1.321741 0.724445 0
M  V30 42 H 0.964928 -2.574189 3.021423 0
M  V30 END ATOM
M  V30 BEGIN BOND
M  V30 1 1 1 2
M  V30 2 2 2 3
M  V30 3 1 3 4
M  V30 4 1 4 5
M  V30 5 2 5 6
M  V30 6 1 6 7
M  V30 7 2 7 8
M  V30 8 1 8 9
M  V30 9 1 8 10
M  V30 10 2 10 11
M  V30 11 2 4 12
M  V30 12 1 12 13
M  V30 13 2 13 14
M  V30 14 1 14 15
M  V30 15 2 15 16
M  V30 16 1 16 17
M  V30 17 1 17 18
M  V30 18 1 18 19
M  V30 19 2 19 20
M  V30 20 1 19 21
M  V30 21 1 21 22
M  V30 22 1 22 23
M  V30 23 2 17 24
M  V30 24 1 12 25
M  V30 25 1 25 2
M  V30 26 1 11 5
M  V30 27 1 24 13
M  V30 28 1 23 21
M  V30 29 1 1 26
M  V30 30 1 1 27
M  V30 31 1 1 28
M  V30 32 1 6 29
M  V30 33 1 7 30
M  V30 34 1 10 31
M  V30 35 1 11 32
M  V30 36 1 14 33
M  V30 37 1 15 34
M  V30 38 1 18 35
M  V30 39 1 21 36
M  V30 40 1 22 37
M  V30 41 1 22 38
M  V30 42 1 23 39
M  V30 43 1 23 40
M  V30 44 1 24 41
M  V30 45 1 25 42
M  V30 END BOND
M  V30 END CTAB
M  END
>  <Dataset>  (657) 
ChEMBL_Kinases

>  <Ligand_Instance>  (657) 
nan

>  <PDB_ID>  (657) 
nan

>  <Standardized_SMILES>  (657) 
Cc1nc(-c2ccc(F)cc2)c(-c2ccnc(NC(=O)C3CC3)c2)[nH]1

>  <Name>  (657) 
nan

>  <Pocket>  (657) 
nan

>  <ATP_Site>  (657) 
nan

>  <Peripheral>  (657) 
nan

>  <Num_H_Atoms_ProtBoundConf>  (657) 
nan

>  <Num_Resolved_Atoms>  (657) 
nan

>  <Num_Not_Resolved_Atoms>  (657) 
nan

$$$$
CHEMBL3680592
     RDKit          3D

  0  0  0  0  0  0  0  0  0  0999 V3000
M  V30 BEGIN CTAB
M  V30 COUNTS 61 64 0 0 0
M  V30 BEGIN ATOM
M  V30 1 C 5.710070 1.947098 3.228805 0
M  V30 2 N 4.753279 1.907295 2.112822 0
M  V30 3 C 3.914222 3.062601 2.287208 0
M  V30 4 C 2.864213 3.231054 1.280924 0
M  V30 5 C 3.215419 3.945951 0.131010 0
M  V30 6 C 2.220021 4.124037 -0.835589 0
M  V30 7 C 2.603042 4.877091 -2.047816 0
M  V30 8 N 1.614877 5.069333 -3.055185 0
M  V30 9 O 3.779956 5.300965 -2.113217 0
M  V30 10 C 0.941444 3.625516 -0.681842 0
M  V30 11 N 0.055852 3.853619 -1.658593 0
M  V30 12 C -1.201625 3.365286 -1.493645 0
M  V30 13 N -1.524881 2.683146 -0.388053 0
M  V30 14 C -0.682051 2.425987 0.617361 0
M  V30 15 N -1.052555 1.700196 1.769275 0
M  V30 16 C -2.347835 1.133968 2.078484 0
M  V30 17 C -2.839874 0.148620 1.108036 0
M  V30 18 C -3.677365 0.504787 0.058841 0
M  V30 19 C -4.160282 -0.395313 -0.869152 0
M  V30 20 C -3.736923 -1.714715 -0.671690 0
M  V30 21 C -2.898024 -2.139061 0.359771 0
M  V30 22 N -2.606565 -3.533240 0.371166 0
M  V30 23 C -3.133168 -4.698797 0.949024 0
M  V30 24 O -4.144607 -4.689514 1.694204 0
M  V30 25 C -2.476746 -5.970419 0.669813 0
M  V30 26 C -3.041957 -7.076041 1.254724 0
M  V30 27 C -2.456664 -8.326771 1.018022 0
M  V30 28 C -1.329489 -8.444348 0.209051 0
M  V30 29 O -0.740734 -9.693466 -0.030453 0
M  V30 30 C 0.404054 -9.826734 -0.853650 0
M  V30 31 C -0.760657 -7.327648 -0.380688 0
M  V30 32 C -1.362692 -6.116048 -0.125343 0
M  V30 33 C -2.457781 -1.178160 1.246262 0
M  V30 34 C 0.590599 2.918946 0.452906 0
M  V30 35 C 1.574984 2.757628 1.379469 0
M  V30 36 H 6.577721 2.596620 2.959614 0
M  V30 37 H 5.212092 2.344189 4.141551 0
M  V30 38 H 6.111537 0.931730 3.402973 0
M  V30 39 H 5.343754 2.096598 1.249316 0
M  V30 40 H 3.373154 2.923840 3.270762 0
M  V30 41 H 4.547497 3.964488 2.358438 0
M  V30 42 H 4.215602 4.331681 0.016392 0
M  V30 43 H 1.316221 4.363690 -3.768616 0
M  V30 44 H 1.114093 5.994971 -3.118143 0
M  V30 45 H -1.935291 3.534039 -2.263664 0
M  V30 46 H -0.378235 1.500216 2.536446 0
M  V30 47 H -2.426077 0.741848 3.116875 0
M  V30 48 H -3.126737 1.965858 2.068498 0
M  V30 49 H -4.015903 1.533472 -0.093875 0
M  V30 50 H -4.809905 -0.147773 -1.692831 0
M  V30 51 H -4.124862 -2.431684 -1.413212 0
M  V30 52 H -1.769155 -3.452355 -0.256984 0
M  V30 53 H -3.914942 -7.047498 1.891023 0
M  V30 54 H -2.908133 -9.197722 1.482952 0
M  V30 55 H 0.634864 -10.908716 -0.888766 0
M  V30 56 H 0.222706 -9.488236 -1.890435 0
M  V30 57 H 1.300193 -9.323548 -0.453084 0
M  V30 58 H 0.125158 -7.376314 -1.025097 0
M  V30 59 H -0.920413 -5.245657 -0.583600 0
M  V30 60 H -1.808380 -1.548018 2.031141 0
M  V30 61 H 1.406066 2.230820 2.285497 0
M  V30 END ATOM
M  V30 BEGIN BOND
M  V30 1 1 1 2
M  V30 2 1 2 3
M  V30 3 1 3 4
M  V30 4 2 4 5
M  V30 5 1 5 6
M  V30 6 1 6 7
M  V30 7 1 7 8
M  V30 8 2 7 9
M  V30 9 2 6 10
M  V30 10 1 10 11
M  V30 11 2 11 12
M  V30 12 1 12 13
M  V30 13 2 13 14
M  V30 14 1 14 15
M  V30 15 1 15 16
M  V30 16 1 16 17
M  V30 17 2 17 18
M  V30 18 1 18 19
M  V30 19 2 19 20
M  V30 20 1 20 21
M  V30 21 1 21 22
M  V30 22 1 22 23
M  V30 23 2 23 24
M  V30 24 1 23 25
M  V30 25 2 25 26
M  V30 26 1 26 27
M  V30 27 2 27 28
M  V30 28 1 28 29
M  V30 29 1 29 30
M  V30 30 1 28 31
M  V30 31 2 31 32
M  V30 32 2 21 33
M  V30 33 1 14 34
M  V30 34 2 34 35
M  V30 35 1 35 4
M  V30 36 1 34 10
M  V30 37 1 33 17
M  V30 38 1 32 25
M  V30 39 1 1 36
M  V30 40 1 1 37
M  V30 41 1 1 38
M  V30 42 1 2 39
M  V30 43 1 3 40
M  V30 44 1 3 41
M  V30 45 1 5 42
M  V30 46 1 8 43
M  V30 47 1 8 44
M  V30 48 1 12 45
M  V30 49 1 15 46
M  V30 50 1 16 47
M  V30 51 1 16 48
M  V30 52 1 18 49
M  V30 53 1 19 50
M  V30 54 1 20 51
M  V30 55 1 22 52
M  V30 56 1 26 53
M  V30 57 1 27 54
M  V30 58 1 30 55
M  V30 59 1 30 56
M  V30 60 1 30 57
M  V30 61 1 31 58
M  V30 62 1 32 59
M  V30 63 1 33 60
M  V30 64 1 35 61
M  V30 END BOND
M  V30 END CTAB
M  END
>  <Dataset>  (658) 
ChEMBL_Kinases

>  <Ligand_Instance>  (658) 
nan

>  <PDB_ID>  (658) 
nan

>  <Standardized_SMILES>  (658) 
CNCc1cc(C(N)=O)c2ncnc(NCc3cccc(NC(=O)c4ccc(OC)cc4)c3)c2c1

>  <Name>  (658) 
nan

>  <Pocket>  (658) 
nan

>  <ATP_Site>  (658) 
nan

>  <Peripheral>  (658) 
nan

>  <Num_H_Atoms_ProtBoundConf>  (658) 
nan

>  <Num_Resolved_Atoms>  (658) 
nan

>  <Num_Not_Resolved_Atoms>  (658) 
nan

$$$$
CHEMBL3094459
     RDKit          3D

  0  0  0  0  0  0  0  0  0  0999 V3000
M  V30 BEGIN CTAB
M  V30 COUNTS 65 68 0 0 0
M  V30 BEGIN ATOM
M  V30 1 C 6.110836 -7.000652 3.480299 0
M  V30 2 O 5.223839 -6.024829 3.979023 0
M  V30 3 C 4.815639 -4.890080 3.326620 0
M  V30 4 N 3.971619 -4.140682 4.034647 0
M  V30 5 C 3.424267 -2.984876 3.636178 0
M  V30 6 C 3.768844 -2.515059 2.353446 0
M  V30 7 C 3.331825 -1.319136 1.687348 0
M  V30 8 C 3.715918 -0.829028 0.299027 0
M  V30 9 C 2.922292 0.361962 0.349415 0
M  V30 10 O 3.339752 0.782524 -0.783753 0
M  V30 11 N 2.024537 1.042297 1.110001 0
M  V30 12 C 1.484617 2.313063 0.863370 0
M  V30 13 C 0.145776 2.134076 0.472929 0
M  V30 14 C -0.752607 3.128509 0.165101 0
M  V30 15 C -2.152733 2.940770 -0.186864 0
M  V30 16 O -2.957161 3.901818 -0.126596 0
M  V30 17 N -2.670000 1.686431 -0.598998 0
M  V30 18 C -3.960892 1.179128 -0.957268 0
M  V30 19 C -4.450316 1.447037 -2.321397 0
M  V30 20 C -3.691180 0.972570 -3.497045 0
M  V30 21 N -2.344330 1.490539 -3.602382 0
M  V30 22 C -4.202985 -0.200623 -0.422434 0
M  V30 23 C -3.227553 -1.221928 -0.885357 0
M  V30 24 C -3.723090 -2.587812 -0.381908 0
M  V30 25 C -3.665943 -2.585768 1.143514 0
M  V30 26 C -4.580031 -1.484119 1.628685 0
M  V30 27 C -4.049809 -0.171795 1.110424 0
M  V30 28 C -0.265413 4.424184 0.251336 0
M  V30 29 C 1.048639 4.635553 0.629962 0
M  V30 30 C 1.933950 3.611309 0.938108 0
M  V30 31 Cl 3.600807 3.678350 1.437542 0
M  V30 32 C 4.360845 -1.836863 0.312214 0
M  V30 33 O 4.732690 -1.402388 -0.974157 0
M  V30 34 N 5.072177 -2.935588 0.310360 0
M  V30 35 C 4.666546 -3.318836 1.604175 0
M  V30 36 N 5.210733 -4.510912 2.058911 0
M  V30 37 H 6.625802 -6.706809 2.562324 0
M  V30 38 H 6.910234 -7.080748 4.279808 0
M  V30 39 H 5.678364 -8.026179 3.441248 0
M  V30 40 H 2.753758 -2.340173 4.129665 0
M  V30 41 H 2.649328 -0.915914 2.530507 0
M  V30 42 H 1.705515 0.552011 1.953781 0
M  V30 43 H -0.360080 1.157838 0.364722 0
M  V30 44 H -2.000052 0.892452 -0.688377 0
M  V30 45 H -4.674941 1.853978 -0.323078 0
M  V30 46 H -5.482563 1.043697 -2.394598 0
M  V30 47 H -4.588841 2.552513 -2.457124 0
M  V30 48 H -3.794524 -0.101445 -3.756321 0
M  V30 49 H -4.229829 1.461270 -4.391296 0
M  V30 50 H -1.612453 0.917215 -3.158727 0
M  V30 51 H -2.103243 1.546211 -4.619929 0
M  V30 52 H -5.219410 -0.513925 -0.659737 0
M  V30 53 H -3.035832 -1.305110 -1.945904 0
M  V30 54 H -2.219247 -1.113171 -0.389607 0
M  V30 55 H -3.017327 -3.327210 -0.771946 0
M  V30 56 H -4.731696 -2.832666 -0.721182 0
M  V30 57 H -2.632081 -2.454667 1.462559 0
M  V30 58 H -4.084068 -3.545192 1.484474 0
M  V30 59 H -5.577049 -1.649746 1.153921 0
M  V30 60 H -4.633278 -1.489738 2.735899 0
M  V30 61 H -4.614406 0.698479 1.524728 0
M  V30 62 H -2.965262 -0.128200 1.352511 0
M  V30 63 H -0.859098 5.301381 0.037094 0
M  V30 64 H 1.511619 5.607512 0.722278 0
M  V30 65 H 5.707494 -3.430613 -0.297377 0
M  V30 END ATOM
M  V30 BEGIN BOND
M  V30 1 1 1 2
M  V30 2 1 2 3
M  V30 3 2 3 4
M  V30 4 1 4 5
M  V30 5 2 5 6
M  V30 6 1 6 7
M  V30 7 2 7 8
M  V30 8 1 8 9
M  V30 9 2 9 10
M  V30 10 1 9 11
M  V30 11 1 11 12
M  V30 12 2 12 13
M  V30 13 1 13 14
M  V30 14 1 14 15
M  V30 15 2 15 16
M  V30 16 1 15 17
M  V30 17 1 17 18
M  V30 18 1 18 19
M  V30 19 1 19 20
M  V30 20 1 20 21
M  V30 21 1 18 22
M  V30 22 1 22 23
M  V30 23 1 23 24
M  V30 24 1 24 25
M  V30 25 1 25 26
M  V30 26 1 26 27
M  V30 27 2 14 28
M  V30 28 1 28 29
M  V30 29 2 29 30
M  V30 30 1 30 31
M  V30 31 1 8 32
M  V30 32 2 32 33
M  V30 33 1 32 34
M  V30 34 1 34 35
M  V30 35 2 35 36
M  V30 36 1 36 3
M  V30 37 1 35 6
M  V30 38 1 30 12
M  V30 39 1 27 22
M  V30 40 1 1 37
M  V30 41 1 1 38
M  V30 42 1 1 39
M  V30 43 1 5 40
M  V30 44 1 7 41
M  V30 45 1 11 42
M  V30 46 1 13 43
M  V30 47 1 17 44
M  V30 48 1 18 45
M  V30 49 1 19 46
M  V30 50 1 19 47
M  V30 51 1 20 48
M  V30 52 1 20 49
M  V30 53 1 21 50
M  V30 54 1 21 51
M  V30 55 1 22 52
M  V30 56 1 23 53
M  V30 57 1 23 54
M  V30 58 1 24 55
M  V30 59 1 24 56
M  V30 60 1 25 57
M  V30 61 1 25 58
M  V30 62 1 26 59
M  V30 63 1 26 60
M  V30 64 1 27 61
M  V30 65 1 27 62
M  V30 66 1 28 63
M  V30 67 1 29 64
M  V30 68 1 34 65
M  V30 END BOND
M  V30 END CTAB
M  END
>  <Dataset>  (659) 
ChEMBL_Kinases

>  <Ligand_Instance>  (659) 
nan

>  <PDB_ID>  (659) 
nan

>  <Standardized_SMILES>  (659) 
COc1ncc2cc(C(=O)Nc3cc(C(=O)NC(CCN)C4CCCCC4)ccc3Cl)c(=O)[nH]c2n1

>  <Name>  (659) 
nan

>  <Pocket>  (659) 
nan

>  <ATP_Site>  (659) 
nan

>  <Peripheral>  (659) 
nan

>  <Num_H_Atoms_ProtBoundConf>  (659) 
nan

>  <Num_Resolved_Atoms>  (659) 
nan

>  <Num_Not_Resolved_Atoms>  (659) 
nan

$$$$
CHEMBL3094460
     RDKit          3D

  0  0  0  0  0  0  0  0  0  0999 V3000
M  V30 BEGIN CTAB
M  V30 COUNTS 59 62 0 0 0
M  V30 BEGIN ATOM
M  V30 1 C 4.949222 -7.259055 5.513079 0
M  V30 2 O 4.134145 -6.179002 5.974902 0
M  V30 3 C 3.818634 -5.100850 5.176480 0
M  V30 4 N 3.063029 -4.127710 5.634170 0
M  V30 5 C 2.663073 -3.012951 4.996733 0
M  V30 6 C 3.168967 -2.969870 3.666494 0
M  V30 7 C 2.837681 -1.842947 2.778342 0
M  V30 8 C 3.293377 -1.672560 1.331379 0
M  V30 9 C 2.589020 -0.445460 1.253580 0
M  V30 10 O 2.725549 -0.089012 0.015532 0
M  V30 11 N 1.844750 0.609720 1.689029 0
M  V30 12 C 1.606199 1.527127 0.617135 0
M  V30 13 C 0.444103 1.356523 -0.089550 0
M  V30 14 C 0.166618 2.209413 -1.171045 0
M  V30 15 C -1.031784 2.127625 -1.989522 0
M  V30 16 O -1.105112 2.798392 -3.064484 0
M  V30 17 N -2.160082 1.337752 -1.680260 0
M  V30 18 C -3.445138 0.987069 -2.168675 0 CFG=2
M  V30 19 C -4.572091 1.548540 -1.312159 0
M  V30 20 C -4.429629 3.051564 -1.327425 0
M  V30 21 N -5.415429 3.754820 -0.573733 0
M  V30 22 C -3.574776 -0.483870 -2.250004 0
M  V30 23 C -3.262120 -1.247608 -1.138041 0
M  V30 24 C -3.351784 -2.625298 -1.111352 0
M  V30 25 C -3.768689 -3.305904 -2.230419 0
M  V30 26 C -4.089939 -2.577091 -3.363176 0
M  V30 27 C -3.991682 -1.211570 -3.357927 0
M  V30 28 C 1.084693 3.180886 -1.467454 0
M  V30 29 C 2.241403 3.333992 -0.746708 0
M  V30 30 C 2.525702 2.509692 0.311744 0
M  V30 31 Cl 3.983941 2.626185 1.291305 0
M  V30 32 C 3.916303 -2.757865 1.400330 0
M  V30 33 O 4.289016 -2.557198 0.124484 0
M  V30 34 N 4.382127 -3.856271 1.896171 0
M  V30 35 C 3.949066 -3.940457 3.143542 0
M  V30 36 N 4.292172 -5.032103 3.890854 0
M  V30 37 H 5.151829 -7.906699 6.388860 0
M  V30 38 H 5.849822 -6.856360 5.021031 0
M  V30 39 H 4.414198 -7.841130 4.725888 0
M  V30 40 H 2.051911 -2.206210 5.337057 0
M  V30 41 H 2.182368 -1.201057 3.457143 0
M  V30 42 H 1.660140 0.430258 2.725836 0
M  V30 43 H -0.265868 0.619994 0.147473 0
M  V30 44 H -2.041607 0.825017 -0.777968 0
M  V30 45 H -3.543887 1.389793 -3.199926 0
M  V30 46 H -4.630126 1.121458 -0.319281 0
M  V30 47 H -5.509754 1.306865 -1.854320 0
M  V30 48 H -3.383344 3.350574 -1.021901 0
M  V30 49 H -4.500549 3.389808 -2.399411 0
M  V30 50 H -5.081393 4.084759 0.350420 0
M  V30 51 H -5.720447 4.594457 -1.110098 0
M  V30 52 H -2.924068 -0.862846 -0.183064 0
M  V30 53 H -3.107350 -3.243487 -0.244991 0
M  V30 54 H -3.861654 -4.387453 -2.272633 0
M  V30 55 H -4.425361 -3.100915 -4.269873 0
M  V30 56 H -4.243002 -0.633946 -4.246668 0
M  V30 57 H 0.898646 3.843459 -2.288428 0
M  V30 58 H 2.950402 4.103333 -0.989332 0
M  V30 59 H 4.977428 -4.499254 1.370381 0
M  V30 END ATOM
M  V30 BEGIN BOND
M  V30 1 1 1 2
M  V30 2 1 2 3
M  V30 3 2 3 4
M  V30 4 1 4 5
M  V30 5 2 5 6
M  V30 6 1 6 7
M  V30 7 2 7 8
M  V30 8 1 8 9
M  V30 9 2 9 10
M  V30 10 1 9 11
M  V30 11 1 11 12
M  V30 12 2 12 13
M  V30 13 1 13 14
M  V30 14 1 14 15
M  V30 15 2 15 16
M  V30 16 1 15 17
M  V30 17 1 17 18
M  V30 18 1 18 19
M  V30 19 1 19 20
M  V30 20 1 20 21
M  V30 21 1 18 22
M  V30 22 2 22 23
M  V30 23 1 23 24
M  V30 24 2 24 25
M  V30 25 1 25 26
M  V30 26 2 26 27
M  V30 27 2 14 28
M  V30 28 1 28 29
M  V30 29 2 29 30
M  V30 30 1 30 31
M  V30 31 1 8 32
M  V30 32 2 32 33
M  V30 33 1 32 34
M  V30 34 1 34 35
M  V30 35 2 35 36
M  V30 36 1 36 3
M  V30 37 1 35 6
M  V30 38 1 30 12
M  V30 39 1 27 22
M  V30 40 1 1 37
M  V30 41 1 1 38
M  V30 42 1 1 39
M  V30 43 1 5 40
M  V30 44 1 7 41
M  V30 45 1 11 42
M  V30 46 1 13 43
M  V30 47 1 17 44
M  V30 48 1 18 45 CFG=3
M  V30 49 1 19 46
M  V30 50 1 19 47
M  V30 51 1 20 48
M  V30 52 1 20 49
M  V30 53 1 21 50
M  V30 54 1 21 51
M  V30 55 1 23 52
M  V30 56 1 24 53
M  V30 57 1 25 54
M  V30 58 1 26 55
M  V30 59 1 27 56
M  V30 60 1 28 57
M  V30 61 1 29 58
M  V30 62 1 34 59
M  V30 END BOND
M  V30 END CTAB
M  END
>  <Dataset>  (660) 
ChEMBL_Kinases

>  <Ligand_Instance>  (660) 
nan

>  <PDB_ID>  (660) 
nan

>  <Standardized_SMILES>  (660) 
COc1ncc2cc(C(=O)Nc3cc(C(=O)N[C@H](CCN)c4ccccc4)ccc3Cl)c(=O)[nH]c2n1

>  <Name>  (660) 
nan

>  <Pocket>  (660) 
nan

>  <ATP_Site>  (660) 
nan

>  <Peripheral>  (660) 
nan

>  <Num_H_Atoms_ProtBoundConf>  (660) 
nan

>  <Num_Resolved_Atoms>  (660) 
nan

>  <Num_Not_Resolved_Atoms>  (660) 
nan

$$$$
CHEMBL3094461
     RDKit          3D

  0  0  0  0  0  0  0  0  0  0999 V3000
M  V30 BEGIN CTAB
M  V30 COUNTS 59 62 0 0 0
M  V30 BEGIN ATOM
M  V30 1 C 9.593352 -5.297140 5.268497 0
M  V30 2 O 8.511689 -5.554519 4.376024 0
M  V30 3 C 7.700147 -4.552866 3.856583 0
M  V30 4 N 7.826483 -3.228365 4.123183 0
M  V30 5 C 6.991794 -2.310403 3.575852 0
M  V30 6 C 5.977175 -2.683997 2.722896 0
M  V30 7 C 5.106016 -1.785368 2.146537 0
M  V30 8 C 4.088432 -2.216524 1.286783 0
M  V30 9 C 3.299904 -1.100563 0.814190 0
M  V30 10 O 3.449226 0.120370 1.078639 0
M  V30 11 N 2.199682 -1.186617 -0.044561 0
M  V30 12 C 1.207714 -0.462833 -0.726239 0
M  V30 13 C -0.020896 -0.171298 -0.111903 0
M  V30 14 C -0.987991 0.525601 -0.793238 0
M  V30 15 C -2.242340 0.799402 -0.109392 0
M  V30 16 O -2.295292 0.476578 1.128649 0
M  V30 17 N -3.408990 1.391514 -0.703391 0
M  V30 18 C -4.590282 1.601851 0.103420 0 CFG=1
M  V30 19 C -5.234124 2.926799 -0.000764 0
M  V30 20 C -5.716710 3.315013 -1.368257 0
M  V30 21 N -4.630002 3.373579 -2.303473 0
M  V30 22 C -5.549012 0.501967 -0.310128 0
M  V30 23 C -6.252927 -0.185678 0.681420 0
M  V30 24 C -7.152125 -1.221167 0.426142 0
M  V30 25 C -7.315226 -1.539139 -0.887409 0
M  V30 26 C -6.652033 -0.899555 -1.907361 0
M  V30 27 C -5.766523 0.122138 -1.639933 0
M  V30 28 C -0.717001 0.923769 -2.079707 0
M  V30 29 C 0.469124 0.674998 -2.754062 0
M  V30 30 C 1.429263 -0.034277 -2.034023 0
M  V30 31 Cl 2.969777 -0.404743 -2.794215 0
M  V30 32 C 4.031330 -3.575511 1.070174 0
M  V30 33 O 3.106976 -3.904491 0.296282 0
M  V30 34 N 4.887163 -4.437753 1.639231 0
M  V30 35 C 5.869223 -4.037409 2.467330 0
M  V30 36 N 6.712210 -4.929362 3.024811 0
M  V30 37 H 10.454655 -5.990133 5.094917 0
M  V30 38 H 9.276457 -5.398070 6.327267 0
M  V30 39 H 9.928425 -4.252026 5.087628 0
M  V30 40 H 7.133133 -1.266700 3.819013 0
M  V30 41 H 5.303298 -0.758842 2.431567 0
M  V30 42 H 1.872440 -2.137147 -0.405047 0
M  V30 43 H -0.142901 -0.520931 0.897894 0
M  V30 44 H -3.220061 1.595295 -1.699972 0
M  V30 45 H -4.312772 1.401457 1.161213 0
M  V30 46 H -4.603546 3.706568 0.464314 0
M  V30 47 H -6.163420 2.889100 0.642415 0
M  V30 48 H -6.474560 2.577293 -1.713022 0
M  V30 49 H -6.275255 4.283028 -1.337029 0
M  V30 50 H -4.346405 4.365689 -2.515648 0
M  V30 51 H -4.823767 2.915559 -3.228707 0
M  V30 52 H -6.103417 0.089958 1.730284 0
M  V30 53 H -7.649357 -1.692013 1.248213 0
M  V30 54 H -8.008480 -2.350732 -1.148662 0
M  V30 55 H -6.817152 -1.193868 -2.939326 0
M  V30 56 H -5.218690 0.654914 -2.402863 0
M  V30 57 H -1.441885 1.471822 -2.652272 0
M  V30 58 H 0.668585 0.992536 -3.767516 0
M  V30 59 H 4.738335 -5.431696 1.396302 0
M  V30 END ATOM
M  V30 BEGIN BOND
M  V30 1 1 1 2
M  V30 2 1 2 3
M  V30 3 2 3 4
M  V30 4 1 4 5
M  V30 5 2 5 6
M  V30 6 1 6 7
M  V30 7 2 7 8
M  V30 8 1 8 9
M  V30 9 2 9 10
M  V30 10 1 9 11
M  V30 11 1 11 12
M  V30 12 2 12 13
M  V30 13 1 13 14
M  V30 14 1 14 15
M  V30 15 2 15 16
M  V30 16 1 15 17
M  V30 17 1 17 18
M  V30 18 1 18 19
M  V30 19 1 19 20
M  V30 20 1 20 21
M  V30 21 1 18 22
M  V30 22 2 22 23
M  V30 23 1 23 24
M  V30 24 2 24 25
M  V30 25 1 25 26
M  V30 26 2 26 27
M  V30 27 2 14 28
M  V30 28 1 28 29
M  V30 29 2 29 30
M  V30 30 1 30 31
M  V30 31 1 8 32
M  V30 32 2 32 33
M  V30 33 1 32 34
M  V30 34 1 34 35
M  V30 35 2 35 36
M  V30 36 1 36 3
M  V30 37 1 35 6
M  V30 38 1 30 12
M  V30 39 1 27 22
M  V30 40 1 1 37
M  V30 41 1 1 38
M  V30 42 1 1 39
M  V30 43 1 5 40
M  V30 44 1 7 41
M  V30 45 1 11 42
M  V30 46 1 13 43
M  V30 47 1 17 44
M  V30 48 1 18 45 CFG=1
M  V30 49 1 19 46
M  V30 50 1 19 47
M  V30 51 1 20 48
M  V30 52 1 20 49
M  V30 53 1 21 50
M  V30 54 1 21 51
M  V30 55 1 23 52
M  V30 56 1 24 53
M  V30 57 1 25 54
M  V30 58 1 26 55
M  V30 59 1 27 56
M  V30 60 1 28 57
M  V30 61 1 29 58
M  V30 62 1 34 59
M  V30 END BOND
M  V30 END CTAB
M  END
>  <Dataset>  (661) 
ChEMBL_Kinases

>  <Ligand_Instance>  (661) 
nan

>  <PDB_ID>  (661) 
nan

>  <Standardized_SMILES>  (661) 
COc1ncc2cc(C(=O)Nc3cc(C(=O)N[C@@H](CCN)c4ccccc4)ccc3Cl)c(=O)[nH]c2n1

>  <Name>  (661) 
nan

>  <Pocket>  (661) 
nan

>  <ATP_Site>  (661) 
nan

>  <Peripheral>  (661) 
nan

>  <Num_H_Atoms_ProtBoundConf>  (661) 
nan

>  <Num_Resolved_Atoms>  (661) 
nan

>  <Num_Not_Resolved_Atoms>  (661) 
nan

$$$$
CHEMBL3680591
     RDKit          3D

  0  0  0  0  0  0  0  0  0  0999 V3000
M  V30 BEGIN CTAB
M  V30 COUNTS 52 55 0 0 0
M  V30 BEGIN ATOM
M  V30 1 C -1.123765 -0.053048 4.397072 0
M  V30 2 C -1.754586 0.656398 3.234266 0 CFG=1
M  V30 3 N -0.806549 1.398019 2.442790 0
M  V30 4 C 0.440685 0.793239 2.072674 0
M  V30 5 N 0.803714 -0.441341 2.462025 0
M  V30 6 C 1.973313 -1.024483 2.151761 0
M  V30 7 N 2.896463 -0.392825 1.403480 0
M  V30 8 C 2.610066 0.838460 0.977578 0
M  V30 9 C 3.549394 1.493405 0.210349 0
M  V30 10 C 4.831720 0.836756 -0.117466 0
M  V30 11 N 5.083365 -0.459724 0.375428 0
M  V30 12 O 5.690325 1.411712 -0.820876 0
M  V30 13 C 3.314964 2.783475 -0.268961 0
M  V30 14 C 2.101236 3.363497 0.064492 0
M  V30 15 C 1.188311 2.674915 0.834247 0
M  V30 16 C 1.403789 1.418909 1.307132 0
M  V30 17 C -2.640986 -0.257136 2.504036 0
M  V30 18 C -3.955735 -0.310348 2.996778 0
M  V30 19 C -4.948903 -1.087289 2.460202 0
M  V30 20 C -4.617141 -1.855394 1.371802 0
M  V30 21 C -3.356248 -1.868335 0.819936 0
M  V30 22 N -3.091521 -2.690027 -0.304707 0
M  V30 23 C -1.907534 -2.843286 -1.073791 0
M  V30 24 C -1.869096 -3.732674 -2.155589 0
M  V30 25 C -0.721598 -3.873785 -2.896101 0
M  V30 26 C 0.422476 -3.170577 -2.626132 0
M  V30 27 C 1.653679 -3.337721 -3.438737 0
M  V30 28 F 2.142407 -4.634553 -3.275084 0
M  V30 29 F 2.591259 -2.413400 -3.046204 0
M  V30 30 F 1.408614 -3.100753 -4.774007 0
M  V30 31 C 0.356644 -2.310710 -1.565578 0
M  V30 32 N -0.769913 -2.185134 -0.854029 0
M  V30 33 C -2.420016 -1.060977 1.418115 0
M  V30 34 H -1.919615 -0.198463 5.170127 0
M  V30 35 H -0.316542 0.538105 4.874365 0
M  V30 36 H -0.790366 -1.075340 4.111334 0
M  V30 37 H -2.376884 1.478951 3.737867 0
M  V30 38 H -1.036642 2.366751 2.143838 0
M  V30 39 H 2.169187 -2.030425 2.517671 0
M  V30 40 H 5.444105 -1.172201 1.035050 0
M  V30 41 H 4.608126 -0.958696 -0.435718 0
M  V30 42 H 4.103217 3.197164 -0.849672 0
M  V30 43 H 1.947852 4.357209 -0.317852 0
M  V30 44 H 0.299224 3.224990 1.020070 0
M  V30 45 H -4.271559 0.287334 3.867881 0
M  V30 46 H -5.945887 -1.107401 2.858807 0
M  V30 47 H -5.425745 -2.473244 0.953002 0
M  V30 48 H -3.898592 -3.287871 -0.629765 0
M  V30 49 H -2.733619 -4.304454 -2.407750 0
M  V30 50 H -0.736384 -4.572055 -3.723212 0
M  V30 51 H 1.196547 -1.713234 -1.269241 0
M  V30 52 H -1.430915 -1.018928 1.039985 0
M  V30 END ATOM
M  V30 BEGIN BOND
M  V30 1 1 1 2
M  V30 2 1 2 3
M  V30 3 1 3 4
M  V30 4 2 4 5
M  V30 5 1 5 6
M  V30 6 2 6 7
M  V30 7 1 7 8
M  V30 8 2 8 9
M  V30 9 1 9 10
M  V30 10 1 10 11
M  V30 11 2 10 12
M  V30 12 1 9 13
M  V30 13 2 13 14
M  V30 14 1 14 15
M  V30 15 2 15 16
M  V30 16 1 2 17
M  V30 17 2 17 18
M  V30 18 1 18 19
M  V30 19 2 19 20
M  V30 20 1 20 21
M  V30 21 1 21 22
M  V30 22 1 22 23
M  V30 23 2 23 24
M  V30 24 1 24 25
M  V30 25 2 25 26
M  V30 26 1 26 27
M  V30 27 1 27 28
M  V30 28 1 27 29
M  V30 29 1 27 30
M  V30 30 1 26 31
M  V30 31 2 31 32
M  V30 32 2 21 33
M  V30 33 1 16 4
M  V30 34 1 33 17
M  V30 35 1 16 8
M  V30 36 1 32 23
M  V30 37 1 1 34
M  V30 38 1 1 35
M  V30 39 1 1 36
M  V30 40 1 2 37 CFG=1
M  V30 41 1 3 38
M  V30 42 1 6 39
M  V30 43 1 11 40
M  V30 44 1 11 41
M  V30 45 1 13 42
M  V30 46 1 14 43
M  V30 47 1 15 44
M  V30 48 1 18 45
M  V30 49 1 19 46
M  V30 50 1 20 47
M  V30 51 1 22 48
M  V30 52 1 24 49
M  V30 53 1 25 50
M  V30 54 1 31 51
M  V30 55 1 33 52
M  V30 END BOND
M  V30 END CTAB
M  END
>  <Dataset>  (662) 
ChEMBL_Kinases

>  <Ligand_Instance>  (662) 
nan

>  <PDB_ID>  (662) 
nan

>  <Standardized_SMILES>  (662) 
C[C@@H](Nc1ncnc2c(C(N)=O)cccc12)c1cccc(Nc2ccc(C(F)(F)F)cn2)c1

>  <Name>  (662) 
nan

>  <Pocket>  (662) 
nan

>  <ATP_Site>  (662) 
nan

>  <Peripheral>  (662) 
nan

>  <Num_H_Atoms_ProtBoundConf>  (662) 
nan

>  <Num_Resolved_Atoms>  (662) 
nan

>  <Num_Not_Resolved_Atoms>  (662) 
nan

$$$$
CHEMBL3680590
     RDKit          3D

  0  0  0  0  0  0  0  0  0  0999 V3000
M  V30 BEGIN CTAB
M  V30 COUNTS 62 66 0 0 0
M  V30 BEGIN ATOM
M  V30 1 N 3.377908 5.781809 5.969888 0
M  V30 2 C 4.419881 5.215312 5.195196 0
M  V30 3 O 5.564094 5.274698 5.709857 0
M  V30 4 C 4.233141 4.598475 3.895037 0
M  V30 5 C 5.328733 4.085542 3.250223 0
M  V30 6 C 5.134807 3.502446 2.015447 0
M  V30 7 C 3.860485 3.459577 1.484985 0
M  V30 8 C 2.748836 3.960772 2.100651 0
M  V30 9 C 1.494760 3.902607 1.546216 0
M  V30 10 N 1.275135 3.309907 0.275980 0
M  V30 11 C 0.009967 3.180480 -0.421991 0
M  V30 12 C -0.879274 2.338957 0.419027 0
M  V30 13 C -1.832891 2.706691 1.344248 0
M  V30 14 C -2.547320 1.753055 2.036452 0
M  V30 15 C -2.365762 0.397997 1.858761 0
M  V30 16 C -1.414324 0.013831 0.935172 0
M  V30 17 N -1.215625 -1.380313 0.741056 0
M  V30 18 C -1.861341 -2.237699 -0.176605 0
M  V30 19 O -2.734531 -1.715968 -0.935896 0
M  V30 20 C -1.544997 -3.658367 -0.254288 0
M  V30 21 C -0.615145 -4.280909 0.551757 0
M  V30 22 C -0.301062 -5.622702 0.493898 0
M  V30 23 C -0.992058 -6.353382 -0.453169 0
M  V30 24 C -1.935074 -5.799019 -1.293047 0
M  V30 25 N -2.661918 -6.529502 -2.275544 0
M  V30 26 C -3.604245 -5.888344 -3.190587 0
M  V30 27 C -3.776856 -6.857785 -4.366055 0
M  V30 28 O -2.560171 -7.360014 -4.811977 0
M  V30 29 C -1.938060 -8.156292 -3.866834 0
M  V30 30 C -2.563770 -7.960001 -2.483487 0
M  V30 31 C -2.196080 -4.449401 -1.176568 0
M  V30 32 C -0.710212 0.964615 0.253185 0
M  V30 33 N 0.559314 4.448848 2.312761 0
M  V30 34 C 0.707634 5.016394 3.500859 0
M  V30 35 N 1.951475 5.057320 4.017467 0
M  V30 36 C 2.980647 4.532636 3.326371 0
M  V30 37 H 3.145217 4.926694 6.547593 0
M  V30 38 H 2.857828 6.698992 6.095221 0
M  V30 39 H 6.306415 4.144023 3.708578 0
M  V30 40 H 6.010322 3.102619 1.522200 0
M  V30 41 H 3.818521 2.988931 0.528318 0
M  V30 42 H 2.054537 2.913948 -0.252106 0
M  V30 43 H -0.504217 4.172384 -0.503307 0
M  V30 44 H 0.134005 2.698317 -1.394426 0
M  V30 45 H -1.957238 3.770445 1.451911 0
M  V30 46 H -3.279287 2.113815 2.747024 0
M  V30 47 H -2.932169 -0.330984 2.407406 0
M  V30 48 H -0.484128 -1.714838 1.405534 0
M  V30 49 H -0.078043 -3.702108 1.290960 0
M  V30 50 H 0.428725 -6.081091 1.135574 0
M  V30 51 H -0.776203 -7.409403 -0.532473 0
M  V30 52 H -3.201041 -4.915112 -3.577072 0
M  V30 53 H -4.562795 -5.802013 -2.681277 0
M  V30 54 H -4.548978 -7.600098 -4.173085 0
M  V30 55 H -4.152424 -6.222863 -5.217337 0
M  V30 56 H -1.929491 -9.212729 -4.167003 0
M  V30 57 H -0.890448 -7.798202 -3.775196 0
M  V30 58 H -3.625039 -8.347529 -2.517554 0
M  V30 59 H -2.016538 -8.499366 -1.712536 0
M  V30 60 H -2.918363 -3.971595 -1.802613 0
M  V30 61 H 0.018200 0.556214 -0.454560 0
M  V30 62 H -0.114654 5.447038 4.075488 0
M  V30 END ATOM
M  V30 BEGIN BOND
M  V30 1 1 1 2
M  V30 2 2 2 3
M  V30 3 1 2 4
M  V30 4 2 4 5
M  V30 5 1 5 6
M  V30 6 2 6 7
M  V30 7 1 7 8
M  V30 8 2 8 9
M  V30 9 1 9 10
M  V30 10 1 10 11
M  V30 11 1 11 12
M  V30 12 2 12 13
M  V30 13 1 13 14
M  V30 14 2 14 15
M  V30 15 1 15 16
M  V30 16 1 16 17
M  V30 17 1 17 18
M  V30 18 2 18 19
M  V30 19 1 18 20
M  V30 20 2 20 21
M  V30 21 1 21 22
M  V30 22 2 22 23
M  V30 23 1 23 24
M  V30 24 1 24 25
M  V30 25 1 25 26
M  V30 26 1 26 27
M  V30 27 1 27 28
M  V30 28 1 28 29
M  V30 29 1 29 30
M  V30 30 2 24 31
M  V30 31 2 16 32
M  V30 32 1 9 33
M  V30 33 2 33 34
M  V30 34 1 34 35
M  V30 35 2 35 36
M  V30 36 1 36 4
M  V30 37 1 36 8
M  V30 38 1 32 12
M  V30 39 1 31 20
M  V30 40 1 30 25
M  V30 41 1 1 37
M  V30 42 1 1 38
M  V30 43 1 5 39
M  V30 44 1 6 40
M  V30 45 1 7 41
M  V30 46 1 10 42
M  V30 47 1 11 43
M  V30 48 1 11 44
M  V30 49 1 13 45
M  V30 50 1 14 46
M  V30 51 1 15 47
M  V30 52 1 17 48
M  V30 53 1 21 49
M  V30 54 1 22 50
M  V30 55 1 23 51
M  V30 56 1 26 52
M  V30 57 1 26 53
M  V30 58 1 27 54
M  V30 59 1 27 55
M  V30 60 1 29 56
M  V30 61 1 29 57
M  V30 62 1 30 58
M  V30 63 1 30 59
M  V30 64 1 31 60
M  V30 65 1 32 61
M  V30 66 1 34 62
M  V30 END BOND
M  V30 END CTAB
M  END
>  <Dataset>  (663) 
ChEMBL_Kinases

>  <Ligand_Instance>  (663) 
nan

>  <PDB_ID>  (663) 
nan

>  <Standardized_SMILES>  (663) 
NC(=O)c1cccc2c(NCc3cccc(NC(=O)c4cccc(N5CCOCC5)c4)c3)ncnc12

>  <Name>  (663) 
nan

>  <Pocket>  (663) 
nan

>  <ATP_Site>  (663) 
nan

>  <Peripheral>  (663) 
nan

>  <Num_H_Atoms_ProtBoundConf>  (663) 
nan

>  <Num_Resolved_Atoms>  (663) 
nan

>  <Num_Not_Resolved_Atoms>  (663) 
nan

$$$$
CHEMBL3701746
     RDKit          3D

  0  0  0  0  0  0  0  0  0  0999 V3000
M  V30 BEGIN CTAB
M  V30 COUNTS 59 64 0 0 0
M  V30 BEGIN ATOM
M  V30 1 C 4.291162 0.743440 2.730687 0
M  V30 2 C 5.576037 1.034866 2.028377 0
M  V30 3 C 5.470117 1.060637 0.523353 0
M  V30 4 O 6.734307 1.342057 -0.000264 0
M  V30 5 C 4.337004 1.903260 -0.042511 0
M  V30 6 C 3.755634 0.693031 -0.653991 0
M  V30 7 N 3.879790 0.765665 -2.118984 0
M  V30 8 C 2.426378 0.230567 -0.273464 0
M  V30 9 C 1.607563 0.840208 0.644898 0
M  V30 10 C 0.356010 0.366993 0.974656 0
M  V30 11 C -0.145724 -0.772010 0.381216 0
M  V30 12 C -1.425034 -1.441382 0.572537 0
M  V30 13 N -1.408376 -2.694157 1.109685 0
M  V30 14 C -2.655416 -3.157897 1.216049 0
M  V30 15 N -3.470871 -2.196674 0.744688 0
M  V30 16 C -2.729838 -1.145439 0.349655 0
M  V30 17 C -3.135198 0.114075 -0.219263 0
M  V30 18 C -3.729233 -0.085277 -1.472018 0
M  V30 19 C -4.206584 0.998752 -2.217969 0
M  V30 20 C -4.103025 2.287530 -1.736629 0
M  V30 21 C -3.517006 2.455034 -0.506808 0
M  V30 22 C -3.039914 1.413518 0.247455 0
M  V30 23 C -4.929705 -2.280736 0.673410 0
M  V30 24 O -5.412156 -3.503392 1.160222 0
M  V30 25 C -4.662512 -4.537742 1.658103 0
M  V30 26 C -5.209736 -5.716163 2.121875 0
M  V30 27 C -4.308080 -6.652367 2.588994 0
M  V30 28 N -2.971248 -6.496728 2.621110 0
M  V30 29 C -2.425105 -5.360772 2.175418 0
M  V30 30 C -3.291557 -4.382831 1.693041 0
M  V30 31 C 0.682282 -1.401745 -0.557414 0
M  V30 32 C 1.953126 -0.911168 -0.884491 0
M  V30 33 C 4.898024 -0.165211 -0.106314 0
M  V30 34 H 4.574487 0.470377 3.789124 0
M  V30 35 H 3.634970 1.625001 2.831066 0
M  V30 36 H 3.780851 -0.138965 2.298276 0
M  V30 37 H 5.956473 2.004296 2.374775 0
M  V30 38 H 6.267364 0.183737 2.264488 0
M  V30 39 H 7.302340 0.530235 0.106817 0
M  V30 40 H 3.776211 2.479521 0.699691 0
M  V30 41 H 4.788698 2.645111 -0.763376 0
M  V30 42 H 3.862826 -0.177524 -2.555817 0
M  V30 43 H 4.834687 1.204540 -2.287829 0
M  V30 44 H 1.937690 1.719757 1.135164 0
M  V30 45 H -0.324957 0.806009 1.688237 0
M  V30 46 H -3.883779 -1.030095 -1.985642 0
M  V30 47 H -4.671535 0.891373 -3.188601 0
M  V30 48 H -4.466588 3.145379 -2.297757 0
M  V30 49 H -3.386749 3.423021 -0.038156 0
M  V30 50 H -2.574038 1.449916 1.208448 0
M  V30 51 H -5.327467 -2.131899 -0.335796 0
M  V30 52 H -5.293368 -1.478537 1.380193 0
M  V30 53 H -6.261047 -5.858366 2.105084 0
M  V30 54 H -4.740850 -7.585197 2.956046 0
M  V30 55 H -1.354582 -5.201418 2.186208 0
M  V30 56 H 0.386821 -2.309468 -1.087923 0
M  V30 57 H 2.558104 -1.432278 -1.616701 0
M  V30 58 H 5.519995 -0.647058 -0.886633 0
M  V30 59 H 4.581200 -0.950344 0.604852 0
M  V30 END ATOM
M  V30 BEGIN BOND
M  V30 1 1 1 2
M  V30 2 1 2 3
M  V30 3 1 3 4
M  V30 4 1 3 5
M  V30 5 1 5 6
M  V30 6 1 6 7
M  V30 7 1 6 8
M  V30 8 2 8 9
M  V30 9 1 9 10
M  V30 10 2 10 11
M  V30 11 1 11 12
M  V30 12 1 12 13
M  V30 13 2 13 14
M  V30 14 1 14 15
M  V30 15 1 15 16
M  V30 16 1 16 17
M  V30 17 2 17 18
M  V30 18 1 18 19
M  V30 19 2 19 20
M  V30 20 1 20 21
M  V30 21 2 21 22
M  V30 22 1 15 23
M  V30 23 1 23 24
M  V30 24 1 24 25
M  V30 25 2 25 26
M  V30 26 1 26 27
M  V30 27 2 27 28
M  V30 28 1 28 29
M  V30 29 2 29 30
M  V30 30 1 11 31
M  V30 31 2 31 32
M  V30 32 1 6 33
M  V30 33 1 33 3
M  V30 34 1 32 8
M  V30 35 2 16 12
M  V30 36 1 22 17
M  V30 37 1 30 25
M  V30 38 1 30 14
M  V30 39 1 1 34
M  V30 40 1 1 35
M  V30 41 1 1 36
M  V30 42 1 2 37
M  V30 43 1 2 38
M  V30 44 1 4 39
M  V30 45 1 5 40
M  V30 46 1 5 41
M  V30 47 1 7 42
M  V30 48 1 7 43
M  V30 49 1 9 44
M  V30 50 1 10 45
M  V30 51 1 18 46
M  V30 52 1 19 47
M  V30 53 1 20 48
M  V30 54 1 21 49
M  V30 55 1 22 50
M  V30 56 1 23 51
M  V30 57 1 23 52
M  V30 58 1 26 53
M  V30 59 1 27 54
M  V30 60 1 29 55
M  V30 61 1 31 56
M  V30 62 1 32 57
M  V30 63 1 33 58
M  V30 64 1 33 59
M  V30 END BOND
M  V30 END CTAB
M  END
>  <Dataset>  (664) 
ChEMBL_Kinases

>  <Ligand_Instance>  (664) 
nan

>  <PDB_ID>  (664) 
nan

>  <Standardized_SMILES>  (664) 
CCC1(O)CC(N)(c2ccc(-c3nc4n(c3-c3ccccc3)COc3ccncc3-4)cc2)C1

>  <Name>  (664) 
nan

>  <Pocket>  (664) 
nan

>  <ATP_Site>  (664) 
nan

>  <Peripheral>  (664) 
nan

>  <Num_H_Atoms_ProtBoundConf>  (664) 
nan

>  <Num_Resolved_Atoms>  (664) 
nan

>  <Num_Not_Resolved_Atoms>  (664) 
nan

$$$$
CHEMBL3094462
     RDKit          3D

  0  0  0  0  0  0  0  0  0  0999 V3000
M  V30 BEGIN CTAB
M  V30 COUNTS 59 62 0 0 0
M  V30 BEGIN ATOM
M  V30 1 C 5.020798 -6.494795 3.813439 0
M  V30 2 O 5.819595 -5.628161 3.034620 0
M  V30 3 C 5.337041 -4.513209 2.405478 0
M  V30 4 N 3.998299 -4.277658 2.583178 0
M  V30 5 C 3.430602 -3.227568 2.020945 0
M  V30 6 C 4.049293 -2.272392 1.223331 0
M  V30 7 C 3.578290 -1.102664 0.545902 0
M  V30 8 C 4.439718 -0.172563 -0.305898 0
M  V30 9 C 3.225741 0.566168 -0.501532 0
M  V30 10 O 3.981963 1.308625 -1.206526 0
M  V30 11 N 2.002970 0.999083 -0.482330 0
M  V30 12 C 1.092197 1.932755 -0.872841 0
M  V30 13 C -0.205767 1.733114 -0.474569 0
M  V30 14 C -1.232775 2.597121 -0.720056 0
M  V30 15 C -2.560109 2.211935 -0.228370 0
M  V30 16 O -3.362490 3.137636 0.048389 0
M  V30 17 N -2.886485 0.823884 -0.084548 0
M  V30 18 C -4.075312 0.163719 0.386145 0
M  V30 19 C -4.792221 -0.373978 -0.881019 0
M  V30 20 C -5.147492 0.793159 -1.788850 0
M  V30 21 N -6.006871 1.673695 -1.068232 0
M  V30 22 C -3.692982 -1.043200 1.153825 0
M  V30 23 C -2.853011 -1.911905 0.437888 0
M  V30 24 C -2.376264 -3.099743 0.956255 0
M  V30 25 C -2.734133 -3.472966 2.250437 0
M  V30 26 C -3.564885 -2.613979 2.959122 0
M  V30 27 Cl -4.107919 -2.928147 4.591958 0
M  V30 28 C -4.038121 -1.420879 2.423652 0
M  V30 29 C -0.909860 3.728816 -1.413897 0
M  V30 30 C 0.354274 4.030651 -1.861544 0
M  V30 31 C 1.307461 3.095416 -1.561283 0
M  V30 32 Cl 2.892138 3.515604 -2.145574 0
M  V30 33 C 5.432910 -0.795366 -0.133253 0
M  V30 34 O 6.092997 0.072293 -0.891505 0
M  V30 35 N 6.158194 -1.763495 0.342153 0
M  V30 36 C 5.422988 -2.581450 1.085081 0
M  V30 37 N 6.030619 -3.651221 1.652462 0
M  V30 38 H 4.097141 -5.968672 4.185274 0
M  V30 39 H 5.646251 -6.888156 4.632070 0
M  V30 40 H 4.716561 -7.351115 3.184790 0
M  V30 41 H 2.372250 -2.986187 2.125989 0
M  V30 42 H 2.499211 -1.225579 0.900496 0
M  V30 43 H 1.661408 0.204753 0.131973 0
M  V30 44 H -0.454792 0.823496 0.097191 0
M  V30 45 H -2.164100 0.136646 -0.382486 0
M  V30 46 H -4.790648 0.824789 0.920799 0
M  V30 47 H -5.691092 -0.925605 -0.613164 0
M  V30 48 H -4.123412 -1.034204 -1.458695 0
M  V30 49 H -5.697733 0.395754 -2.661129 0
M  V30 50 H -4.241354 1.311312 -2.177838 0
M  V30 51 H -6.655898 1.231943 -0.416445 0
M  V30 52 H -6.261365 2.563695 -1.496578 0
M  V30 53 H -2.459663 -1.820624 -0.588662 0
M  V30 54 H -1.737288 -3.818569 0.480110 0
M  V30 55 H -2.456992 -4.359754 2.816578 0
M  V30 56 H -4.681828 -0.716388 2.930585 0
M  V30 57 H -1.718125 4.414984 -1.613221 0
M  V30 58 H 0.522728 4.958681 -2.410155 0
M  V30 59 H 7.166220 -1.824474 0.129636 0
M  V30 END ATOM
M  V30 BEGIN BOND
M  V30 1 1 1 2
M  V30 2 1 2 3
M  V30 3 2 3 4
M  V30 4 1 4 5
M  V30 5 2 5 6
M  V30 6 1 6 7
M  V30 7 2 7 8
M  V30 8 1 8 9
M  V30 9 2 9 10
M  V30 10 1 9 11
M  V30 11 1 11 12
M  V30 12 2 12 13
M  V30 13 1 13 14
M  V30 14 1 14 15
M  V30 15 2 15 16
M  V30 16 1 15 17
M  V30 17 1 17 18
M  V30 18 1 18 19
M  V30 19 1 19 20
M  V30 20 1 20 21
M  V30 21 1 18 22
M  V30 22 2 22 23
M  V30 23 1 23 24
M  V30 24 2 24 25
M  V30 25 1 25 26
M  V30 26 1 26 27
M  V30 27 2 26 28
M  V30 28 2 14 29
M  V30 29 1 29 30
M  V30 30 2 30 31
M  V30 31 1 31 32
M  V30 32 1 8 33
M  V30 33 2 33 34
M  V30 34 1 33 35
M  V30 35 1 35 36
M  V30 36 2 36 37
M  V30 37 1 37 3
M  V30 38 1 36 6
M  V30 39 1 31 12
M  V30 40 1 28 22
M  V30 41 1 1 38
M  V30 42 1 1 39
M  V30 43 1 1 40
M  V30 44 1 5 41
M  V30 45 1 7 42
M  V30 46 1 11 43
M  V30 47 1 13 44
M  V30 48 1 17 45
M  V30 49 1 18 46
M  V30 50 1 19 47
M  V30 51 1 19 48
M  V30 52 1 20 49
M  V30 53 1 20 50
M  V30 54 1 21 51
M  V30 55 1 21 52
M  V30 56 1 23 53
M  V30 57 1 24 54
M  V30 58 1 25 55
M  V30 59 1 28 56
M  V30 60 1 29 57
M  V30 61 1 30 58
M  V30 62 1 35 59
M  V30 END BOND
M  V30 END CTAB
M  END
>  <Dataset>  (665) 
ChEMBL_Kinases

>  <Ligand_Instance>  (665) 
nan

>  <PDB_ID>  (665) 
nan

>  <Standardized_SMILES>  (665) 
COc1ncc2cc(C(=O)Nc3cc(C(=O)NC(CCN)c4cccc(Cl)c4)ccc3Cl)c(=O)[nH]c2n1

>  <Name>  (665) 
nan

>  <Pocket>  (665) 
nan

>  <ATP_Site>  (665) 
nan

>  <Peripheral>  (665) 
nan

>  <Num_H_Atoms_ProtBoundConf>  (665) 
nan

>  <Num_Resolved_Atoms>  (665) 
nan

>  <Num_Not_Resolved_Atoms>  (665) 
nan

$$$$
CHEMBL3094463
     RDKit          3D

  0  0  0  0  0  0  0  0  0  0999 V3000
M  V30 BEGIN CTAB
M  V30 COUNTS 63 67 0 0 0
M  V30 BEGIN ATOM
M  V30 1 C 5.249823 -0.862344 6.245685 0
M  V30 2 O 4.021410 -0.120988 6.170476 0
M  V30 3 C 3.603012 0.305210 4.884550 0
M  V30 4 N 2.430599 0.954467 5.027320 0
M  V30 5 C 1.856450 1.435138 3.877074 0
M  V30 6 C 2.587561 1.170856 2.709069 0
M  V30 7 C 2.068256 1.497248 1.395627 0
M  V30 8 C 2.603463 1.229567 -0.038852 0
M  V30 9 C 1.453766 1.875768 -0.505404 0
M  V30 10 O 1.662346 1.453508 -1.700842 0
M  V30 11 N 0.293337 2.609151 -0.639761 0
M  V30 12 C -0.239125 2.460780 -1.995883 0
M  V30 13 C -1.109745 1.361653 -1.572738 0
M  V30 14 C -1.874235 0.767065 -2.658727 0
M  V30 15 C -2.727323 -0.446784 -2.276662 0
M  V30 16 O -3.804298 -0.926573 -2.482142 0
M  V30 17 N -1.917458 -1.269511 -1.354346 0
M  V30 18 C -2.273047 -2.512742 -0.621179 0
M  V30 19 C -3.078148 -2.079101 0.577875 0
M  V30 20 C -3.205477 -3.006047 1.696368 0
M  V30 21 C -3.860074 -2.728295 2.910910 0
M  V30 22 C -4.351889 -1.391585 2.793684 0
M  V30 23 C -4.295160 -0.510174 1.862644 0
M  V30 24 Cl -5.051032 1.064137 2.092233 0
M  V30 25 C -3.637881 -0.839926 0.690003 0
M  V30 26 C -2.898627 -3.526884 -1.471983 0
M  V30 27 C -1.917936 -3.891703 -2.568966 0
M  V30 28 N -0.889775 -4.701669 -1.863573 0
M  V30 29 C -0.127440 -3.708690 -1.123483 0
M  V30 30 C -0.948478 -3.042992 -0.066407 0
M  V30 31 C -1.854829 1.133786 -3.988120 0
M  V30 32 C -0.982190 2.157664 -4.099246 0
M  V30 33 C -0.191845 2.846329 -3.275374 0
M  V30 34 Cl 0.940510 4.136222 -3.351002 0
M  V30 35 C 3.639309 0.648054 0.385897 0
M  V30 36 O 4.049247 0.458327 -0.851376 0
M  V30 37 N 4.307445 0.254297 1.426913 0
M  V30 38 C 3.779852 0.511318 2.588524 0
M  V30 39 N 4.395341 0.007081 3.787103 0
M  V30 40 H 5.869719 -0.480093 7.030538 0
M  V30 41 H 5.738533 -0.975357 5.250162 0
M  V30 42 H 4.890273 -1.924491 6.526170 0
M  V30 43 H 0.934843 1.955956 3.851723 0
M  V30 44 H 1.092135 2.028189 1.689714 0
M  V30 45 H 0.166081 3.020657 0.290833 0
M  V30 46 H -1.366887 0.879732 -0.612820 0
M  V30 47 H -0.900330 -0.987482 -1.152025 0
M  V30 48 H -2.752587 -3.993313 1.495762 0
M  V30 49 H -3.879460 -3.446829 3.683650 0
M  V30 50 H -4.865503 -1.152922 3.744582 0
M  V30 51 H -3.614311 -0.082965 -0.055033 0
M  V30 52 H -3.043464 -4.451866 -0.846623 0
M  V30 53 H -3.869681 -3.249838 -1.915196 0
M  V30 54 H -2.356623 -4.486257 -3.367700 0
M  V30 55 H -1.437030 -2.963749 -2.979803 0
M  V30 56 H -1.375750 -5.407544 -1.288459 0
M  V30 57 H 0.721621 -4.250423 -0.634796 0
M  V30 58 H 0.203595 -2.943929 -1.851823 0
M  V30 59 H -0.339727 -2.121235 0.229321 0
M  V30 60 H -1.053275 -3.618179 0.850427 0
M  V30 61 H -2.459180 0.617747 -4.669110 0
M  V30 62 H -0.858201 2.562500 -5.135027 0
M  V30 63 H 5.194033 -0.232494 1.269940 0
M  V30 END ATOM
M  V30 BEGIN BOND
M  V30 1 1 1 2
M  V30 2 1 2 3
M  V30 3 2 3 4
M  V30 4 1 4 5
M  V30 5 2 5 6
M  V30 6 1 6 7
M  V30 7 2 7 8
M  V30 8 1 8 9
M  V30 9 2 9 10
M  V30 10 1 9 11
M  V30 11 1 11 12
M  V30 12 2 12 13
M  V30 13 1 13 14
M  V30 14 1 14 15
M  V30 15 2 15 16
M  V30 16 1 15 17
M  V30 17 1 17 18
M  V30 18 1 18 19
M  V30 19 2 19 20
M  V30 20 1 20 21
M  V30 21 2 21 22
M  V30 22 1 22 23
M  V30 23 1 23 24
M  V30 24 2 23 25
M  V30 25 1 18 26
M  V30 26 1 26 27
M  V30 27 1 27 28
M  V30 28 1 28 29
M  V30 29 1 29 30
M  V30 30 2 14 31
M  V30 31 1 31 32
M  V30 32 2 32 33
M  V30 33 1 33 34
M  V30 34 1 8 35
M  V30 35 2 35 36
M  V30 36 1 35 37
M  V30 37 1 37 38
M  V30 38 2 38 39
M  V30 39 1 39 3
M  V30 40 1 38 6
M  V30 41 1 33 12
M  V30 42 1 30 18
M  V30 43 1 25 19
M  V30 44 1 1 40
M  V30 45 1 1 41
M  V30 46 1 1 42
M  V30 47 1 5 43
M  V30 48 1 7 44
M  V30 49 1 11 45
M  V30 50 1 13 46
M  V30 51 1 17 47
M  V30 52 1 20 48
M  V30 53 1 21 49
M  V30 54 1 22 50
M  V30 55 1 25 51
M  V30 56 1 26 52
M  V30 57 1 26 53
M  V30 58 1 27 54
M  V30 59 1 27 55
M  V30 60 1 28 56
M  V30 61 1 29 57
M  V30 62 1 29 58
M  V30 63 1 30 59
M  V30 64 1 30 60
M  V30 65 1 31 61
M  V30 66 1 32 62
M  V30 67 1 37 63
M  V30 END BOND
M  V30 END CTAB
M  END
>  <Dataset>  (666) 
ChEMBL_Kinases

>  <Ligand_Instance>  (666) 
nan

>  <PDB_ID>  (666) 
nan

>  <Standardized_SMILES>  (666) 
COc1ncc2cc(C(=O)Nc3cc(C(=O)NC4(c5cccc(Cl)c5)CCNCC4)ccc3Cl)c(=O)[nH]c2n1

>  <Name>  (666) 
nan

>  <Pocket>  (666) 
nan

>  <ATP_Site>  (666) 
nan

>  <Peripheral>  (666) 
nan

>  <Num_H_Atoms_ProtBoundConf>  (666) 
nan

>  <Num_Resolved_Atoms>  (666) 
nan

>  <Num_Not_Resolved_Atoms>  (666) 
nan

$$$$
CHEMBL3094458
     RDKit          3D

  0  0  0  0  0  0  0  0  0  0999 V3000
M  V30 BEGIN CTAB
M  V30 COUNTS 49 51 0 0 0
M  V30 BEGIN ATOM
M  V30 1 C 0.143994 -9.999645 0.385221 0
M  V30 2 O -0.813995 -9.265891 1.134299 0
M  V30 3 C -0.901136 -7.870940 1.032286 0
M  V30 4 N -1.772532 -7.069009 1.695783 0
M  V30 5 C -1.774399 -5.735187 1.526479 0
M  V30 6 C -0.886708 -5.123211 0.667820 0
M  V30 7 C -0.858259 -3.760007 0.471444 0
M  V30 8 C 0.063908 -3.216763 -0.405009 0
M  V30 9 C 0.023135 -1.767887 -0.549788 0
M  V30 10 O -0.821001 -1.057115 0.099722 0
M  V30 11 N 0.812291 -0.901217 -1.347708 0
M  V30 12 C 0.428579 0.458034 -1.184269 0
M  V30 13 C 0.942586 1.316746 -0.225690 0
M  V30 14 C 0.497647 2.616625 -0.172105 0
M  V30 15 C 1.047177 3.502392 0.851221 0
M  V30 16 O 1.864605 2.971547 1.673453 0
M  V30 17 N 0.710352 4.874484 0.948579 0
M  V30 18 C 1.239402 5.753821 1.948609 0
M  V30 19 C 0.882919 5.300488 3.356697 0
M  V30 20 C -0.620426 5.255148 3.545039 0
M  V30 21 N -1.032305 4.836884 4.849075 0
M  V30 22 C -0.453063 3.021962 -1.083764 0
M  V30 23 C -0.982393 2.176139 -2.054198 0
M  V30 24 C -0.522672 0.860612 -2.097274 0
M  V30 25 Cl -1.215706 -0.171161 -3.333990 0
M  V30 26 C 0.898810 -4.112378 -1.024800 0
M  V30 27 O 1.738532 -3.627278 -1.820244 0
M  V30 28 N 0.913175 -5.443164 -0.870456 0
M  V30 29 C 0.000631 -5.927043 -0.009468 0
M  V30 30 N -0.045253 -7.252489 0.200383 0
M  V30 31 H 0.785160 -10.647960 1.001064 0
M  V30 32 H -0.434950 -10.634155 -0.314929 0
M  V30 33 H 0.734326 -9.299014 -0.278260 0
M  V30 34 H -2.492474 -5.138348 2.082824 0
M  V30 35 H -1.566147 -3.127438 1.011652 0
M  V30 36 H 1.542685 -1.370681 -1.928677 0
M  V30 37 H 1.676849 0.916043 0.439797 0
M  V30 38 H 0.034038 5.301315 0.261511 0
M  V30 39 H 0.937241 6.808067 1.805448 0
M  V30 40 H 2.354703 5.750820 1.894560 0
M  V30 41 H 1.297618 5.994294 4.086584 0
M  V30 42 H 1.252381 4.282663 3.503034 0
M  V30 43 H -1.085484 6.241758 3.331616 0
M  V30 44 H -1.094626 4.549373 2.814414 0
M  V30 45 H -1.431126 3.890871 4.918590 0
M  V30 46 H -0.457448 5.162093 5.634889 0
M  V30 47 H -0.827111 4.033380 -1.072803 0
M  V30 48 H -1.738164 2.556040 -2.754437 0
M  V30 49 H 1.597532 -6.021069 -1.398624 0
M  V30 END ATOM
M  V30 BEGIN BOND
M  V30 1 1 1 2
M  V30 2 1 2 3
M  V30 3 2 3 4
M  V30 4 1 4 5
M  V30 5 2 5 6
M  V30 6 1 6 7
M  V30 7 2 7 8
M  V30 8 1 8 9
M  V30 9 2 9 10
M  V30 10 1 9 11
M  V30 11 1 11 12
M  V30 12 2 12 13
M  V30 13 1 13 14
M  V30 14 1 14 15
M  V30 15 2 15 16
M  V30 16 1 15 17
M  V30 17 1 17 18
M  V30 18 1 18 19
M  V30 19 1 19 20
M  V30 20 1 20 21
M  V30 21 2 14 22
M  V30 22 1 22 23
M  V30 23 2 23 24
M  V30 24 1 24 25
M  V30 25 1 8 26
M  V30 26 2 26 27
M  V30 27 1 26 28
M  V30 28 1 28 29
M  V30 29 2 29 30
M  V30 30 1 30 3
M  V30 31 1 29 6
M  V30 32 1 24 12
M  V30 33 1 1 31
M  V30 34 1 1 32
M  V30 35 1 1 33
M  V30 36 1 5 34
M  V30 37 1 7 35
M  V30 38 1 11 36
M  V30 39 1 13 37
M  V30 40 1 17 38
M  V30 41 1 18 39
M  V30 42 1 18 40
M  V30 43 1 19 41
M  V30 44 1 19 42
M  V30 45 1 20 43
M  V30 46 1 20 44
M  V30 47 1 21 45
M  V30 48 1 21 46
M  V30 49 1 22 47
M  V30 50 1 23 48
M  V30 51 1 28 49
M  V30 END BOND
M  V30 END CTAB
M  END
>  <Dataset>  (667) 
ChEMBL_Kinases

>  <Ligand_Instance>  (667) 
nan

>  <PDB_ID>  (667) 
nan

>  <Standardized_SMILES>  (667) 
COc1ncc2cc(C(=O)Nc3cc(C(=O)NCCCN)ccc3Cl)c(=O)[nH]c2n1

>  <Name>  (667) 
nan

>  <Pocket>  (667) 
nan

>  <ATP_Site>  (667) 
nan

>  <Peripheral>  (667) 
nan

>  <Num_H_Atoms_ProtBoundConf>  (667) 
nan

>  <Num_Resolved_Atoms>  (667) 
nan

>  <Num_Not_Resolved_Atoms>  (667) 
nan

$$$$
CHEMBL4587256
     RDKit          3D

  0  0  0  0  0  0  0  0  0  0999 V3000
M  V30 BEGIN CTAB
M  V30 COUNTS 51 54 0 0 0
M  V30 BEGIN ATOM
M  V30 1 C 0.054952 -4.520580 3.055949 0
M  V30 2 C 0.869725 -3.556424 3.891661 0 CFG=1
M  V30 3 N 1.988430 -4.335191 4.421434 0
M  V30 4 C 3.214567 -3.886357 3.835365 0
M  V30 5 O 4.355965 -4.362879 4.090845 0
M  V30 6 C 2.853246 -2.807137 2.922950 0
M  V30 7 C 3.363860 -1.892280 2.027032 0
M  V30 8 C 2.343227 -1.130437 1.497977 0
M  V30 9 C 2.572755 -0.076822 0.520114 0
M  V30 10 C 3.832222 0.234988 0.051120 0
M  V30 11 C 4.089478 1.224042 -0.873002 0
M  V30 12 C 3.050774 1.966231 -1.380769 0
M  V30 13 C 1.768081 1.701570 -0.950496 0
M  V30 14 C 0.740608 2.459857 -1.474289 0
M  V30 15 O 0.959177 3.355464 -2.308931 0
M  V30 16 N -0.506570 2.193017 -1.047314 0
M  V30 17 C -1.645446 2.938932 -1.542054 0
M  V30 18 C -0.727830 1.221404 -0.144278 0
M  V30 19 N -2.003742 0.861968 0.368784 0
M  V30 20 C -2.953689 -0.102878 -0.114171 0
M  V30 21 C -3.419232 0.199417 -1.520241 0
M  V30 22 C -4.169527 -0.065722 0.766427 0
M  V30 23 C -2.421436 -1.510643 -0.083744 0
M  V30 24 O -1.288528 -1.684097 -0.855429 0
M  V30 25 N 0.300219 0.503960 0.342887 0
M  V30 26 C 1.576112 0.700713 -0.025645 0
M  V30 27 N 1.244559 -1.597431 2.081070 0
M  V30 28 C 1.490470 -2.598542 2.940665 0
M  V30 29 H 0.278451 -5.593338 3.321908 0
M  V30 30 H -1.011273 -4.354868 3.290771 0
M  V30 31 H 0.254298 -4.421591 1.966173 0
M  V30 32 H 0.303789 -3.061181 4.686045 0
M  V30 33 H 1.820056 -5.091206 5.123998 0
M  V30 34 H 4.430060 -1.824718 1.806516 0
M  V30 35 H 4.690813 -0.328664 0.426265 0
M  V30 36 H 5.095248 1.413913 -1.194590 0
M  V30 37 H 3.259307 2.738435 -2.103473 0
M  V30 38 H -2.037858 2.598627 -2.499602 0
M  V30 39 H -2.465547 2.992235 -0.769809 0
M  V30 40 H -1.291786 3.990992 -1.665937 0
M  V30 41 H -2.096941 1.488669 1.216261 0
M  V30 42 H -4.145766 -0.556656 -1.878959 0
M  V30 43 H -2.554260 0.270749 -2.215954 0
M  V30 44 H -3.939867 1.168810 -1.510151 0
M  V30 45 H -3.970301 -0.680645 1.671746 0
M  V30 46 H -5.103006 -0.394308 0.265844 0
M  V30 47 H -4.271737 0.992439 1.139208 0
M  V30 48 H -3.224295 -2.151625 -0.542271 0
M  V30 49 H -2.306147 -1.885962 0.952134 0
M  V30 50 H -1.278426 -2.625174 -1.166196 0
M  V30 51 H 0.280466 -1.245780 1.910818 0
M  V30 END ATOM
M  V30 BEGIN BOND
M  V30 1 1 1 2
M  V30 2 1 2 3
M  V30 3 1 3 4
M  V30 4 2 4 5
M  V30 5 1 4 6
M  V30 6 1 6 7
M  V30 7 2 7 8
M  V30 8 1 8 9
M  V30 9 2 9 10
M  V30 10 1 10 11
M  V30 11 2 11 12
M  V30 12 1 12 13
M  V30 13 1 13 14
M  V30 14 2 14 15
M  V30 15 1 14 16
M  V30 16 1 16 17
M  V30 17 1 16 18
M  V30 18 1 18 19
M  V30 19 1 19 20
M  V30 20 1 20 21
M  V30 21 1 20 22
M  V30 22 1 20 23
M  V30 23 1 23 24
M  V30 24 2 18 25
M  V30 25 1 25 26
M  V30 26 1 8 27
M  V30 27 1 27 28
M  V30 28 1 28 2
M  V30 29 2 28 6
M  V30 30 1 26 9
M  V30 31 2 26 13
M  V30 32 1 1 29
M  V30 33 1 1 30
M  V30 34 1 1 31
M  V30 35 1 2 32 CFG=1
M  V30 36 1 3 33
M  V30 37 1 7 34
M  V30 38 1 10 35
M  V30 39 1 11 36
M  V30 40 1 12 37
M  V30 41 1 17 38
M  V30 42 1 17 39
M  V30 43 1 17 40
M  V30 44 1 19 41
M  V30 45 1 21 42
M  V30 46 1 21 43
M  V30 47 1 21 44
M  V30 48 1 22 45
M  V30 49 1 22 46
M  V30 50 1 22 47
M  V30 51 1 23 48
M  V30 52 1 23 49
M  V30 53 1 24 50
M  V30 54 1 27 51
M  V30 END BOND
M  V30 END CTAB
M  END
>  <Dataset>  (668) 
ChEMBL_Kinases

>  <Ligand_Instance>  (668) 
nan

>  <PDB_ID>  (668) 
nan

>  <Standardized_SMILES>  (668) 
C[C@H]1NC(=O)c2cc(-c3cccc4c(=O)n(C)c(NC(C)(C)CO)nc34)[nH]c21

>  <Name>  (668) 
nan

>  <Pocket>  (668) 
nan

>  <ATP_Site>  (668) 
nan

>  <Peripheral>  (668) 
nan

>  <Num_H_Atoms_ProtBoundConf>  (668) 
nan

>  <Num_Resolved_Atoms>  (668) 
nan

>  <Num_Not_Resolved_Atoms>  (668) 
nan

$$$$
CHEMBL3094439
     RDKit          3D

  0  0  0  0  0  0  0  0  0  0999 V3000
M  V30 BEGIN CTAB
M  V30 COUNTS 62 65 0 0 0
M  V30 BEGIN ATOM
M  V30 1 C -4.310567 -8.080499 8.010337 0
M  V30 2 O -3.497754 -6.942791 7.781909 0
M  V30 3 C -3.548262 -6.240359 6.569156 0
M  V30 4 N -4.318785 -6.504401 5.494046 0
M  V30 5 C -4.196788 -5.674274 4.416135 0
M  V30 6 C -5.034802 -5.950367 3.234450 0
M  V30 7 C -3.317210 -4.613195 4.438728 0
M  V30 8 C -3.183053 -3.767589 3.358482 0
M  V30 9 C -2.308453 -2.694715 3.355303 0
M  V30 10 C -2.303137 -1.910322 2.143496 0
M  V30 11 O -3.017580 -2.157376 1.140382 0
M  V30 12 N -1.496705 -0.771219 1.938150 0
M  V30 13 C -1.199267 0.207627 0.994568 0
M  V30 14 C -0.193424 0.119672 0.052247 0
M  V30 15 C 0.129997 1.073279 -0.891434 0
M  V30 16 C 1.224389 0.822762 -1.810882 0
M  V30 17 O 1.773512 -0.292368 -1.748872 0
M  V30 18 N 1.614737 1.836764 -2.718720 0
M  V30 19 C 2.704300 1.616697 -3.642470 0
M  V30 20 C 2.375985 1.827194 -5.076234 0
M  V30 21 C 1.894630 3.225998 -5.384343 0
M  V30 22 N 1.640605 3.307818 -6.798739 0
M  V30 23 C 3.934685 2.353687 -3.217167 0
M  V30 24 C 4.140350 2.305866 -1.833723 0
M  V30 25 C 5.227981 2.927430 -1.285911 0
M  V30 26 C 6.157095 3.616524 -2.035112 0
M  V30 27 C 5.924571 3.646935 -3.416034 0
M  V30 28 C 4.830546 3.022886 -3.978787 0
M  V30 29 C -0.661302 2.196672 -0.838852 0
M  V30 30 C -1.683348 2.400155 0.043557 0
M  V30 31 C -1.934898 1.400246 0.946402 0
M  V30 32 Cl -3.238832 1.644008 2.086590 0
M  V30 33 C -1.607310 -2.565759 4.510273 0
M  V30 34 O -0.798541 -1.606875 4.561042 0
M  V30 35 N -1.673979 -3.336108 5.600378 0
M  V30 36 C -2.531924 -4.365164 5.567958 0
M  V30 37 N -2.687566 -5.210659 6.606308 0
M  V30 38 H -4.955840 -8.336995 7.149582 0
M  V30 39 H -4.964875 -7.800350 8.883661 0
M  V30 40 H -3.659794 -8.946830 8.247283 0
M  V30 41 H -4.364118 -5.957988 2.358723 0
M  V30 42 H -5.824197 -5.185108 3.066984 0
M  V30 43 H -5.550863 -6.938786 3.341527 0
M  V30 44 H -3.815752 -3.998886 2.495945 0
M  V30 45 H -0.841252 -0.412012 2.652283 0
M  V30 46 H 0.363255 -0.827784 0.122600 0
M  V30 47 H 1.177123 2.780889 -2.798140 0
M  V30 48 H 2.998523 0.536904 -3.516329 0
M  V30 49 H 3.262125 1.571521 -5.669530 0
M  V30 50 H 1.561705 1.131554 -5.364720 0
M  V30 51 H 0.872382 3.338077 -4.900032 0
M  V30 52 H 2.488408 4.028651 -4.955753 0
M  V30 53 H 2.467302 3.252019 -7.404051 0
M  V30 54 H 0.763751 2.909313 -7.133006 0
M  V30 55 H 3.483210 1.797466 -1.130303 0
M  V30 56 H 5.398030 2.895554 -0.196896 0
M  V30 57 H 7.031320 4.116825 -1.593056 0
M  V30 58 H 6.635023 4.175153 -4.010990 0
M  V30 59 H 4.637085 3.030910 -5.037318 0
M  V30 60 H -0.436523 2.983420 -1.574769 0
M  V30 61 H -2.274786 3.305913 0.043324 0
M  V30 62 H -1.082316 -3.139851 6.434069 0
M  V30 END ATOM
M  V30 BEGIN BOND
M  V30 1 1 1 2
M  V30 2 1 2 3
M  V30 3 2 3 4
M  V30 4 1 4 5
M  V30 5 1 5 6
M  V30 6 2 5 7
M  V30 7 1 7 8
M  V30 8 2 8 9
M  V30 9 1 9 10
M  V30 10 2 10 11
M  V30 11 1 10 12
M  V30 12 1 12 13
M  V30 13 2 13 14
M  V30 14 1 14 15
M  V30 15 1 15 16
M  V30 16 2 16 17
M  V30 17 1 16 18
M  V30 18 1 18 19
M  V30 19 1 19 20
M  V30 20 1 20 21
M  V30 21 1 21 22
M  V30 22 1 19 23
M  V30 23 2 23 24
M  V30 24 1 24 25
M  V30 25 2 25 26
M  V30 26 1 26 27
M  V30 27 2 27 28
M  V30 28 2 15 29
M  V30 29 1 29 30
M  V30 30 2 30 31
M  V30 31 1 31 32
M  V30 32 1 9 33
M  V30 33 2 33 34
M  V30 34 1 33 35
M  V30 35 1 35 36
M  V30 36 2 36 37
M  V30 37 1 37 3
M  V30 38 1 36 7
M  V30 39 1 31 13
M  V30 40 1 28 23
M  V30 41 1 1 38
M  V30 42 1 1 39
M  V30 43 1 1 40
M  V30 44 1 6 41
M  V30 45 1 6 42
M  V30 46 1 6 43
M  V30 47 1 8 44
M  V30 48 1 12 45
M  V30 49 1 14 46
M  V30 50 1 18 47
M  V30 51 1 19 48
M  V30 52 1 20 49
M  V30 53 1 20 50
M  V30 54 1 21 51
M  V30 55 1 21 52
M  V30 56 1 22 53
M  V30 57 1 22 54
M  V30 58 1 24 55
M  V30 59 1 25 56
M  V30 60 1 26 57
M  V30 61 1 27 58
M  V30 62 1 28 59
M  V30 63 1 29 60
M  V30 64 1 30 61
M  V30 65 1 35 62
M  V30 END BOND
M  V30 END CTAB
M  END
>  <Dataset>  (669) 
ChEMBL_Kinases

>  <Ligand_Instance>  (669) 
nan

>  <PDB_ID>  (669) 
nan

>  <Standardized_SMILES>  (669) 
COc1nc(C)c2cc(C(=O)Nc3cc(C(=O)NC(CCN)c4ccccc4)ccc3Cl)c(=O)[nH]c2n1

>  <Name>  (669) 
nan

>  <Pocket>  (669) 
nan

>  <ATP_Site>  (669) 
nan

>  <Peripheral>  (669) 
nan

>  <Num_H_Atoms_ProtBoundConf>  (669) 
nan

>  <Num_Resolved_Atoms>  (669) 
nan

>  <Num_Not_Resolved_Atoms>  (669) 
nan

$$$$
CHEMBL3680604
     RDKit          3D

  0  0  0  0  0  0  0  0  0  0999 V3000
M  V30 BEGIN CTAB
M  V30 COUNTS 49 52 0 0 0
M  V30 BEGIN ATOM
M  V30 1 N 1.122278 -4.566279 3.270429 0
M  V30 2 C 2.563857 -4.452066 3.207641 0
M  V30 3 O 2.412741 -5.393563 3.982391 0
M  V30 4 C 3.080230 -3.401207 2.349422 0
M  V30 5 C 4.477312 -3.336880 2.330091 0
M  V30 6 C 4.997330 -2.344144 1.500981 0
M  V30 7 C 4.133132 -1.547178 0.802443 0
M  V30 8 C 2.777783 -1.640004 0.847218 0
M  V30 9 C 1.946086 -0.817653 0.120729 0
M  V30 10 N 2.453246 0.196368 -0.730012 0
M  V30 11 C 1.683355 1.111359 -1.546634 0
M  V30 12 C 0.794841 1.972173 -0.737667 0
M  V30 13 C 1.311110 3.136485 -0.220494 0
M  V30 14 C 0.613731 4.061417 0.529661 0
M  V30 15 C -0.723826 3.771075 0.771019 0
M  V30 16 C -1.304910 2.625980 0.285266 0
M  V30 17 N -2.669663 2.329230 0.515707 0
M  V30 18 C -3.179554 1.006149 0.250888 0
M  V30 19 C -3.626735 0.416333 -0.891261 0
M  V30 20 C -4.071585 -0.883452 -0.829733 0
M  V30 21 C -4.068067 -1.573519 0.346392 0
M  V30 22 C -4.555242 -2.988426 0.393700 0
M  V30 23 F -4.279569 -3.675145 -0.749109 0
M  V30 24 F -3.974691 -3.590579 1.506593 0
M  V30 25 F -5.918318 -2.919695 0.652485 0
M  V30 26 C -3.606830 -0.935377 1.472747 0
M  V30 27 N -3.166821 0.342031 1.425499 0
M  V30 28 C -0.530592 1.745596 -0.462798 0
M  V30 29 N 0.630966 -1.015360 0.249750 0
M  V30 30 C 0.074687 -1.951929 1.031328 0
M  V30 31 N 0.889568 -2.759928 1.744203 0
M  V30 32 C 2.217953 -2.600482 1.648309 0
M  V30 33 H 0.106936 -4.646897 3.314545 0
M  V30 34 H 0.169351 -4.212336 3.574607 0
M  V30 35 H 5.044879 -4.032702 2.935478 0
M  V30 36 H 6.090736 -2.264434 1.460938 0
M  V30 37 H 4.636343 -0.818726 0.196127 0
M  V30 38 H 3.479637 0.355687 -0.820870 0
M  V30 39 H 2.342674 1.800060 -2.116560 0
M  V30 40 H 1.082600 0.556405 -2.313022 0
M  V30 41 H 2.361887 3.408691 -0.384081 0
M  V30 42 H 1.063367 4.964637 0.915166 0
M  V30 43 H -1.367618 4.427913 1.347338 0
M  V30 44 H -3.315076 3.053015 0.874427 0
M  V30 45 H -3.567193 1.087094 -1.734542 0
M  V30 46 H -4.413495 -1.296483 -1.770390 0
M  V30 47 H -3.632649 -1.546107 2.379793 0
M  V30 48 H -1.010826 0.869808 -0.837956 0
M  V30 49 H -0.982453 -2.134406 1.157416 0
M  V30 END ATOM
M  V30 BEGIN BOND
M  V30 1 1 1 2
M  V30 2 2 2 3
M  V30 3 1 2 4
M  V30 4 2 4 5
M  V30 5 1 5 6
M  V30 6 2 6 7
M  V30 7 1 7 8
M  V30 8 2 8 9
M  V30 9 1 9 10
M  V30 10 1 10 11
M  V30 11 1 11 12
M  V30 12 2 12 13
M  V30 13 1 13 14
M  V30 14 2 14 15
M  V30 15 1 15 16
M  V30 16 1 16 17
M  V30 17 1 17 18
M  V30 18 2 18 19
M  V30 19 1 19 20
M  V30 20 2 20 21
M  V30 21 1 21 22
M  V30 22 1 22 23
M  V30 23 1 22 24
M  V30 24 1 22 25
M  V30 25 1 21 26
M  V30 26 2 26 27
M  V30 27 2 16 28
M  V30 28 1 9 29
M  V30 29 2 29 30
M  V30 30 1 30 31
M  V30 31 2 31 32
M  V30 32 1 32 4
M  V30 33 1 32 8
M  V30 34 1 28 12
M  V30 35 1 27 18
M  V30 36 1 1 33
M  V30 37 1 1 34
M  V30 38 1 5 35
M  V30 39 1 6 36
M  V30 40 1 7 37
M  V30 41 1 10 38
M  V30 42 1 11 39
M  V30 43 1 11 40
M  V30 44 1 13 41
M  V30 45 1 14 42
M  V30 46 1 15 43
M  V30 47 1 17 44
M  V30 48 1 19 45
M  V30 49 1 20 46
M  V30 50 1 26 47
M  V30 51 1 28 48
M  V30 52 1 30 49
M  V30 END BOND
M  V30 END CTAB
M  END
>  <Dataset>  (670) 
ChEMBL_Kinases

>  <Ligand_Instance>  (670) 
nan

>  <PDB_ID>  (670) 
nan

>  <Standardized_SMILES>  (670) 
NC(=O)c1cccc2c(NCc3cccc(Nc4ccc(C(F)(F)F)cn4)c3)ncnc12

>  <Name>  (670) 
nan

>  <Pocket>  (670) 
nan

>  <ATP_Site>  (670) 
nan

>  <Peripheral>  (670) 
nan

>  <Num_H_Atoms_ProtBoundConf>  (670) 
nan

>  <Num_Resolved_Atoms>  (670) 
nan

>  <Num_Not_Resolved_Atoms>  (670) 
nan

$$$$
CHEMBL3094440
     RDKit          3D

  0  0  0  0  0  0  0  0  0  0999 V3000
M  V30 BEGIN CTAB
M  V30 COUNTS 49 51 0 0 0
M  V30 BEGIN ATOM
M  V30 1 C 2.946603 -6.894383 0.458342 0
M  V30 2 O 3.003058 -5.486643 0.408202 0
M  V30 3 C 4.216888 -4.821442 0.166201 0
M  V30 4 O 5.285832 -5.449296 -0.016894 0
M  V30 5 C 4.232999 -3.377840 0.133204 0
M  V30 6 C 5.441783 -2.764634 -0.082655 0
M  V30 7 C 5.537179 -1.404321 -0.122710 0
M  V30 8 C 4.406794 -0.610043 0.052514 0
M  V30 9 C 4.546373 0.834141 0.053498 0
M  V30 10 C 3.187419 -1.179668 0.265801 0
M  V30 11 N 1.905249 -0.675962 0.388560 0
M  V30 12 C 1.276837 0.438713 0.065226 0
M  V30 13 O 1.886780 1.399357 -0.527119 0
M  V30 14 C 0.271277 1.411960 -0.086347 0
M  V30 15 C -0.696293 0.483984 0.621178 0
M  V30 16 C -2.084264 0.759996 0.901431 0
M  V30 17 C -3.022129 -0.071621 1.562229 0
M  V30 18 C -4.294581 0.414554 1.721006 0
M  V30 19 O -5.059731 -0.524974 2.385683 0
M  V30 20 C -4.608561 -1.781286 2.831854 0
M  V30 21 C -4.791190 1.619018 1.315044 0
M  V30 22 O -6.099591 1.872713 1.588995 0
M  V30 23 C -6.792813 3.043959 1.261276 0
M  V30 24 C -3.871899 2.403112 0.678212 0
M  V30 25 C -2.573968 2.010423 0.472000 0
M  V30 26 N -1.736696 2.893879 -0.178623 0
M  V30 27 C -0.597070 2.199911 -0.193736 0
M  V30 28 O 0.279334 3.031549 -0.830285 0
M  V30 29 C 3.122496 -2.583689 0.303181 0
M  V30 30 H 2.539356 -7.170461 1.467908 0
M  V30 31 H 2.316496 -7.363912 -0.298653 0
M  V30 32 H 3.993821 -7.267113 0.454533 0
M  V30 33 H 6.364820 -3.305166 -0.230147 0
M  V30 34 H 6.482856 -0.902627 -0.301218 0
M  V30 35 H 4.027565 1.364928 0.856555 0
M  V30 36 H 4.476724 1.334918 -0.918004 0
M  V30 37 H 5.653132 1.023607 0.340153 0
M  V30 38 H 1.108337 -1.165546 0.833821 0
M  V30 39 H -0.644673 -0.554752 1.078513 0
M  V30 40 H -2.596203 -1.005743 1.867401 0
M  V30 41 H -5.408982 -2.287866 3.427449 0
M  V30 42 H -3.688859 -1.727960 3.415520 0
M  V30 43 H -4.440028 -2.427014 1.933994 0
M  V30 44 H -6.067640 3.864949 1.025783 0
M  V30 45 H -7.457171 3.376669 2.078766 0
M  V30 46 H -7.448555 2.921614 0.356906 0
M  V30 47 H -4.216737 3.368979 0.337942 0
M  V30 48 H -1.946115 3.816216 -0.539960 0
M  V30 49 H 2.226641 -3.192640 0.463070 0
M  V30 END ATOM
M  V30 BEGIN BOND
M  V30 1 1 1 2
M  V30 2 1 2 3
M  V30 3 2 3 4
M  V30 4 1 3 5
M  V30 5 2 5 6
M  V30 6 1 6 7
M  V30 7 2 7 8
M  V30 8 1 8 9
M  V30 9 1 8 10
M  V30 10 1 10 11
M  V30 11 1 11 12
M  V30 12 2 12 13
M  V30 13 1 12 14
M  V30 14 2 14 15
M  V30 15 1 15 16
M  V30 16 2 16 17
M  V30 17 1 17 18
M  V30 18 1 18 19
M  V30 19 1 19 20
M  V30 20 2 18 21
M  V30 21 1 21 22
M  V30 22 1 22 23
M  V30 23 1 21 24
M  V30 24 2 24 25
M  V30 25 1 25 26
M  V30 26 1 26 27
M  V30 27 2 27 28
M  V30 28 2 10 29
M  V30 29 1 29 5
M  V30 30 1 27 14
M  V30 31 1 25 16
M  V30 32 1 1 30
M  V30 33 1 1 31
M  V30 34 1 1 32
M  V30 35 1 6 33
M  V30 36 1 7 34
M  V30 37 1 9 35
M  V30 38 1 9 36
M  V30 39 1 9 37
M  V30 40 1 11 38
M  V30 41 1 15 39
M  V30 42 1 17 40
M  V30 43 1 20 41
M  V30 44 1 20 42
M  V30 45 1 20 43
M  V30 46 1 23 44
M  V30 47 1 23 45
M  V30 48 1 23 46
M  V30 49 1 24 47
M  V30 50 1 26 48
M  V30 51 1 29 49
M  V30 END BOND
M  V30 END CTAB
M  END
>  <Dataset>  (671) 
ChEMBL_Kinases

>  <Ligand_Instance>  (671) 
nan

>  <PDB_ID>  (671) 
nan

>  <Standardized_SMILES>  (671) 
COC(=O)c1ccc(C)c(NC(=O)c2cc3cc(OC)c(OC)cc3[nH]c2=O)c1

>  <Name>  (671) 
nan

>  <Pocket>  (671) 
nan

>  <ATP_Site>  (671) 
nan

>  <Peripheral>  (671) 
nan

>  <Num_H_Atoms_ProtBoundConf>  (671) 
nan

>  <Num_Resolved_Atoms>  (671) 
nan

>  <Num_Not_Resolved_Atoms>  (671) 
nan

$$$$
CHEMBL3094441
     RDKit          3D

  0  0  0  0  0  0  0  0  0  0999 V3000
M  V30 BEGIN CTAB
M  V30 COUNTS 43 45 0 0 0
M  V30 BEGIN ATOM
M  V30 1 C 7.272677 -3.983192 1.847466 0
M  V30 2 O 6.639529 -2.928932 1.149764 0
M  V30 3 C 5.268978 -2.903583 0.912309 0
M  V30 4 O 4.801047 -3.954889 1.429063 0
M  V30 5 C 4.600710 -1.820273 0.192506 0
M  V30 6 C 5.260704 -0.721938 -0.319504 0
M  V30 7 C 4.477950 0.212109 -0.973763 0
M  V30 8 C 3.110629 0.064806 -1.113310 0
M  V30 9 C 2.410679 1.151693 -1.840287 0
M  V30 10 C 2.468814 -1.044201 -0.592321 0
M  V30 11 N 1.053867 -1.118422 -0.780848 0
M  V30 12 C 0.305697 -0.518947 0.259194 0
M  V30 13 O 1.130251 -0.053855 1.121782 0
M  V30 14 C -1.140873 -0.418761 0.380626 0
M  V30 15 C -1.563629 0.242398 1.543619 0
M  V30 16 C -2.907186 0.414610 1.797651 0
M  V30 17 C -3.293323 1.068643 2.949374 0
M  V30 18 N -4.592483 1.265055 3.248339 0
M  V30 19 C -5.541231 0.809276 2.397458 0
M  V30 20 O -6.910630 0.955016 2.603224 0
M  V30 21 C -7.366233 1.617536 3.767338 0
M  V30 22 N -5.185952 0.158915 1.251065 0
M  V30 23 C -3.897801 -0.037323 0.951971 0
M  V30 24 N -3.450031 -0.664307 -0.149049 0
M  V30 25 C -2.154293 -0.857071 -0.441650 0
M  V30 26 O -1.745070 -1.440944 -1.467272 0
M  V30 27 C 3.235193 -1.988719 0.065178 0
M  V30 28 H 8.198154 -3.630584 2.350904 0
M  V30 29 H 6.550793 -4.286985 2.659093 0
M  V30 30 H 7.488579 -4.866860 1.235507 0
M  V30 31 H 6.332275 -0.652515 -0.184187 0
M  V30 32 H 5.023067 1.070374 -1.369077 0
M  V30 33 H 2.933122 1.263342 -2.824718 0
M  V30 34 H 2.570700 2.145235 -1.340626 0
M  V30 35 H 1.363934 0.934147 -2.053540 0
M  V30 36 H 0.527460 -1.549842 -1.571545 0
M  V30 37 H -0.855308 0.642809 2.286180 0
M  V30 38 H -2.578398 1.457230 3.671099 0
M  V30 39 H -8.269635 1.166041 4.202709 0
M  V30 40 H -7.576916 2.653790 3.484276 0
M  V30 41 H -6.546045 1.633584 4.535506 0
M  V30 42 H -4.147605 -1.031596 -0.832078 0
M  V30 43 H 2.672799 -2.832252 0.449368 0
M  V30 END ATOM
M  V30 BEGIN BOND
M  V30 1 1 1 2
M  V30 2 1 2 3
M  V30 3 2 3 4
M  V30 4 1 3 5
M  V30 5 2 5 6
M  V30 6 1 6 7
M  V30 7 2 7 8
M  V30 8 1 8 9
M  V30 9 1 8 10
M  V30 10 1 10 11
M  V30 11 1 11 12
M  V30 12 2 12 13
M  V30 13 1 12 14
M  V30 14 2 14 15
M  V30 15 1 15 16
M  V30 16 2 16 17
M  V30 17 1 17 18
M  V30 18 2 18 19
M  V30 19 1 19 20
M  V30 20 1 20 21
M  V30 21 1 19 22
M  V30 22 2 22 23
M  V30 23 1 23 24
M  V30 24 1 24 25
M  V30 25 2 25 26
M  V30 26 2 10 27
M  V30 27 1 27 5
M  V30 28 1 25 14
M  V30 29 1 23 16
M  V30 30 1 1 28
M  V30 31 1 1 29
M  V30 32 1 1 30
M  V30 33 1 6 31
M  V30 34 1 7 32
M  V30 35 1 9 33
M  V30 36 1 9 34
M  V30 37 1 9 35
M  V30 38 1 11 36
M  V30 39 1 15 37
M  V30 40 1 17 38
M  V30 41 1 21 39
M  V30 42 1 21 40
M  V30 43 1 21 41
M  V30 44 1 24 42
M  V30 45 1 27 43
M  V30 END BOND
M  V30 END CTAB
M  END
>  <Dataset>  (672) 
ChEMBL_Kinases

>  <Ligand_Instance>  (672) 
nan

>  <PDB_ID>  (672) 
nan

>  <Standardized_SMILES>  (672) 
COC(=O)c1ccc(C)c(NC(=O)c2cc3cnc(OC)nc3[nH]c2=O)c1

>  <Name>  (672) 
nan

>  <Pocket>  (672) 
nan

>  <ATP_Site>  (672) 
nan

>  <Peripheral>  (672) 
nan

>  <Num_H_Atoms_ProtBoundConf>  (672) 
nan

>  <Num_Resolved_Atoms>  (672) 
nan

>  <Num_Not_Resolved_Atoms>  (672) 
nan

$$$$
CHEMBL4587382
     RDKit          3D

  0  0  0  0  0  0  0  0  0  0999 V3000
M  V30 BEGIN CTAB
M  V30 COUNTS 46 48 0 0 0
M  V30 BEGIN ATOM
M  V30 1 C 1.732218 -5.741558 1.387588 0
M  V30 2 C 0.916779 -5.190384 0.253571 0
M  V30 3 C -0.549947 -5.551655 0.513354 0
M  V30 4 O 1.393809 -5.745809 -0.918518 0
M  V30 5 C 1.068376 -3.739448 0.107764 0
M  V30 6 C 1.176409 -2.541954 -0.007275 0
M  V30 7 C 1.291546 -1.114839 -0.123449 0
M  V30 8 C 2.093910 -0.431864 -1.014014 0
M  V30 9 Cl 3.158516 -1.137087 -2.209707 0
M  V30 10 C 1.900478 0.928608 -0.785896 0
M  V30 11 C 2.479386 1.991709 -1.423422 0
M  V30 12 Cl 3.632331 1.845646 -2.712932 0
M  V30 13 C 2.092367 3.250140 -0.979903 0
M  V30 14 C 1.167423 3.294920 0.054046 0
M  V30 15 C 0.782851 4.643231 0.495575 0
M  V30 16 N -0.156367 4.840676 1.546615 0
M  V30 17 O 1.237783 5.715416 -0.003207 0
M  V30 18 N 0.614332 2.230073 0.662713 0
M  V30 19 C 0.988612 1.009862 0.233731 0
M  V30 20 N 0.613222 -0.229726 0.642292 0
M  V30 21 C -0.325627 -0.565486 1.688495 0 CFG=1
M  V30 22 C -0.534835 0.476663 2.701159 0
M  V30 23 C -1.691168 1.397047 2.536831 0
M  V30 24 C -2.482653 1.274965 1.281377 0
M  V30 25 N -2.160920 0.193006 0.418911 0
M  V30 26 C -1.679436 -0.973586 1.091956 0
M  V30 27 H 2.130083 -4.959202 2.069728 0
M  V30 28 H 2.619406 -6.306064 1.042456 0
M  V30 29 H 1.129025 -6.457646 2.002411 0
M  V30 30 H -0.934196 -4.719811 1.160983 0
M  V30 31 H -1.063152 -5.441184 -0.466575 0
M  V30 32 H -0.649552 -6.531507 0.979714 0
M  V30 33 H 1.100392 -6.691095 -1.008453 0
M  V30 34 H 2.491629 4.147525 -1.418111 0
M  V30 35 H 0.265622 5.052778 2.476229 0
M  V30 36 H -0.231485 5.057344 2.566971 0
M  V30 37 H 0.078238 -1.484950 2.160087 0
M  V30 38 H -0.560280 0.000152 3.716665 0
M  V30 39 H 0.399723 1.111072 2.753204 0
M  V30 40 H -2.394449 1.254786 3.393962 0
M  V30 41 H -1.385759 2.479415 2.652233 0
M  V30 42 H -2.391273 2.211992 0.655377 0
M  V30 43 H -3.591865 1.235657 1.491759 0
M  V30 44 H -3.009327 -0.072233 -0.128088 0
M  V30 45 H -2.294498 -1.270015 1.974682 0
M  V30 46 H -1.579383 -1.792050 0.375010 0
M  V30 END ATOM
M  V30 BEGIN BOND
M  V30 1 1 1 2
M  V30 2 1 2 3
M  V30 3 1 2 4
M  V30 4 1 2 5
M  V30 5 3 5 6
M  V30 6 1 6 7
M  V30 7 2 7 8
M  V30 8 1 8 9
M  V30 9 1 8 10
M  V30 10 2 10 11
M  V30 11 1 11 12
M  V30 12 1 11 13
M  V30 13 2 13 14
M  V30 14 1 14 15
M  V30 15 1 15 16
M  V30 16 2 15 17
M  V30 17 1 14 18
M  V30 18 2 18 19
M  V30 19 1 19 20
M  V30 20 1 20 21
M  V30 21 1 21 22
M  V30 22 1 22 23
M  V30 23 1 23 24
M  V30 24 1 24 25
M  V30 25 1 25 26
M  V30 26 1 20 7
M  V30 27 1 26 21
M  V30 28 1 19 10
M  V30 29 1 1 27
M  V30 30 1 1 28
M  V30 31 1 1 29
M  V30 32 1 3 30
M  V30 33 1 3 31
M  V30 34 1 3 32
M  V30 35 1 4 33
M  V30 36 1 13 34
M  V30 37 1 16 35
M  V30 38 1 16 36
M  V30 39 1 21 37 CFG=1
M  V30 40 1 22 38
M  V30 41 1 22 39
M  V30 42 1 23 40
M  V30 43 1 23 41
M  V30 44 1 24 42
M  V30 45 1 24 43
M  V30 46 1 25 44
M  V30 47 1 26 45
M  V30 48 1 26 46
M  V30 END BOND
M  V30 END CTAB
M  END
>  <Dataset>  (673) 
ChEMBL_Kinases

>  <Ligand_Instance>  (673) 
nan

>  <PDB_ID>  (673) 
nan

>  <Standardized_SMILES>  (673) 
CC(C)(O)C#Cc1c(Cl)c2c(Cl)cc(C(N)=O)nc2n1[C@H]1CCCNC1

>  <Name>  (673) 
nan

>  <Pocket>  (673) 
nan

>  <ATP_Site>  (673) 
nan

>  <Peripheral>  (673) 
nan

>  <Num_H_Atoms_ProtBoundConf>  (673) 
nan

>  <Num_Resolved_Atoms>  (673) 
nan

>  <Num_Not_Resolved_Atoms>  (673) 
nan

$$$$
CHEMBL3094442
     RDKit          3D

  0  0  0  0  0  0  0  0  0  0999 V3000
M  V30 BEGIN CTAB
M  V30 COUNTS 40 42 0 0 0
M  V30 BEGIN ATOM
M  V30 1 C 4.131851 -6.236256 0.976974 0
M  V30 2 O 3.400841 -5.165582 0.408549 0
M  V30 3 C 3.914091 -4.450677 -0.666338 0
M  V30 4 O 5.043763 -4.875557 -1.023768 0
M  V30 5 C 3.298293 -3.329188 -1.365836 0
M  V30 6 C 4.033746 -2.810986 -2.397383 0
M  V30 7 C 3.473026 -1.732516 -3.091949 0
M  V30 8 C 2.236273 -1.237809 -2.730335 0
M  V30 9 Cl 1.496436 0.112831 -3.574069 0
M  V30 10 C 1.521749 -1.789925 -1.679233 0
M  V30 11 N 0.240574 -1.351173 -1.230544 0
M  V30 12 C 0.249012 -0.352287 -0.231709 0
M  V30 13 O 1.471207 -0.075073 0.036071 0
M  V30 14 C -0.891906 0.282799 0.412181 0
M  V30 15 C -0.529837 1.243989 1.370479 0
M  V30 16 C -1.503252 1.931638 2.065558 0
M  V30 17 C -1.115778 2.869727 3.000511 0
M  V30 18 N -2.054997 3.545825 3.683736 0
M  V30 19 C -3.390210 3.339713 3.487944 0
M  V30 20 O -4.406766 3.982388 4.138339 0
M  V30 21 C -4.290005 4.965701 5.120571 0
M  V30 22 N -3.780470 2.412908 2.564297 0
M  V30 23 C -2.854023 1.726989 1.871349 0
M  V30 24 N -3.153628 0.798535 0.945298 0
M  V30 25 C -2.247311 0.101309 0.241162 0
M  V30 26 O -2.529517 -0.754393 -0.612275 0
M  V30 27 C 2.059416 -2.871086 -0.965953 0
M  V30 28 H 5.228581 -6.087444 0.823406 0
M  V30 29 H 3.967757 -6.276839 2.059744 0
M  V30 30 H 3.828545 -7.210073 0.551924 0
M  V30 31 H 4.984395 -3.149409 -2.717406 0
M  V30 32 H 4.004236 -1.267714 -3.928018 0
M  V30 33 H -0.686653 -1.694838 -1.567008 0
M  V30 34 H 0.520829 1.482786 1.601157 0
M  V30 35 H -0.090320 3.071113 3.194003 0
M  V30 36 H -4.472647 6.000898 4.755019 0
M  V30 37 H -4.994293 4.756677 5.969969 0
M  V30 38 H -3.284091 4.985040 5.596811 0
M  V30 39 H -4.153439 0.591656 0.746134 0
M  V30 40 H 1.528002 -3.332142 -0.133534 0
M  V30 END ATOM
M  V30 BEGIN BOND
M  V30 1 1 1 2
M  V30 2 1 2 3
M  V30 3 2 3 4
M  V30 4 1 3 5
M  V30 5 2 5 6
M  V30 6 1 6 7
M  V30 7 2 7 8
M  V30 8 1 8 9
M  V30 9 1 8 10
M  V30 10 1 10 11
M  V30 11 1 11 12
M  V30 12 2 12 13
M  V30 13 1 12 14
M  V30 14 2 14 15
M  V30 15 1 15 16
M  V30 16 2 16 17
M  V30 17 1 17 18
M  V30 18 2 18 19
M  V30 19 1 19 20
M  V30 20 1 20 21
M  V30 21 1 19 22
M  V30 22 2 22 23
M  V30 23 1 23 24
M  V30 24 1 24 25
M  V30 25 2 25 26
M  V30 26 2 10 27
M  V30 27 1 27 5
M  V30 28 1 25 14
M  V30 29 1 23 16
M  V30 30 1 1 28
M  V30 31 1 1 29
M  V30 32 1 1 30
M  V30 33 1 6 31
M  V30 34 1 7 32
M  V30 35 1 11 33
M  V30 36 1 15 34
M  V30 37 1 17 35
M  V30 38 1 21 36
M  V30 39 1 21 37
M  V30 40 1 21 38
M  V30 41 1 24 39
M  V30 42 1 27 40
M  V30 END BOND
M  V30 END CTAB
M  END
>  <Dataset>  (674) 
ChEMBL_Kinases

>  <Ligand_Instance>  (674) 
nan

>  <PDB_ID>  (674) 
nan

>  <Standardized_SMILES>  (674) 
COC(=O)c1ccc(Cl)c(NC(=O)c2cc3cnc(OC)nc3[nH]c2=O)c1

>  <Name>  (674) 
nan

>  <Pocket>  (674) 
nan

>  <ATP_Site>  (674) 
nan

>  <Peripheral>  (674) 
nan

>  <Num_H_Atoms_ProtBoundConf>  (674) 
nan

>  <Num_Resolved_Atoms>  (674) 
nan

>  <Num_Not_Resolved_Atoms>  (674) 
nan

$$$$
CHEMBL3094444
     RDKit          3D

  0  0  0  0  0  0  0  0  0  0999 V3000
M  V30 BEGIN CTAB
M  V30 COUNTS 38 40 0 0 0
M  V30 BEGIN ATOM
M  V30 1 C 2.984494 -7.863031 1.933337 0
M  V30 2 O 2.679461 -6.650736 2.615121 0
M  V30 3 C 2.091495 -5.574273 2.001308 0
M  V30 4 N 1.718429 -5.489860 0.696377 0
M  V30 5 C 1.140979 -4.350369 0.219194 0
M  V30 6 C 0.942998 -3.288821 1.081317 0
M  V30 7 C 0.356043 -2.147988 0.568994 0
M  V30 8 C 0.123941 -1.029857 1.385570 0
M  V30 9 C -0.492804 0.097132 0.736349 0
M  V30 10 O -0.813003 0.088444 -0.507157 0
M  V30 11 N -0.846498 1.342120 1.278343 0
M  V30 12 C -1.457945 2.371543 0.500388 0
M  V30 13 C -0.546824 3.205917 -0.086153 0
M  V30 14 C -1.026443 4.258642 -0.877226 0
M  V30 15 C -0.180282 5.243329 -1.576760 0
M  V30 16 N 1.237916 5.159994 -1.472947 0
M  V30 17 O -0.661192 6.173244 -2.275732 0
M  V30 18 C -2.393813 4.398626 -1.023221 0
M  V30 19 C -3.326525 3.553580 -0.429474 0
M  V30 20 C -2.823189 2.511614 0.354386 0
M  V30 21 Cl -3.880595 1.386138 1.151188 0
M  V30 22 C 0.526988 -1.188170 2.692547 0
M  V30 23 O 0.331221 -0.215631 3.426401 0
M  V30 24 N 1.095956 -2.306805 3.169667 0
M  V30 25 C 1.327035 -3.388888 2.404286 0
M  V30 26 N 1.892834 -4.533002 2.829751 0
M  V30 27 H 3.709230 -7.707208 1.134970 0
M  V30 28 H 2.018023 -8.171067 1.447072 0
M  V30 29 H 3.216681 -8.671660 2.646280 0
M  V30 30 H 0.857727 -4.333995 -0.845100 0
M  V30 31 H 0.073136 -2.132943 -0.495564 0
M  V30 32 H -0.648987 1.507021 2.289703 0
M  V30 33 H 0.529043 3.139276 -0.003563 0
M  V30 34 H 1.699160 4.225744 -1.342636 0
M  V30 35 H 1.850393 6.012305 -1.522668 0
M  V30 36 H -2.811978 5.212305 -1.636096 0
M  V30 37 H -4.392239 3.684858 -0.559576 0
M  V30 38 H 1.373854 -2.348661 4.173504 0
M  V30 END ATOM
M  V30 BEGIN BOND
M  V30 1 1 1 2
M  V30 2 1 2 3
M  V30 3 2 3 4
M  V30 4 1 4 5
M  V30 5 2 5 6
M  V30 6 1 6 7
M  V30 7 2 7 8
M  V30 8 1 8 9
M  V30 9 2 9 10
M  V30 10 1 9 11
M  V30 11 1 11 12
M  V30 12 2 12 13
M  V30 13 1 13 14
M  V30 14 1 14 15
M  V30 15 1 15 16
M  V30 16 2 15 17
M  V30 17 2 14 18
M  V30 18 1 18 19
M  V30 19 2 19 20
M  V30 20 1 20 21
M  V30 21 1 8 22
M  V30 22 2 22 23
M  V30 23 1 22 24
M  V30 24 1 24 25
M  V30 25 2 25 26
M  V30 26 1 26 3
M  V30 27 1 25 6
M  V30 28 1 20 12
M  V30 29 1 1 27
M  V30 30 1 1 28
M  V30 31 1 1 29
M  V30 32 1 5 30
M  V30 33 1 7 31
M  V30 34 1 11 32
M  V30 35 1 13 33
M  V30 36 1 16 34
M  V30 37 1 16 35
M  V30 38 1 18 36
M  V30 39 1 19 37
M  V30 40 1 24 38
M  V30 END BOND
M  V30 END CTAB
M  END
>  <Dataset>  (675) 
ChEMBL_Kinases

>  <Ligand_Instance>  (675) 
nan

>  <PDB_ID>  (675) 
nan

>  <Standardized_SMILES>  (675) 
COc1ncc2cc(C(=O)Nc3cc(C(N)=O)ccc3Cl)c(=O)[nH]c2n1

>  <Name>  (675) 
nan

>  <Pocket>  (675) 
nan

>  <ATP_Site>  (675) 
nan

>  <Peripheral>  (675) 
nan

>  <Num_H_Atoms_ProtBoundConf>  (675) 
nan

>  <Num_Resolved_Atoms>  (675) 
nan

>  <Num_Not_Resolved_Atoms>  (675) 
nan

$$$$
CHEMBL4587472
     RDKit          3D

  0  0  0  0  0  0  0  0  0  0999 V3000
M  V30 BEGIN CTAB
M  V30 COUNTS 40 42 0 0 0
M  V30 BEGIN ATOM
M  V30 1 C -2.365198 -2.860120 -4.173378 0
M  V30 2 C -2.409945 -2.915556 -2.675209 0
M  V30 3 C -3.473664 -3.935224 -2.321514 0
M  V30 4 O -2.734499 -1.710298 -2.061660 0
M  V30 5 C -2.031416 -0.976636 -1.160806 0
M  V30 6 C -0.787747 -1.283450 -0.645600 0
M  V30 7 C -0.120923 -0.485645 0.276733 0
M  V30 8 C 1.201200 -0.849459 0.795461 0
M  V30 9 C 1.657505 -2.137628 0.989532 0
M  V30 10 N 2.896111 -2.359367 1.465423 0
M  V30 11 C 3.754195 -1.348108 1.776830 0
M  V30 12 C 3.274269 -0.054419 1.573526 0
M  V30 13 C 4.166566 1.081399 1.892285 0
M  V30 14 N 4.736737 1.776652 2.890825 0
M  V30 15 N 5.468137 2.739406 2.356869 0
M  V30 16 N 5.389240 2.689225 1.036683 0
M  V30 17 N 4.593068 1.675169 0.750537 0
M  V30 18 C 2.037529 0.233154 1.097405 0
M  V30 19 C -0.745235 0.674899 0.693734 0
M  V30 20 C -2.006257 1.011602 0.188865 0
M  V30 21 C -2.666060 0.199144 -0.739127 0
M  V30 22 C -3.980979 0.686952 -1.175816 0
M  V30 23 N -4.591288 -0.193842 -2.137825 0
M  V30 24 O -4.497380 1.768319 -0.737426 0
M  V30 25 H -2.902147 -3.690660 -4.672582 0
M  V30 26 H -2.764907 -1.928805 -4.609536 0
M  V30 27 H -1.307058 -2.926553 -4.498976 0
M  V30 28 H -1.442538 -3.275159 -2.280112 0
M  V30 29 H -3.576721 -4.106188 -1.250966 0
M  V30 30 H -4.414723 -3.547959 -2.795850 0
M  V30 31 H -3.242159 -4.859962 -2.911199 0
M  V30 32 H -0.318877 -2.184050 -0.977956 0
M  V30 33 H 0.968144 -2.936027 0.739292 0
M  V30 34 H 4.756215 -1.537512 2.161763 0
M  V30 35 H 5.943993 3.422307 0.549808 0
M  V30 36 H 1.739221 1.272465 0.967390 0
M  V30 37 H -0.246340 1.317581 1.415707 0
M  V30 38 H -2.439807 1.931234 0.555119 0
M  V30 39 H -5.480132 0.223989 -2.548077 0
M  V30 40 H -5.468194 0.219028 -2.542188 0
M  V30 END ATOM
M  V30 BEGIN BOND
M  V30 1 1 1 2
M  V30 2 1 2 3
M  V30 3 1 2 4
M  V30 4 1 4 5
M  V30 5 2 5 6
M  V30 6 1 6 7
M  V30 7 1 7 8
M  V30 8 2 8 9
M  V30 9 1 9 10
M  V30 10 2 10 11
M  V30 11 1 11 12
M  V30 12 1 12 13
M  V30 13 1 13 14
M  V30 14 2 14 15
M  V30 15 1 15 16
M  V30 16 1 16 17
M  V30 17 2 12 18
M  V30 18 2 7 19
M  V30 19 1 19 20
M  V30 20 2 20 21
M  V30 21 1 21 22
M  V30 22 1 22 23
M  V30 23 2 22 24
M  V30 24 1 21 5
M  V30 25 1 18 8
M  V30 26 2 17 13
M  V30 27 1 1 25
M  V30 28 1 1 26
M  V30 29 1 1 27
M  V30 30 1 2 28
M  V30 31 1 3 29
M  V30 32 1 3 30
M  V30 33 1 3 31
M  V30 34 1 6 32
M  V30 35 1 9 33
M  V30 36 1 11 34
M  V30 37 1 16 35
M  V30 38 1 18 36
M  V30 39 1 19 37
M  V30 40 1 20 38
M  V30 41 1 23 39
M  V30 42 1 23 40
M  V30 END BOND
M  V30 END CTAB
M  END
>  <Dataset>  (676) 
ChEMBL_Kinases

>  <Ligand_Instance>  (676) 
nan

>  <PDB_ID>  (676) 
nan

>  <Standardized_SMILES>  (676) 
CC(C)Oc1cc(-c2cncc(-c3nn[nH]n3)c2)ccc1C(N)=O

>  <Name>  (676) 
nan

>  <Pocket>  (676) 
nan

>  <ATP_Site>  (676) 
nan

>  <Peripheral>  (676) 
nan

>  <Num_H_Atoms_ProtBoundConf>  (676) 
nan

>  <Num_Resolved_Atoms>  (676) 
nan

>  <Num_Not_Resolved_Atoms>  (676) 
nan

$$$$
CHEMBL3094446
     RDKit          3D

  0  0  0  0  0  0  0  0  0  0999 V3000
M  V30 BEGIN CTAB
M  V30 COUNTS 48 51 0 0 0
M  V30 BEGIN ATOM
M  V30 1 C 5.540371 -6.943734 2.636297 0
M  V30 2 O 5.869956 -6.005306 1.607742 0
M  V30 3 C 5.042486 -4.923232 1.343501 0
M  V30 4 N 3.907147 -4.624682 1.959105 0
M  V30 5 C 3.132771 -3.577068 1.687368 0
M  V30 6 C 3.514289 -2.687983 0.670354 0
M  V30 7 C 2.858467 -1.489289 0.206703 0
M  V30 8 C 3.349721 -0.571021 -0.894334 0
M  V30 9 C 2.236965 0.247120 -0.709233 0
M  V30 10 O 2.874486 0.896869 -1.555968 0
M  V30 11 N 1.052541 0.667072 -0.212835 0
M  V30 12 C 0.337725 1.820487 -0.461087 0
M  V30 13 C -0.970517 1.692104 0.035701 0
M  V30 14 C -1.902800 2.685040 -0.055013 0
M  V30 15 C -3.266698 2.613821 0.425951 0
M  V30 16 O -4.074917 3.556036 0.390801 0
M  V30 17 N -3.789295 1.435925 0.985604 0
M  V30 18 C -5.003496 0.967744 1.549937 0
M  V30 19 C -5.267043 1.019764 2.905799 0
M  V30 20 C -6.465356 0.558556 3.467017 0
M  V30 21 C -7.387780 0.039927 2.578232 0
M  V30 22 C -7.213252 -0.053627 1.195069 0
M  V30 23 C -5.999715 0.426674 0.737462 0
M  V30 24 C -1.571717 3.877983 -0.656938 0
M  V30 25 C -0.305821 4.063781 -1.161949 0
M  V30 26 C 0.584854 3.020969 -1.035656 0
M  V30 27 Cl 2.164951 3.331181 -1.648581 0
M  V30 28 C 4.306529 -1.275622 -1.052729 0
M  V30 29 O 4.732629 -0.441169 -2.039139 0
M  V30 30 N 5.230465 -2.221833 -0.993318 0
M  V30 31 C 4.723612 -3.007573 0.016050 0
M  V30 32 N 5.485219 -4.105890 0.337758 0
M  V30 33 H 5.004886 -6.388360 3.455592 0
M  V30 34 H 6.453736 -7.463814 2.988727 0
M  V30 35 H 4.837318 -7.709962 2.276575 0
M  V30 36 H 2.213843 -3.284230 2.144584 0
M  V30 37 H 1.961354 -1.529605 0.915276 0
M  V30 38 H 0.804474 -0.102687 0.421277 0
M  V30 39 H -1.384513 0.818604 0.535322 0
M  V30 40 H -3.280650 0.539643 1.107517 0
M  V30 41 H -4.519999 1.434637 3.591689 0
M  V30 42 H -6.672309 0.597090 4.528761 0
M  V30 43 H -8.341671 -0.331115 2.989388 0
M  V30 44 H -7.972032 -0.463751 0.557076 0
M  V30 45 H -5.853676 0.360183 -0.340850 0
M  V30 46 H -2.269508 4.698557 -0.757827 0
M  V30 47 H -0.040371 4.993039 -1.633004 0
M  V30 48 H 6.076365 -2.328468 -1.545050 0
M  V30 END ATOM
M  V30 BEGIN BOND
M  V30 1 1 1 2
M  V30 2 1 2 3
M  V30 3 2 3 4
M  V30 4 1 4 5
M  V30 5 2 5 6
M  V30 6 1 6 7
M  V30 7 2 7 8
M  V30 8 1 8 9
M  V30 9 2 9 10
M  V30 10 1 9 11
M  V30 11 1 11 12
M  V30 12 2 12 13
M  V30 13 1 13 14
M  V30 14 1 14 15
M  V30 15 2 15 16
M  V30 16 1 15 17
M  V30 17 1 17 18
M  V30 18 2 18 19
M  V30 19 1 19 20
M  V30 20 2 20 21
M  V30 21 1 21 22
M  V30 22 2 22 23
M  V30 23 2 14 24
M  V30 24 1 24 25
M  V30 25 2 25 26
M  V30 26 1 26 27
M  V30 27 1 8 28
M  V30 28 2 28 29
M  V30 29 1 28 30
M  V30 30 1 30 31
M  V30 31 2 31 32
M  V30 32 1 32 3
M  V30 33 1 31 6
M  V30 34 1 26 12
M  V30 35 1 23 18
M  V30 36 1 1 33
M  V30 37 1 1 34
M  V30 38 1 1 35
M  V30 39 1 5 36
M  V30 40 1 7 37
M  V30 41 1 11 38
M  V30 42 1 13 39
M  V30 43 1 17 40
M  V30 44 1 19 41
M  V30 45 1 20 42
M  V30 46 1 21 43
M  V30 47 1 22 44
M  V30 48 1 23 45
M  V30 49 1 24 46
M  V30 50 1 25 47
M  V30 51 1 30 48
M  V30 END BOND
M  V30 END CTAB
M  END
>  <Dataset>  (677) 
ChEMBL_Kinases

>  <Ligand_Instance>  (677) 
nan

>  <PDB_ID>  (677) 
nan

>  <Standardized_SMILES>  (677) 
COc1ncc2cc(C(=O)Nc3cc(C(=O)Nc4ccccc4)ccc3Cl)c(=O)[nH]c2n1

>  <Name>  (677) 
nan

>  <Pocket>  (677) 
nan

>  <ATP_Site>  (677) 
nan

>  <Peripheral>  (677) 
nan

>  <Num_H_Atoms_ProtBoundConf>  (677) 
nan

>  <Num_Resolved_Atoms>  (677) 
nan

>  <Num_Not_Resolved_Atoms>  (677) 
nan

$$$$
CHEMBL3094447
     RDKit          3D

  0  0  0  0  0  0  0  0  0  0999 V3000
M  V30 BEGIN CTAB
M  V30 COUNTS 51 54 0 0 0
M  V30 BEGIN ATOM
M  V30 1 C 6.373071 -7.684872 4.317374 0
M  V30 2 O 5.735313 -6.559766 4.327868 0
M  V30 3 C 5.097847 -5.441200 4.407392 0
M  V30 4 N 4.601407 -4.651322 5.333255 0
M  V30 5 C 3.963011 -3.507618 5.168710 0
M  V30 6 C 3.797318 -3.083662 3.808075 0
M  V30 7 C 3.100411 -1.877705 3.594945 0
M  V30 8 C 2.979426 -1.566358 2.200076 0
M  V30 9 C 2.174115 -0.293968 2.281536 0
M  V30 10 O 1.739092 0.383088 3.320241 0
M  V30 11 N 1.607780 0.605352 1.394848 0
M  V30 12 C 1.011691 1.549321 0.577611 0
M  V30 13 C -0.230644 1.373745 0.058655 0
M  V30 14 C -0.889239 2.288827 -0.710162 0
M  V30 15 C -2.165123 2.223267 -1.391135 0
M  V30 16 O -2.757199 3.226970 -1.939582 0
M  V30 17 N -2.998421 1.164101 -1.614227 0
M  V30 18 C -4.021368 0.219026 -1.973951 0
M  V30 19 C -5.352449 0.904610 -2.248332 0
M  V30 20 C -6.261675 1.063755 -1.201858 0
M  V30 21 C -7.516517 1.655394 -1.358249 0
M  V30 22 C -7.876057 2.116219 -2.639307 0
M  V30 23 C -6.950775 1.934750 -3.614667 0
M  V30 24 C -5.712715 1.360884 -3.512099 0
M  V30 25 C -0.188782 3.447262 -0.932367 0
M  V30 26 C 1.064894 3.684975 -0.438748 0
M  V30 27 C 1.699149 2.748623 0.325748 0
M  V30 28 Cl 3.306677 2.950448 1.006396 0
M  V30 29 C 3.497528 -2.367061 1.079225 0
M  V30 30 O 3.113216 -1.636771 0.205359 0
M  V30 31 N 4.045833 -3.359940 1.703922 0
M  V30 32 C 4.285491 -3.860042 2.872085 0
M  V30 33 N 4.930751 -5.019511 3.081511 0
M  V30 34 H 7.299033 -7.744024 3.630617 0
M  V30 35 H 6.720249 -8.075946 5.338684 0
M  V30 36 H 5.792310 -8.605306 3.940623 0
M  V30 37 H 3.587895 -2.924481 6.029004 0
M  V30 38 H 2.772886 -1.380286 4.476531 0
M  V30 39 H 1.960780 0.119483 0.486022 0
M  V30 40 H -0.820781 0.457105 0.216201 0
M  V30 41 H -2.400717 0.385003 -1.135122 0
M  V30 42 H -3.680048 -0.344184 -2.867883 0
M  V30 43 H -4.282195 -0.521111 -1.198311 0
M  V30 44 H -6.036375 0.719327 -0.175565 0
M  V30 45 H -8.179592 1.738481 -0.500426 0
M  V30 46 H -8.851398 2.562769 -2.703117 0
M  V30 47 H -7.206104 2.283310 -4.629876 0
M  V30 48 H -5.006287 1.236901 -4.317941 0
M  V30 49 H -0.598883 4.246946 -1.522588 0
M  V30 50 H 1.584670 4.602554 -0.633835 0
M  V30 51 H 4.389204 -3.874071 0.801491 0
M  V30 END ATOM
M  V30 BEGIN BOND
M  V30 1 1 1 2
M  V30 2 1 2 3
M  V30 3 2 3 4
M  V30 4 1 4 5
M  V30 5 2 5 6
M  V30 6 1 6 7
M  V30 7 2 7 8
M  V30 8 1 8 9
M  V30 9 2 9 10
M  V30 10 1 9 11
M  V30 11 1 11 12
M  V30 12 2 12 13
M  V30 13 1 13 14
M  V30 14 1 14 15
M  V30 15 2 15 16
M  V30 16 1 15 17
M  V30 17 1 17 18
M  V30 18 1 18 19
M  V30 19 2 19 20
M  V30 20 1 20 21
M  V30 21 2 21 22
M  V30 22 1 22 23
M  V30 23 2 23 24
M  V30 24 2 14 25
M  V30 25 1 25 26
M  V30 26 2 26 27
M  V30 27 1 27 28
M  V30 28 1 8 29
M  V30 29 2 29 30
M  V30 30 1 29 31
M  V30 31 1 31 32
M  V30 32 2 32 33
M  V30 33 1 33 3
M  V30 34 1 32 6
M  V30 35 1 27 12
M  V30 36 1 24 19
M  V30 37 1 1 34
M  V30 38 1 1 35
M  V30 39 1 1 36
M  V30 40 1 5 37
M  V30 41 1 7 38
M  V30 42 1 11 39
M  V30 43 1 13 40
M  V30 44 1 17 41
M  V30 45 1 18 42
M  V30 46 1 18 43
M  V30 47 1 20 44
M  V30 48 1 21 45
M  V30 49 1 22 46
M  V30 50 1 23 47
M  V30 51 1 24 48
M  V30 52 1 25 49
M  V30 53 1 26 50
M  V30 54 1 31 51
M  V30 END BOND
M  V30 END CTAB
M  END
>  <Dataset>  (678) 
ChEMBL_Kinases

>  <Ligand_Instance>  (678) 
nan

>  <PDB_ID>  (678) 
nan

>  <Standardized_SMILES>  (678) 
COc1ncc2cc(C(=O)Nc3cc(C(=O)NCc4ccccc4)ccc3Cl)c(=O)[nH]c2n1

>  <Name>  (678) 
nan

>  <Pocket>  (678) 
nan

>  <ATP_Site>  (678) 
nan

>  <Peripheral>  (678) 
nan

>  <Num_H_Atoms_ProtBoundConf>  (678) 
nan

>  <Num_Resolved_Atoms>  (678) 
nan

>  <Num_Not_Resolved_Atoms>  (678) 
nan

$$$$
CHEMBL3094448
     RDKit          3D

  0  0  0  0  0  0  0  0  0  0999 V3000
M  V30 BEGIN CTAB
M  V30 COUNTS 51 54 0 0 0
M  V30 BEGIN ATOM
M  V30 1 C -8.862651 -4.854307 -0.474494 0
M  V30 2 O -8.307046 -3.823874 0.282065 0
M  V30 3 C -7.183134 -3.101163 -0.098107 0
M  V30 4 N -6.503062 -3.330822 -1.264132 0
M  V30 5 C -5.418250 -2.613600 -1.604048 0
M  V30 6 C -4.983959 -1.621546 -0.751885 0
M  V30 7 C -3.868215 -0.903969 -1.132264 0
M  V30 8 C -3.494767 0.070422 -0.232761 0
M  V30 9 C -2.293024 0.850711 -0.651829 0
M  V30 10 O -1.719478 0.545994 -1.777617 0
M  V30 11 N -1.482188 1.953070 -0.148431 0
M  V30 12 C -0.579689 1.938870 -1.277620 0
M  V30 13 C 0.531311 1.141977 -1.117088 0
M  V30 14 C 1.469426 1.100322 -2.161737 0
M  V30 15 C 2.693192 0.340910 -2.186508 0
M  V30 16 O 3.406424 0.350851 -3.240925 0
M  V30 17 N 3.182350 -0.435028 -1.109826 0
M  V30 18 C 4.389287 -1.199764 -1.100972 0
M  V30 19 C 5.609411 -0.406474 -0.944478 0
M  V30 20 C 5.983497 -0.200782 0.387296 0
M  V30 21 C 7.100144 0.514497 0.747891 0
M  V30 22 C 7.868617 1.042173 -0.264311 0
M  V30 23 C 7.551033 0.873370 -1.592658 0
M  V30 24 Cl 8.524659 1.544194 -2.902665 0
M  V30 25 C 6.414047 0.143501 -1.918880 0
M  V30 26 C 1.129834 1.892729 -3.240110 0
M  V30 27 C 0.020345 2.687627 -3.402802 0
M  V30 28 C -0.879285 2.704376 -2.355323 0
M  V30 29 Cl -2.306224 3.673286 -2.467897 0
M  V30 30 C -4.185586 0.286624 0.926925 0
M  V30 31 O -3.837911 1.169750 1.729414 0
M  V30 32 N -5.268663 -0.425131 1.274936 0
M  V30 33 C -5.662361 -1.383824 0.422690 0
M  V30 34 N -6.749304 -2.122531 0.736013 0
M  V30 35 H -8.390462 -4.966675 -1.475055 0
M  V30 36 H -9.953594 -4.622514 -0.630907 0
M  V30 37 H -8.716919 -5.824319 0.048120 0
M  V30 38 H -4.972077 -2.883657 -2.538766 0
M  V30 39 H -3.383271 -1.141579 -2.068252 0
M  V30 40 H -2.083082 2.025620 0.688936 0
M  V30 41 H 0.764772 0.533070 -0.255188 0
M  V30 42 H 2.564762 -0.411089 -0.262196 0
M  V30 43 H 4.474930 -1.808074 -2.045511 0
M  V30 44 H 4.288993 -1.989043 -0.303760 0
M  V30 45 H 5.423950 -0.590586 1.238845 0
M  V30 46 H 7.476917 0.733777 1.718258 0
M  V30 47 H 8.772048 1.624890 -0.093741 0
M  V30 48 H 6.094241 -0.036666 -2.934420 0
M  V30 49 H 1.821892 1.907409 -4.083711 0
M  V30 50 H -0.145414 3.265011 -4.286038 0
M  V30 51 H -5.779055 -0.245608 2.161285 0
M  V30 END ATOM
M  V30 BEGIN BOND
M  V30 1 1 1 2
M  V30 2 1 2 3
M  V30 3 2 3 4
M  V30 4 1 4 5
M  V30 5 2 5 6
M  V30 6 1 6 7
M  V30 7 2 7 8
M  V30 8 1 8 9
M  V30 9 2 9 10
M  V30 10 1 9 11
M  V30 11 1 11 12
M  V30 12 2 12 13
M  V30 13 1 13 14
M  V30 14 1 14 15
M  V30 15 2 15 16
M  V30 16 1 15 17
M  V30 17 1 17 18
M  V30 18 1 18 19
M  V30 19 2 19 20
M  V30 20 1 20 21
M  V30 21 2 21 22
M  V30 22 1 22 23
M  V30 23 1 23 24
M  V30 24 2 23 25
M  V30 25 2 14 26
M  V30 26 1 26 27
M  V30 27 2 27 28
M  V30 28 1 28 29
M  V30 29 1 8 30
M  V30 30 2 30 31
M  V30 31 1 30 32
M  V30 32 1 32 33
M  V30 33 2 33 34
M  V30 34 1 34 3
M  V30 35 1 33 6
M  V30 36 1 28 12
M  V30 37 1 25 19
M  V30 38 1 1 35
M  V30 39 1 1 36
M  V30 40 1 1 37
M  V30 41 1 5 38
M  V30 42 1 7 39
M  V30 43 1 11 40
M  V30 44 1 13 41
M  V30 45 1 17 42
M  V30 46 1 18 43
M  V30 47 1 18 44
M  V30 48 1 20 45
M  V30 49 1 21 46
M  V30 50 1 22 47
M  V30 51 1 25 48
M  V30 52 1 26 49
M  V30 53 1 27 50
M  V30 54 1 32 51
M  V30 END BOND
M  V30 END CTAB
M  END
>  <Dataset>  (679) 
ChEMBL_Kinases

>  <Ligand_Instance>  (679) 
nan

>  <PDB_ID>  (679) 
nan

>  <Standardized_SMILES>  (679) 
COc1ncc2cc(C(=O)Nc3cc(C(=O)NCc4cccc(Cl)c4)ccc3Cl)c(=O)[nH]c2n1

>  <Name>  (679) 
nan

>  <Pocket>  (679) 
nan

>  <ATP_Site>  (679) 
nan

>  <Peripheral>  (679) 
nan

>  <Num_H_Atoms_ProtBoundConf>  (679) 
nan

>  <Num_Resolved_Atoms>  (679) 
nan

>  <Num_Not_Resolved_Atoms>  (679) 
nan

$$$$
CHEMBL3094449
     RDKit          3D

  0  0  0  0  0  0  0  0  0  0999 V3000
M  V30 BEGIN CTAB
M  V30 COUNTS 54 57 0 0 0
M  V30 BEGIN ATOM
M  V30 1 C 4.668527 -7.391110 3.072954 0
M  V30 2 O 4.548898 -6.892952 1.743409 0
M  V30 3 C 4.053440 -5.633317 1.476927 0
M  V30 4 N 3.648000 -4.777985 2.406298 0
M  V30 5 C 3.164645 -3.558145 2.192712 0
M  V30 6 C 3.053763 -3.086956 0.876299 0
M  V30 7 C 2.566970 -1.839133 0.372162 0
M  V30 8 C 2.466915 -1.397212 -1.075418 0
M  V30 9 C 1.936427 -0.145318 -0.823419 0
M  V30 10 O 1.883400 0.267795 -2.043954 0
M  V30 11 N 1.482055 0.771508 0.023996 0
M  V30 12 C 0.974205 1.924109 0.525199 0
M  V30 13 C -0.383477 2.152087 0.618229 0
M  V30 14 C -0.973322 3.314507 1.116669 0
M  V30 15 C -2.438038 3.469328 1.167433 0
M  V30 16 O -2.942781 4.603843 1.272082 0
M  V30 17 N -3.254729 2.321742 1.090898 0
M  V30 18 C -4.675174 2.259349 1.079593 0
M  V30 19 C -5.167544 0.846751 1.048223 0
M  V30 20 C -4.641175 0.058213 -0.113925 0
M  V30 21 C -5.141096 0.025732 -1.388095 0
M  V30 22 C -4.541527 -0.777682 -2.346917 0
M  V30 23 C -3.453298 -1.563372 -2.102871 0
M  V30 24 C -2.951712 -1.528747 -0.824534 0
M  V30 25 Cl -1.537555 -2.533901 -0.507723 0
M  V30 26 C -3.517087 -0.740055 0.176429 0
M  V30 27 C -0.042949 4.232736 1.517239 0
M  V30 28 C 1.317246 4.121011 1.475013 0
M  V30 29 C 1.817071 2.966241 0.977845 0
M  V30 30 Cl 3.562728 2.726544 0.877524 0
M  V30 31 C 2.922749 -2.475370 -1.281502 0
M  V30 32 O 2.824663 -2.074390 -2.603761 0
M  V30 33 N 3.420539 -3.656936 -1.475595 0
M  V30 34 C 3.492711 -4.010570 -0.133294 0
M  V30 35 N 3.977971 -5.252101 0.190082 0
M  V30 36 H 5.463091 -6.822171 3.617266 0
M  V30 37 H 3.744067 -7.252787 3.658526 0
M  V30 38 H 4.955528 -8.457083 3.060178 0
M  V30 39 H 2.826037 -2.819750 2.875463 0
M  V30 40 H 2.310908 -1.347991 1.384791 0
M  V30 41 H 1.540063 0.311981 0.985332 0
M  V30 42 H -0.984207 1.314973 0.236575 0
M  V30 43 H -2.745283 1.424026 1.048597 0
M  V30 44 H -5.172588 2.782362 1.948894 0
M  V30 45 H -5.130574 2.763501 0.192055 0
M  V30 46 H -4.930518 0.304602 1.984548 0
M  V30 47 H -6.300710 0.823898 0.991720 0
M  V30 48 H -6.013785 0.659013 -1.577551 0
M  V30 49 H -4.993889 -0.762871 -3.352150 0
M  V30 50 H -2.992759 -2.185330 -2.863396 0
M  V30 51 H -2.992812 -0.854386 1.140393 0
M  V30 52 H -0.452472 5.148654 1.916428 0
M  V30 53 H 1.941189 4.943762 1.833753 0
M  V30 54 H 3.698214 -4.224103 -2.248931 0
M  V30 END ATOM
M  V30 BEGIN BOND
M  V30 1 1 1 2
M  V30 2 1 2 3
M  V30 3 2 3 4
M  V30 4 1 4 5
M  V30 5 2 5 6
M  V30 6 1 6 7
M  V30 7 2 7 8
M  V30 8 1 8 9
M  V30 9 2 9 10
M  V30 10 1 9 11
M  V30 11 1 11 12
M  V30 12 2 12 13
M  V30 13 1 13 14
M  V30 14 1 14 15
M  V30 15 2 15 16
M  V30 16 1 15 17
M  V30 17 1 17 18
M  V30 18 1 18 19
M  V30 19 1 19 20
M  V30 20 2 20 21
M  V30 21 1 21 22
M  V30 22 2 22 23
M  V30 23 1 23 24
M  V30 24 1 24 25
M  V30 25 2 24 26
M  V30 26 2 14 27
M  V30 27 1 27 28
M  V30 28 2 28 29
M  V30 29 1 29 30
M  V30 30 1 8 31
M  V30 31 2 31 32
M  V30 32 1 31 33
M  V30 33 1 33 34
M  V30 34 2 34 35
M  V30 35 1 35 3
M  V30 36 1 34 6
M  V30 37 1 29 12
M  V30 38 1 26 20
M  V30 39 1 1 36
M  V30 40 1 1 37
M  V30 41 1 1 38
M  V30 42 1 5 39
M  V30 43 1 7 40
M  V30 44 1 11 41
M  V30 45 1 13 42
M  V30 46 1 17 43
M  V30 47 1 18 44
M  V30 48 1 18 45
M  V30 49 1 19 46
M  V30 50 1 19 47
M  V30 51 1 21 48
M  V30 52 1 22 49
M  V30 53 1 23 50
M  V30 54 1 26 51
M  V30 55 1 27 52
M  V30 56 1 28 53
M  V30 57 1 33 54
M  V30 END BOND
M  V30 END CTAB
M  END
>  <Dataset>  (680) 
ChEMBL_Kinases

>  <Ligand_Instance>  (680) 
nan

>  <PDB_ID>  (680) 
nan

>  <Standardized_SMILES>  (680) 
COc1ncc2cc(C(=O)Nc3cc(C(=O)NCCc4cccc(Cl)c4)ccc3Cl)c(=O)[nH]c2n1

>  <Name>  (680) 
nan

>  <Pocket>  (680) 
nan

>  <ATP_Site>  (680) 
nan

>  <Peripheral>  (680) 
nan

>  <Num_H_Atoms_ProtBoundConf>  (680) 
nan

>  <Num_Resolved_Atoms>  (680) 
nan

>  <Num_Not_Resolved_Atoms>  (680) 
nan

$$$$
CHEMBL3680601
     RDKit          3D

  0  0  0  0  0  0  0  0  0  0999 V3000
M  V30 BEGIN CTAB
M  V30 COUNTS 52 55 0 0 0
M  V30 BEGIN ATOM
M  V30 1 C -3.692905 2.240697 1.143746 0
M  V30 2 C -2.470441 1.388596 0.786898 0
M  V30 3 N -1.383494 1.453075 1.656190 0
M  V30 4 C -0.317873 1.483638 2.632025 0
M  V30 5 N -0.301880 1.153826 3.931610 0
M  V30 6 C 0.818488 1.275066 4.640683 0
M  V30 7 N 1.932111 1.723870 4.068357 0
M  V30 8 C 1.987214 2.067822 2.788418 0
M  V30 9 C 3.183088 2.515833 2.299382 0
M  V30 10 C 4.391890 2.633061 3.117625 0
M  V30 11 N 4.283240 2.251256 4.474997 0
M  V30 12 O 5.499293 3.045640 2.691334 0
M  V30 13 C 3.305356 2.883858 0.987843 0
M  V30 14 C 2.181316 2.784016 0.190628 0
M  V30 15 C 1.012830 2.334188 0.716625 0
M  V30 16 C 0.837848 1.948435 2.041447 0
M  V30 17 C -2.898717 0.030768 0.334817 0
M  V30 18 C -4.219303 -0.365601 0.309809 0
M  V30 19 C -4.495679 -1.642104 -0.129882 0
M  V30 20 C -3.451634 -2.448711 -0.517504 0
M  V30 21 C -2.127830 -2.089064 -0.506136 0
M  V30 22 N -1.032688 -2.894952 -0.901688 0
M  V30 23 C -1.012097 -4.199849 -1.393606 0
M  V30 24 O -2.095383 -4.817739 -1.534019 0
M  V30 25 C 0.180266 -4.944309 -1.774713 0
M  V30 26 C 0.053733 -6.230603 -2.255344 0
M  V30 27 C 1.158509 -7.000849 -2.639136 0
M  V30 28 C 2.423022 -6.459013 -2.535114 0
M  V30 29 O 3.454378 -7.105866 -2.866181 0
M  V30 30 N 2.543731 -5.201663 -2.064893 0
M  V30 31 C 1.477826 -4.482035 -1.703561 0
M  V30 32 C -1.879450 -0.811747 -0.063761 0
M  V30 33 H -4.314389 1.785082 1.928017 0
M  V30 34 H -4.310968 2.388498 0.252494 0
M  V30 35 H -3.377563 3.229105 1.519053 0
M  V30 36 H -2.122675 1.870553 -0.200276 0
M  V30 37 H -2.121640 1.049162 2.320082 0
M  V30 38 H 0.709016 0.979574 5.676294 0
M  V30 39 H 4.579343 2.943822 5.220703 0
M  V30 40 H 4.165863 1.878613 5.435403 0
M  V30 41 H 4.259139 3.228241 0.645689 0
M  V30 42 H 2.251966 3.067367 -0.845101 0
M  V30 43 H 0.166299 2.269723 0.070442 0
M  V30 44 H -4.987682 0.324738 0.630454 0
M  V30 45 H -5.523770 -1.975188 -0.158686 0
M  V30 46 H -3.738553 -3.419957 -0.844777 0
M  V30 47 H -0.067081 -2.506847 -0.837366 0
M  V30 48 H -0.909578 -6.745315 -2.373693 0
M  V30 49 H 1.057490 -8.010641 -3.015917 0
M  V30 50 H 3.514656 -4.824067 -1.999947 0
M  V30 51 H 1.635820 -3.481314 -1.333991 0
M  V30 52 H -0.846119 -0.467230 -0.032082 0
M  V30 END ATOM
M  V30 BEGIN BOND
M  V30 1 1 1 2
M  V30 2 1 2 3
M  V30 3 1 3 4
M  V30 4 2 4 5
M  V30 5 1 5 6
M  V30 6 2 6 7
M  V30 7 1 7 8
M  V30 8 2 8 9
M  V30 9 1 9 10
M  V30 10 1 10 11
M  V30 11 2 10 12
M  V30 12 1 9 13
M  V30 13 2 13 14
M  V30 14 1 14 15
M  V30 15 2 15 16
M  V30 16 1 2 17
M  V30 17 2 17 18
M  V30 18 1 18 19
M  V30 19 2 19 20
M  V30 20 1 20 21
M  V30 21 1 21 22
M  V30 22 1 22 23
M  V30 23 2 23 24
M  V30 24 1 23 25
M  V30 25 1 25 26
M  V30 26 2 26 27
M  V30 27 1 27 28
M  V30 28 2 28 29
M  V30 29 1 28 30
M  V30 30 1 30 31
M  V30 31 2 21 32
M  V30 32 1 16 4
M  V30 33 1 32 17
M  V30 34 1 16 8
M  V30 35 2 31 25
M  V30 36 1 1 33
M  V30 37 1 1 34
M  V30 38 1 1 35
M  V30 39 1 2 36
M  V30 40 1 3 37
M  V30 41 1 6 38
M  V30 42 1 11 39
M  V30 43 1 11 40
M  V30 44 1 13 41
M  V30 45 1 14 42
M  V30 46 1 15 43
M  V30 47 1 18 44
M  V30 48 1 19 45
M  V30 49 1 20 46
M  V30 50 1 22 47
M  V30 51 1 26 48
M  V30 52 1 27 49
M  V30 53 1 30 50
M  V30 54 1 31 51
M  V30 55 1 32 52
M  V30 END BOND
M  V30 END CTAB
M  END
>  <Dataset>  (681) 
ChEMBL_Kinases

>  <Ligand_Instance>  (681) 
nan

>  <PDB_ID>  (681) 
nan

>  <Standardized_SMILES>  (681) 
CC(Nc1ncnc2c(C(N)=O)cccc12)c1cccc(NC(=O)c2ccc(=O)[nH]c2)c1

>  <Name>  (681) 
nan

>  <Pocket>  (681) 
nan

>  <ATP_Site>  (681) 
nan

>  <Peripheral>  (681) 
nan

>  <Num_H_Atoms_ProtBoundConf>  (681) 
nan

>  <Num_Resolved_Atoms>  (681) 
nan

>  <Num_Not_Resolved_Atoms>  (681) 
nan

$$$$
CHEMBL3094450
     RDKit          3D

  0  0  0  0  0  0  0  0  0  0999 V3000
M  V30 BEGIN CTAB
M  V30 COUNTS 54 57 0 0 0
M  V30 BEGIN ATOM
M  V30 1 C 6.928737 -5.068589 3.116398 0
M  V30 2 O 6.574735 -4.954231 1.771071 0
M  V30 3 C 5.698195 -4.011187 1.292056 0
M  V30 4 N 5.115979 -3.124554 2.101946 0
M  V30 5 C 4.257137 -2.172481 1.765171 0
M  V30 6 C 3.901032 -2.061048 0.411019 0
M  V30 7 C 3.005270 -1.143000 -0.245294 0
M  V30 8 C 2.660546 -1.076244 -1.717235 0
M  V30 9 C 1.828816 -0.039567 -1.532563 0
M  V30 10 O 1.595721 -0.076679 -2.791464 0
M  V30 11 N 1.089108 0.947276 -1.102154 0
M  V30 12 C 0.307688 1.971834 -0.716977 0
M  V30 13 C -0.989432 1.572425 -0.369338 0
M  V30 14 C -2.021505 2.430497 0.014731 0
M  V30 15 C -3.330290 1.909840 0.346208 0
M  V30 16 O -3.919848 2.316179 -0.686136 0
M  V30 17 N -3.639485 1.192194 1.518561 0
M  V30 18 C -2.719543 0.848069 2.612153 0
M  V30 19 C -5.000151 0.702621 1.695323 0
M  V30 20 C -5.123191 -0.672460 1.111920 0
M  V30 21 C -4.889052 -1.808957 1.871469 0
M  V30 22 C -5.023475 -3.042300 1.276361 0
M  V30 23 C -5.386138 -3.194919 -0.064024 0
M  V30 24 C -5.602158 -2.017522 -0.754662 0
M  V30 25 Cl -6.061599 -2.168793 -2.449906 0
M  V30 26 C -5.485936 -0.730891 -0.218806 0
M  V30 27 C -1.594802 3.740965 0.010487 0
M  V30 28 C -0.347233 4.218375 -0.311824 0
M  V30 29 C 0.610699 3.309074 -0.681197 0
M  V30 30 Cl 2.232258 3.771093 -1.115985 0
M  V30 31 C 3.399100 -1.993074 -1.866021 0
M  V30 32 O 3.087481 -1.927140 -3.188047 0
M  V30 33 N 4.257831 -3.012604 -1.839427 0
M  V30 34 C 4.502869 -2.987227 -0.472330 0
M  V30 35 N 5.380067 -3.932291 -0.009842 0
M  V30 36 H 7.618815 -4.245503 3.464066 0
M  V30 37 H 6.006396 -4.954693 3.735597 0
M  V30 38 H 7.406441 -6.060822 3.265326 0
M  V30 39 H 3.751246 -1.432020 2.340834 0
M  V30 40 H 2.683418 -0.539344 0.691920 0
M  V30 41 H 1.460595 0.821149 -0.081379 0
M  V30 42 H -1.294965 0.501062 -0.372998 0
M  V30 43 H -1.883034 1.563309 2.660338 0
M  V30 44 H -2.401560 -0.212177 2.579522 0
M  V30 45 H -3.295328 0.926552 3.579108 0
M  V30 46 H -5.254351 0.641779 2.770026 0
M  V30 47 H -5.721668 1.385362 1.226214 0
M  V30 48 H -4.609514 -1.730178 2.914520 0
M  V30 49 H -4.862933 -3.983919 1.797174 0
M  V30 50 H -5.504679 -4.154316 -0.558706 0
M  V30 51 H -5.681536 0.098023 -0.857396 0
M  V30 52 H -2.324385 4.479866 0.299348 0
M  V30 53 H -0.125200 5.273434 -0.279283 0
M  V30 54 H 4.623772 -3.615701 -2.547171 0
M  V30 END ATOM
M  V30 BEGIN BOND
M  V30 1 1 1 2
M  V30 2 1 2 3
M  V30 3 2 3 4
M  V30 4 1 4 5
M  V30 5 2 5 6
M  V30 6 1 6 7
M  V30 7 2 7 8
M  V30 8 1 8 9
M  V30 9 2 9 10
M  V30 10 1 9 11
M  V30 11 1 11 12
M  V30 12 2 12 13
M  V30 13 1 13 14
M  V30 14 1 14 15
M  V30 15 2 15 16
M  V30 16 1 15 17
M  V30 17 1 17 18
M  V30 18 1 17 19
M  V30 19 1 19 20
M  V30 20 2 20 21
M  V30 21 1 21 22
M  V30 22 2 22 23
M  V30 23 1 23 24
M  V30 24 1 24 25
M  V30 25 2 24 26
M  V30 26 2 14 27
M  V30 27 1 27 28
M  V30 28 2 28 29
M  V30 29 1 29 30
M  V30 30 1 8 31
M  V30 31 2 31 32
M  V30 32 1 31 33
M  V30 33 1 33 34
M  V30 34 2 34 35
M  V30 35 1 35 3
M  V30 36 1 34 6
M  V30 37 1 29 12
M  V30 38 1 26 20
M  V30 39 1 1 36
M  V30 40 1 1 37
M  V30 41 1 1 38
M  V30 42 1 5 39
M  V30 43 1 7 40
M  V30 44 1 11 41
M  V30 45 1 13 42
M  V30 46 1 18 43
M  V30 47 1 18 44
M  V30 48 1 18 45
M  V30 49 1 19 46
M  V30 50 1 19 47
M  V30 51 1 21 48
M  V30 52 1 22 49
M  V30 53 1 23 50
M  V30 54 1 26 51
M  V30 55 1 27 52
M  V30 56 1 28 53
M  V30 57 1 33 54
M  V30 END BOND
M  V30 END CTAB
M  END
>  <Dataset>  (682) 
ChEMBL_Kinases

>  <Ligand_Instance>  (682) 
nan

>  <PDB_ID>  (682) 
nan

>  <Standardized_SMILES>  (682) 
COc1ncc2cc(C(=O)Nc3cc(C(=O)N(C)Cc4cccc(Cl)c4)ccc3Cl)c(=O)[nH]c2n1

>  <Name>  (682) 
nan

>  <Pocket>  (682) 
nan

>  <ATP_Site>  (682) 
nan

>  <Peripheral>  (682) 
nan

>  <Num_H_Atoms_ProtBoundConf>  (682) 
nan

>  <Num_Resolved_Atoms>  (682) 
nan

>  <Num_Not_Resolved_Atoms>  (682) 
nan

$$$$
CHEMBL3094451
     RDKit          3D

  0  0  0  0  0  0  0  0  0  0999 V3000
M  V30 BEGIN CTAB
M  V30 COUNTS 48 51 0 0 0
M  V30 BEGIN ATOM
M  V30 1 C 4.385256 -7.589239 2.031511 0
M  V30 2 O 4.157560 -7.011160 0.766659 0
M  V30 3 C 3.653135 -5.775183 0.542494 0
M  V30 4 N 3.299771 -4.923300 1.499487 0
M  V30 5 C 2.804311 -3.714416 1.298777 0
M  V30 6 C 2.611656 -3.234487 -0.004476 0
M  V30 7 C 2.083728 -1.967652 -0.437835 0
M  V30 8 C 1.882029 -1.489788 -1.870568 0
M  V30 9 C 1.372807 -0.258522 -1.563730 0
M  V30 10 O 1.222319 -0.189728 -2.802920 0
M  V30 11 N 1.112291 0.581936 -0.515368 0
M  V30 12 C 0.547969 1.865573 -0.693430 0
M  V30 13 C -0.417406 2.173491 0.276020 0
M  V30 14 C -1.048984 3.410347 0.293954 0
M  V30 15 C -2.065022 3.751864 1.282427 0
M  V30 16 O -2.386133 4.979501 1.475118 0
M  V30 17 N -2.777076 2.850854 2.094533 0
M  V30 18 C -3.777558 3.229653 3.080054 0
M  V30 19 C -4.311331 1.900543 3.581490 0
M  V30 20 C -5.416186 1.315561 2.985299 0
M  V30 21 C -5.850863 0.108924 3.451734 0
M  V30 22 C -5.123932 -0.449924 4.522109 0
M  V30 23 S -3.814005 0.765269 4.856916 0
M  V30 24 C -0.713624 4.343962 -0.663792 0
M  V30 25 C 0.227840 4.071280 -1.627820 0
M  V30 26 C 0.810098 2.844232 -1.591863 0
M  V30 27 Cl 2.022262 2.480097 -2.796887 0
M  V30 28 C 2.353728 -2.622409 -2.117665 0
M  V30 29 O 2.190008 -2.235042 -3.452823 0
M  V30 30 N 2.853986 -3.823618 -2.407653 0
M  V30 31 C 2.983537 -4.131434 -1.039770 0
M  V30 32 N 3.487836 -5.362033 -0.716805 0
M  V30 33 H 4.629166 -8.662987 1.886129 0
M  V30 34 H 3.472238 -7.561052 2.672608 0
M  V30 35 H 5.222007 -7.117115 2.572170 0
M  V30 36 H 2.502668 -2.981727 2.023924 0
M  V30 37 H 1.887435 -1.503077 0.582968 0
M  V30 38 H 1.352943 0.241814 0.422653 0
M  V30 39 H -0.715024 1.477005 1.047842 0
M  V30 40 H -2.493099 1.851278 1.894450 0
M  V30 41 H -4.616092 3.789256 2.684955 0
M  V30 42 H -3.297038 3.769504 3.932398 0
M  V30 43 H -5.973397 1.773006 2.147029 0
M  V30 44 H -6.692287 -0.465812 3.090002 0
M  V30 45 H -5.292611 -1.384776 5.035825 0
M  V30 46 H -1.190800 5.316700 -0.672489 0
M  V30 47 H 0.498427 4.786951 -2.377746 0
M  V30 48 H 3.089481 -4.391332 -3.183170 0
M  V30 END ATOM
M  V30 BEGIN BOND
M  V30 1 1 1 2
M  V30 2 1 2 3
M  V30 3 2 3 4
M  V30 4 1 4 5
M  V30 5 2 5 6
M  V30 6 1 6 7
M  V30 7 2 7 8
M  V30 8 1 8 9
M  V30 9 2 9 10
M  V30 10 1 9 11
M  V30 11 1 11 12
M  V30 12 2 12 13
M  V30 13 1 13 14
M  V30 14 1 14 15
M  V30 15 2 15 16
M  V30 16 1 15 17
M  V30 17 1 17 18
M  V30 18 1 18 19
M  V30 19 2 19 20
M  V30 20 1 20 21
M  V30 21 2 21 22
M  V30 22 1 22 23
M  V30 23 2 14 24
M  V30 24 1 24 25
M  V30 25 2 25 26
M  V30 26 1 26 27
M  V30 27 1 8 28
M  V30 28 2 28 29
M  V30 29 1 28 30
M  V30 30 1 30 31
M  V30 31 2 31 32
M  V30 32 1 32 3
M  V30 33 1 31 6
M  V30 34 1 26 12
M  V30 35 1 23 19
M  V30 36 1 1 33
M  V30 37 1 1 34
M  V30 38 1 1 35
M  V30 39 1 5 36
M  V30 40 1 7 37
M  V30 41 1 11 38
M  V30 42 1 13 39
M  V30 43 1 17 40
M  V30 44 1 18 41
M  V30 45 1 18 42
M  V30 46 1 20 43
M  V30 47 1 21 44
M  V30 48 1 22 45
M  V30 49 1 24 46
M  V30 50 1 25 47
M  V30 51 1 30 48
M  V30 END BOND
M  V30 END CTAB
M  END
>  <Dataset>  (683) 
ChEMBL_Kinases

>  <Ligand_Instance>  (683) 
nan

>  <PDB_ID>  (683) 
nan

>  <Standardized_SMILES>  (683) 
COc1ncc2cc(C(=O)Nc3cc(C(=O)NCc4cccs4)ccc3Cl)c(=O)[nH]c2n1

>  <Name>  (683) 
nan

>  <Pocket>  (683) 
nan

>  <ATP_Site>  (683) 
nan

>  <Peripheral>  (683) 
nan

>  <Num_H_Atoms_ProtBoundConf>  (683) 
nan

>  <Num_Resolved_Atoms>  (683) 
nan

>  <Num_Not_Resolved_Atoms>  (683) 
nan

$$$$
CHEMBL3680600
     RDKit          3D

  0  0  0  0  0  0  0  0  0  0999 V3000
M  V30 BEGIN CTAB
M  V30 COUNTS 54 56 0 0 0
M  V30 BEGIN ATOM
M  V30 1 C 3.321247 0.238075 5.052747 0
M  V30 2 C 3.722034 -0.622064 3.820528 0
M  V30 3 C 5.179735 -0.419127 3.617305 0
M  V30 4 C 5.786788 -1.146724 2.484228 0
M  V30 5 F 5.242348 -0.777943 1.290408 0
M  V30 6 F 7.179087 -0.961916 2.467747 0
M  V30 7 F 5.607830 -2.518571 2.722032 0
M  V30 8 C 2.826150 -0.141203 2.754999 0
M  V30 9 O 2.446877 0.931183 3.352105 0
M  V30 10 N 2.304152 -0.408303 1.478581 0
M  V30 11 C 1.397619 0.543634 0.931564 0
M  V30 12 C 1.940611 1.568905 0.178712 0
M  V30 13 C 1.053811 2.486541 -0.347459 0
M  V30 14 C -0.307330 2.397350 -0.140624 0
M  V30 15 C -0.852667 1.360744 0.620178 0
M  V30 16 C -2.269741 1.154330 0.912436 0 CFG=1
M  V30 17 C -3.132481 2.137812 0.115565 0
M  V30 18 N -2.746515 -0.203137 0.763360 0
M  V30 19 C -2.623211 -0.790481 -0.528697 0
M  V30 20 N -2.090492 -0.119624 -1.562801 0
M  V30 21 C -1.936477 -0.584814 -2.796999 0
M  V30 22 N -2.326672 -1.832809 -3.112987 0
M  V30 23 C -2.877497 -2.592058 -2.136713 0
M  V30 24 C -3.307872 -3.880823 -2.360294 0
M  V30 25 C -3.178937 -4.481125 -3.692683 0
M  V30 26 N -2.604541 -3.736204 -4.779241 0
M  V30 27 O -3.540556 -5.638312 -3.984654 0
M  V30 28 C -3.874465 -4.688329 -1.393279 0
M  V30 29 C -4.008308 -4.148685 -0.128723 0
M  V30 30 C -3.581328 -2.859527 0.108131 0
M  V30 31 C -3.018264 -2.068057 -0.868493 0
M  V30 32 C 0.034706 0.465914 1.130815 0
M  V30 33 H 3.785440 -0.169958 5.957740 0
M  V30 34 H 3.648196 1.264391 4.802261 0
M  V30 35 H 2.217929 0.247763 5.119825 0
M  V30 36 H 3.564135 -1.685732 4.099889 0
M  V30 37 H 5.673653 -0.817816 4.555498 0
M  V30 38 H 5.432120 0.670955 3.611399 0
M  V30 39 H 2.735372 -1.332694 1.223232 0
M  V30 40 H 2.993048 1.679285 -0.009326 0
M  V30 41 H 1.373325 3.338582 -0.958990 0
M  V30 42 H -1.026630 3.112554 -0.547635 0
M  V30 43 H -2.411647 1.464263 1.966331 0
M  V30 44 H -2.889441 3.160062 0.440753 0
M  V30 45 H -2.871936 2.042623 -0.936861 0
M  V30 46 H -4.195294 1.934121 0.228581 0
M  V30 47 H -3.152218 -0.684110 1.592086 0
M  V30 48 H -1.489263 0.087730 -3.510095 0
M  V30 49 H -2.986322 -3.183162 -5.595938 0
M  V30 50 H -1.614965 -3.934168 -4.476317 0
M  V30 51 H -4.205623 -5.706873 -1.603401 0
M  V30 52 H -4.457336 -4.791107 0.633945 0
M  V30 53 H -3.724364 -2.520989 1.121997 0
M  V30 54 H -0.272863 -0.363824 1.725930 0
M  V30 END ATOM
M  V30 BEGIN BOND
M  V30 1 1 1 2
M  V30 2 1 2 3
M  V30 3 1 3 4
M  V30 4 1 4 5
M  V30 5 1 4 6
M  V30 6 1 4 7
M  V30 7 1 2 8
M  V30 8 2 8 9
M  V30 9 1 8 10
M  V30 10 1 10 11
M  V30 11 2 11 12
M  V30 12 1 12 13
M  V30 13 2 13 14
M  V30 14 1 14 15
M  V30 15 1 15 16
M  V30 16 1 16 17
M  V30 17 1 16 18
M  V30 18 1 18 19
M  V30 19 2 19 20
M  V30 20 1 20 21
M  V30 21 2 21 22
M  V30 22 1 22 23
M  V30 23 2 23 24
M  V30 24 1 24 25
M  V30 25 1 25 26
M  V30 26 2 25 27
M  V30 27 1 24 28
M  V30 28 2 28 29
M  V30 29 1 29 30
M  V30 30 2 30 31
M  V30 31 2 15 32
M  V30 32 1 32 11
M  V30 33 1 31 19
M  V30 34 1 31 23
M  V30 35 1 1 33
M  V30 36 1 1 34
M  V30 37 1 1 35
M  V30 38 1 2 36
M  V30 39 1 3 37
M  V30 40 1 3 38
M  V30 41 1 10 39
M  V30 42 1 12 40
M  V30 43 1 13 41
M  V30 44 1 14 42
M  V30 45 1 16 43 CFG=1
M  V30 46 1 17 44
M  V30 47 1 17 45
M  V30 48 1 17 46
M  V30 49 1 18 47
M  V30 50 1 21 48
M  V30 51 1 26 49
M  V30 52 1 26 50
M  V30 53 1 28 51
M  V30 54 1 29 52
M  V30 55 1 30 53
M  V30 56 1 32 54
M  V30 END BOND
M  V30 END CTAB
M  END
>  <Dataset>  (684) 
ChEMBL_Kinases

>  <Ligand_Instance>  (684) 
nan

>  <PDB_ID>  (684) 
nan

>  <Standardized_SMILES>  (684) 
CC(CC(F)(F)F)C(=O)Nc1cccc([C@@H](C)Nc2ncnc3c(C(N)=O)cccc23)c1

>  <Name>  (684) 
nan

>  <Pocket>  (684) 
nan

>  <ATP_Site>  (684) 
nan

>  <Peripheral>  (684) 
nan

>  <Num_H_Atoms_ProtBoundConf>  (684) 
nan

>  <Num_Resolved_Atoms>  (684) 
nan

>  <Num_Not_Resolved_Atoms>  (684) 
nan

$$$$
CHEMBL3094452
     RDKit          3D

  0  0  0  0  0  0  0  0  0  0999 V3000
M  V30 BEGIN CTAB
M  V30 COUNTS 48 51 0 0 0
M  V30 BEGIN ATOM
M  V30 1 C 5.698963 -7.285647 2.281161 0
M  V30 2 O 5.670634 -6.548190 1.081244 0
M  V30 3 C 4.883088 -5.491013 0.803668 0
M  V30 4 N 3.995119 -4.963558 1.617197 0
M  V30 5 C 3.219218 -3.933247 1.359796 0
M  V30 6 C 3.272364 -3.263614 0.120537 0
M  V30 7 C 2.517050 -2.141008 -0.352677 0
M  V30 8 C 2.683558 -1.527693 -1.730565 0
M  V30 9 C 1.698929 -0.532472 -1.540027 0
M  V30 10 O 1.959457 -0.101978 -2.654688 0
M  V30 11 N 0.753962 0.017207 -0.740534 0
M  V30 12 C -0.075580 1.101706 -0.955339 0
M  V30 13 C -0.835154 1.365819 0.199919 0
M  V30 14 C -1.764335 2.365910 0.304168 0
M  V30 15 C -2.501544 2.550171 1.548988 0
M  V30 16 O -2.195892 1.916362 2.589374 0
M  V30 17 N -3.586848 3.416076 1.708028 0
M  V30 18 C -4.327970 3.608617 2.919706 0
M  V30 19 C -5.242813 2.499465 3.232791 0
M  V30 20 C -6.486367 2.031472 2.978414 0
M  V30 21 C -7.100729 0.927341 3.462240 0
M  V30 22 S -5.888265 0.219052 4.525767 0
M  V30 23 C -4.616982 1.538201 4.198945 0
M  V30 24 C -1.961506 3.158877 -0.797824 0
M  V30 25 C -1.275262 2.985660 -1.972404 0
M  V30 26 C -0.368481 1.951970 -1.960120 0
M  V30 27 Cl 0.480442 1.745186 -3.461567 0
M  V30 28 C 3.508730 -2.362583 -1.888926 0
M  V30 29 O 3.657477 -1.793820 -3.151982 0
M  V30 30 N 4.412245 -3.275534 -2.064422 0
M  V30 31 C 4.237864 -3.828634 -0.775852 0
M  V30 32 N 4.995475 -4.908575 -0.400808 0
M  V30 33 H 6.387330 -6.871257 3.037645 0
M  V30 34 H 4.694220 -7.354185 2.775158 0
M  V30 35 H 6.083019 -8.298976 2.051081 0
M  V30 36 H 2.484257 -3.475595 1.999872 0
M  V30 37 H 1.878658 -1.962820 0.579590 0
M  V30 38 H 0.767072 -0.565696 0.101611 0
M  V30 39 H -0.745341 0.787733 1.128242 0
M  V30 40 H -3.865402 3.965226 0.841794 0
M  V30 41 H -5.002611 4.512022 2.772138 0
M  V30 42 H -3.710803 3.913957 3.795577 0
M  V30 43 H -6.896533 2.764619 2.271631 0
M  V30 44 H -8.108531 0.688705 3.159074 0
M  V30 45 H -3.589843 1.334666 4.840489 0
M  V30 46 H -2.682192 3.965944 -0.778370 0
M  V30 47 H -1.435303 3.611430 -2.829907 0
M  V30 48 H 5.069183 -3.624511 -2.735105 0
M  V30 END ATOM
M  V30 BEGIN BOND
M  V30 1 1 1 2
M  V30 2 1 2 3
M  V30 3 2 3 4
M  V30 4 1 4 5
M  V30 5 2 5 6
M  V30 6 1 6 7
M  V30 7 2 7 8
M  V30 8 1 8 9
M  V30 9 2 9 10
M  V30 10 1 9 11
M  V30 11 1 11 12
M  V30 12 2 12 13
M  V30 13 1 13 14
M  V30 14 1 14 15
M  V30 15 2 15 16
M  V30 16 1 15 17
M  V30 17 1 17 18
M  V30 18 1 18 19
M  V30 19 1 19 20
M  V30 20 2 20 21
M  V30 21 1 21 22
M  V30 22 1 22 23
M  V30 23 2 14 24
M  V30 24 1 24 25
M  V30 25 2 25 26
M  V30 26 1 26 27
M  V30 27 1 8 28
M  V30 28 2 28 29
M  V30 29 1 28 30
M  V30 30 1 30 31
M  V30 31 2 31 32
M  V30 32 1 32 3
M  V30 33 1 31 6
M  V30 34 1 26 12
M  V30 35 2 23 19
M  V30 36 1 1 33
M  V30 37 1 1 34
M  V30 38 1 1 35
M  V30 39 1 5 36
M  V30 40 1 7 37
M  V30 41 1 11 38
M  V30 42 1 13 39
M  V30 43 1 17 40
M  V30 44 1 18 41
M  V30 45 1 18 42
M  V30 46 1 20 43
M  V30 47 1 21 44
M  V30 48 1 23 45
M  V30 49 1 24 46
M  V30 50 1 25 47
M  V30 51 1 30 48
M  V30 END BOND
M  V30 END CTAB
M  END
>  <Dataset>  (685) 
ChEMBL_Kinases

>  <Ligand_Instance>  (685) 
nan

>  <PDB_ID>  (685) 
nan

>  <Standardized_SMILES>  (685) 
COc1ncc2cc(C(=O)Nc3cc(C(=O)NCc4ccsc4)ccc3Cl)c(=O)[nH]c2n1

>  <Name>  (685) 
nan

>  <Pocket>  (685) 
nan

>  <ATP_Site>  (685) 
nan

>  <Peripheral>  (685) 
nan

>  <Num_H_Atoms_ProtBoundConf>  (685) 
nan

>  <Num_Resolved_Atoms>  (685) 
nan

>  <Num_Not_Resolved_Atoms>  (685) 
nan

$$$$
CHEMBL3094445
     RDKit          3D

  0  0  0  0  0  0  0  0  0  0999 V3000
M  V30 BEGIN CTAB
M  V30 COUNTS 41 43 0 0 0
M  V30 BEGIN ATOM
M  V30 1 C 5.021328 -5.541771 0.720119 0
M  V30 2 N 4.302884 -4.358711 0.254730 0
M  V30 3 C 5.038331 -3.244539 -0.238099 0
M  V30 4 O 6.296343 -3.276746 -0.273269 0
M  V30 5 C 4.395310 -2.024852 -0.721659 0
M  V30 6 C 5.207811 -1.006999 -1.176937 0
M  V30 7 C 4.599785 0.165474 -1.642214 0
M  V30 8 C 3.232314 0.365641 -1.673228 0
M  V30 9 Cl 2.532433 1.849620 -2.264772 0
M  V30 10 C 2.449111 -0.680393 -1.207338 0
M  V30 11 N 1.032862 -0.568638 -1.199717 0
M  V30 12 C 0.503784 -0.025483 -0.003101 0
M  V30 13 O 1.482964 0.229207 0.781911 0
M  V30 14 C -0.893041 0.220572 0.327845 0
M  V30 15 C -1.079469 0.770888 1.603508 0
M  V30 16 C -2.347560 1.059695 2.059303 0
M  V30 17 C -2.494128 1.602202 3.323531 0
M  V30 18 N -3.712276 1.900326 3.810498 0
M  V30 19 C -4.827444 1.669540 3.057629 0
M  V30 20 O -6.102389 1.946407 3.483581 0
M  V30 21 C -6.425378 2.496264 4.733009 0
M  V30 22 N -4.684091 1.136379 1.815072 0
M  V30 23 C -3.478756 0.834053 1.315774 0
M  V30 24 N -3.258032 0.307805 0.103660 0
M  V30 25 C -2.043725 0.012447 -0.377546 0
M  V30 26 O -1.851029 -0.479736 -1.513682 0
M  V30 27 C 3.028146 -1.839945 -0.746330 0
M  V30 28 H 6.056109 -5.528746 0.327356 0
M  V30 29 H 5.039312 -5.614790 1.819139 0
M  V30 30 H 4.514617 -6.446388 0.346157 0
M  V30 31 H 3.265717 -4.332761 0.284002 0
M  V30 32 H 6.308452 -1.057584 -1.198013 0
M  V30 33 H 5.254848 0.949932 -1.994196 0
M  V30 34 H 0.358850 -0.832698 -1.951457 0
M  V30 35 H -0.237779 0.990578 2.280034 0
M  V30 36 H -1.621409 1.801338 3.956844 0
M  V30 37 H -5.651270 2.368704 5.508143 0
M  V30 38 H -7.364126 2.025548 5.103783 0
M  V30 39 H -6.602628 3.577055 4.628126 0
M  V30 40 H -4.076414 0.111390 -0.513211 0
M  V30 41 H 2.382469 -2.626334 -0.393905 0
M  V30 END ATOM
M  V30 BEGIN BOND
M  V30 1 1 1 2
M  V30 2 1 2 3
M  V30 3 2 3 4
M  V30 4 1 3 5
M  V30 5 2 5 6
M  V30 6 1 6 7
M  V30 7 2 7 8
M  V30 8 1 8 9
M  V30 9 1 8 10
M  V30 10 1 10 11
M  V30 11 1 11 12
M  V30 12 2 12 13
M  V30 13 1 12 14
M  V30 14 2 14 15
M  V30 15 1 15 16
M  V30 16 2 16 17
M  V30 17 1 17 18
M  V30 18 2 18 19
M  V30 19 1 19 20
M  V30 20 1 20 21
M  V30 21 1 19 22
M  V30 22 2 22 23
M  V30 23 1 23 24
M  V30 24 1 24 25
M  V30 25 2 25 26
M  V30 26 2 10 27
M  V30 27 1 27 5
M  V30 28 1 25 14
M  V30 29 1 23 16
M  V30 30 1 1 28
M  V30 31 1 1 29
M  V30 32 1 1 30
M  V30 33 1 2 31
M  V30 34 1 6 32
M  V30 35 1 7 33
M  V30 36 1 11 34
M  V30 37 1 15 35
M  V30 38 1 17 36
M  V30 39 1 21 37
M  V30 40 1 21 38
M  V30 41 1 21 39
M  V30 42 1 24 40
M  V30 43 1 27 41
M  V30 END BOND
M  V30 END CTAB
M  END
>  <Dataset>  (686) 
ChEMBL_Kinases

>  <Ligand_Instance>  (686) 
nan

>  <PDB_ID>  (686) 
nan

>  <Standardized_SMILES>  (686) 
CNC(=O)c1ccc(Cl)c(NC(=O)c2cc3cnc(OC)nc3[nH]c2=O)c1

>  <Name>  (686) 
nan

>  <Pocket>  (686) 
nan

>  <ATP_Site>  (686) 
nan

>  <Peripheral>  (686) 
nan

>  <Num_H_Atoms_ProtBoundConf>  (686) 
nan

>  <Num_Resolved_Atoms>  (686) 
nan

>  <Num_Not_Resolved_Atoms>  (686) 
nan

$$$$
CHEMBL4282231
     RDKit          3D

  0  0  0  0  0  0  0  0  0  0999 V3000
M  V30 BEGIN CTAB
M  V30 COUNTS 49 53 0 0 0
M  V30 BEGIN ATOM
M  V30 1 C 0.578657 -7.219415 1.035185 0
M  V30 2 C 0.749057 -5.770684 0.883446 0
M  V30 3 C -0.354823 -5.018680 0.552605 0
M  V30 4 C -0.185603 -3.669348 0.413709 0
M  V30 5 C 0.941491 -2.918296 0.557838 0
M  V30 6 C 1.266958 -1.512975 0.537765 0
M  V30 7 N 2.537757 -1.228958 0.504611 0
M  V30 8 C 3.260295 -0.017175 0.466086 0
M  V30 9 C 2.715032 1.169811 -0.052106 0
M  V30 10 N 3.691484 2.126962 0.006400 0
M  V30 11 N 4.779343 1.550176 0.537279 0
M  V30 12 C 4.554166 0.235153 0.833227 0
M  V30 13 C 5.481955 -0.755845 1.428101 0
M  V30 14 N 1.377768 1.456676 -0.553506 0
M  V30 15 C 0.268217 0.772424 0.074256 0
M  V30 16 N -0.814872 1.607869 0.177452 0
M  V30 17 C -1.913180 1.142152 0.846996 0
M  V30 18 N -3.001869 2.043509 0.921023 0
M  V30 19 C -2.884177 3.353025 0.311839 0
M  V30 20 C -3.998719 3.447119 -0.699035 0
M  V30 21 O -5.198286 2.928627 -0.292311 0
M  V30 22 C -5.348724 2.709691 1.052342 0
M  V30 23 C -4.267534 1.768024 1.571162 0
M  V30 24 N -1.918123 -0.110693 1.390501 0
M  V30 25 C -0.873103 -0.950366 1.305055 0
M  V30 26 C 0.235067 -0.489417 0.626107 0
M  V30 27 C 1.995600 -3.768913 0.889150 0
M  V30 28 C 1.943385 -5.125530 1.052348 0
M  V30 29 H 1.553445 -7.773544 1.053602 0
M  V30 30 H -0.009780 -7.449874 1.944490 0
M  V30 31 H 0.007098 -7.624724 0.179586 0
M  V30 32 H -1.347999 -5.408054 0.393116 0
M  V30 33 H -1.037448 -3.062478 0.078030 0
M  V30 34 H 5.655855 2.080700 0.682904 0
M  V30 35 H 5.313835 -0.928341 2.503649 0
M  V30 36 H 6.554908 -0.541272 1.187865 0
M  V30 37 H 5.312953 -1.766269 0.953150 0
M  V30 38 H 1.205175 2.125922 -1.295917 0
M  V30 39 H -1.924688 3.443132 -0.247418 0
M  V30 40 H -2.941467 4.165049 1.073846 0
M  V30 41 H -3.621124 2.961382 -1.645522 0
M  V30 42 H -4.180886 4.540640 -0.907463 0
M  V30 43 H -6.311830 2.177488 1.194663 0
M  V30 44 H -5.397550 3.644190 1.643451 0
M  V30 45 H -4.575089 0.745090 1.260745 0
M  V30 46 H -4.237005 1.865728 2.670148 0
M  V30 47 H -0.834877 -1.911717 1.780651 0
M  V30 48 H 3.010120 -3.391816 1.054723 0
M  V30 49 H 2.782039 -5.753605 1.309776 0
M  V30 END ATOM
M  V30 BEGIN BOND
M  V30 1 1 1 2
M  V30 2 2 2 3
M  V30 3 1 3 4
M  V30 4 2 4 5
M  V30 5 1 5 6
M  V30 6 2 6 7
M  V30 7 1 7 8
M  V30 8 1 8 9
M  V30 9 2 9 10
M  V30 10 1 10 11
M  V30 11 1 11 12
M  V30 12 1 12 13
M  V30 13 1 9 14
M  V30 14 1 14 15
M  V30 15 2 15 16
M  V30 16 1 16 17
M  V30 17 1 17 18
M  V30 18 1 18 19
M  V30 19 1 19 20
M  V30 20 1 20 21
M  V30 21 1 21 22
M  V30 22 1 22 23
M  V30 23 2 17 24
M  V30 24 1 24 25
M  V30 25 2 25 26
M  V30 26 1 5 27
M  V30 27 2 27 28
M  V30 28 1 28 2
M  V30 29 1 26 6
M  V30 30 2 12 8
M  V30 31 1 26 15
M  V30 32 1 23 18
M  V30 33 1 1 29
M  V30 34 1 1 30
M  V30 35 1 1 31
M  V30 36 1 3 32
M  V30 37 1 4 33
M  V30 38 1 11 34
M  V30 39 1 13 35
M  V30 40 1 13 36
M  V30 41 1 13 37
M  V30 42 1 14 38
M  V30 43 1 19 39
M  V30 44 1 19 40
M  V30 45 1 20 41
M  V30 46 1 20 42
M  V30 47 1 22 43
M  V30 48 1 22 44
M  V30 49 1 23 45
M  V30 50 1 23 46
M  V30 51 1 25 47
M  V30 52 1 27 48
M  V30 53 1 28 49
M  V30 END BOND
M  V30 END CTAB
M  END
>  <Dataset>  (687) 
ChEMBL_Kinases

>  <Ligand_Instance>  (687) 
nan

>  <PDB_ID>  (687) 
nan

>  <Standardized_SMILES>  (687) 
Cc1ccc(C2=Nc3c(n[nH]c3C)Nc3nc(N4CCOCC4)ncc32)cc1

>  <Name>  (687) 
nan

>  <Pocket>  (687) 
nan

>  <ATP_Site>  (687) 
nan

>  <Peripheral>  (687) 
nan

>  <Num_H_Atoms_ProtBoundConf>  (687) 
nan

>  <Num_Resolved_Atoms>  (687) 
nan

>  <Num_Not_Resolved_Atoms>  (687) 
nan

$$$$
CHEMBL3680579
     RDKit          3D

  0  0  0  0  0  0  0  0  0  0999 V3000
M  V30 BEGIN CTAB
M  V30 COUNTS 54 56 0 0 0
M  V30 BEGIN ATOM
M  V30 1 C 0.980266 -2.148267 4.601882 0
M  V30 2 C 1.535968 -0.945499 5.284718 0
M  V30 3 C 2.731017 -0.326763 4.651078 0
M  V30 4 C 3.874582 -1.343419 4.591435 0
M  V30 5 C 2.521803 0.298074 3.347276 0
M  V30 6 O 2.733870 1.544452 3.192544 0
M  V30 7 N 2.087604 -0.332342 2.152989 0
M  V30 8 C 1.908712 0.357469 0.919178 0
M  V30 9 C 3.004796 0.425861 0.071891 0
M  V30 10 C 2.885730 1.082904 -1.136766 0
M  V30 11 C 1.654083 1.649168 -1.443578 0
M  V30 12 C 0.573959 1.572519 -0.590511 0
M  V30 13 C -0.720522 2.211985 -0.999773 0 CFG=1
M  V30 14 C -0.730316 2.587491 -2.440403 0
M  V30 15 N -1.756654 1.239061 -0.690209 0
M  V30 16 C -1.688793 -0.026814 -1.324693 0
M  V30 17 N -0.706282 -0.325160 -2.182234 0
M  V30 18 C -0.617060 -1.517421 -2.798330 0
M  V30 19 N -1.520661 -2.501855 -2.591147 0
M  V30 20 C -2.542053 -2.265169 -1.733607 0
M  V30 21 C -3.454483 -3.270233 -1.529494 0
M  V30 22 C -3.362088 -4.549633 -2.188160 0
M  V30 23 N -2.336929 -4.893287 -3.097781 0
M  V30 24 O -4.216177 -5.453880 -1.980279 0
M  V30 25 C -4.483067 -3.022696 -0.661682 0
M  V30 26 C -4.595495 -1.824387 -0.025788 0
M  V30 27 C -3.650500 -0.852002 -0.268850 0
M  V30 28 C -2.597172 -1.044971 -1.129585 0
M  V30 29 C 0.684180 0.924791 0.605671 0
M  V30 30 H 0.407564 -2.802380 5.320235 0
M  V30 31 H 0.245704 -1.855634 3.843938 0
M  V30 32 H 1.802687 -2.737899 4.130101 0
M  V30 33 H 1.851199 -1.272265 6.308954 0
M  V30 34 H 0.760793 -0.171027 5.471410 0
M  V30 35 H 3.104082 0.445841 5.384302 0
M  V30 36 H 3.715760 -1.958577 3.671940 0
M  V30 37 H 3.855102 -2.010471 5.465216 0
M  V30 38 H 4.814318 -0.788712 4.577874 0
M  V30 39 H 1.893233 -1.356036 2.188708 0
M  V30 40 H 3.939265 -0.036534 0.368801 0
M  V30 41 H 3.755546 1.123174 -1.781740 0
M  V30 42 H 1.631826 2.146852 -2.403299 0
M  V30 43 H -0.784295 3.135355 -0.392767 0
M  V30 44 H -0.254924 1.867611 -3.128729 0
M  V30 45 H -0.344109 3.617585 -2.558051 0
M  V30 46 H -1.802604 2.619795 -2.758081 0
M  V30 47 H -2.465576 1.571414 -0.017561 0
M  V30 48 H 0.194968 -1.708713 -3.481541 0
M  V30 49 H -2.720042 -5.036482 -4.050461 0
M  V30 50 H -1.306305 -5.041767 -3.074740 0
M  V30 51 H -5.233899 -3.805841 -0.473428 0
M  V30 52 H -5.420186 -1.660475 0.654026 0
M  V30 53 H -3.782716 0.079046 0.258079 0
M  V30 54 H -0.164746 0.862715 1.279720 0
M  V30 END ATOM
M  V30 BEGIN BOND
M  V30 1 1 1 2
M  V30 2 1 2 3
M  V30 3 1 3 4
M  V30 4 1 3 5
M  V30 5 2 5 6
M  V30 6 1 5 7
M  V30 7 1 7 8
M  V30 8 2 8 9
M  V30 9 1 9 10
M  V30 10 2 10 11
M  V30 11 1 11 12
M  V30 12 1 12 13
M  V30 13 1 13 14
M  V30 14 1 13 15
M  V30 15 1 15 16
M  V30 16 2 16 17
M  V30 17 1 17 18
M  V30 18 2 18 19
M  V30 19 1 19 20
M  V30 20 2 20 21
M  V30 21 1 21 22
M  V30 22 1 22 23
M  V30 23 2 22 24
M  V30 24 1 21 25
M  V30 25 2 25 26
M  V30 26 1 26 27
M  V30 27 2 27 28
M  V30 28 2 12 29
M  V30 29 1 29 8
M  V30 30 1 28 16
M  V30 31 1 28 20
M  V30 32 1 1 30
M  V30 33 1 1 31
M  V30 34 1 1 32
M  V30 35 1 2 33
M  V30 36 1 2 34
M  V30 37 1 3 35
M  V30 38 1 4 36
M  V30 39 1 4 37
M  V30 40 1 4 38
M  V30 41 1 7 39
M  V30 42 1 9 40
M  V30 43 1 10 41
M  V30 44 1 11 42
M  V30 45 1 13 43 CFG=1
M  V30 46 1 14 44
M  V30 47 1 14 45
M  V30 48 1 14 46
M  V30 49 1 15 47
M  V30 50 1 18 48
M  V30 51 1 23 49
M  V30 52 1 23 50
M  V30 53 1 25 51
M  V30 54 1 26 52
M  V30 55 1 27 53
M  V30 56 1 29 54
M  V30 END BOND
M  V30 END CTAB
M  END
>  <Dataset>  (688) 
ChEMBL_Kinases

>  <Ligand_Instance>  (688) 
nan

>  <PDB_ID>  (688) 
nan

>  <Standardized_SMILES>  (688) 
CCC(C)C(=O)Nc1cccc([C@@H](C)Nc2ncnc3c(C(N)=O)cccc23)c1

>  <Name>  (688) 
nan

>  <Pocket>  (688) 
nan

>  <ATP_Site>  (688) 
nan

>  <Peripheral>  (688) 
nan

>  <Num_H_Atoms_ProtBoundConf>  (688) 
nan

>  <Num_Resolved_Atoms>  (688) 
nan

>  <Num_Not_Resolved_Atoms>  (688) 
nan

$$$$
CHEMBL3680578
     RDKit          3D

  0  0  0  0  0  0  0  0  0  0999 V3000
M  V30 BEGIN CTAB
M  V30 COUNTS 52 56 0 0 0
M  V30 BEGIN ATOM
M  V30 1 N 2.072218 -7.425672 2.411495 0
M  V30 2 C 2.453559 -6.459725 1.453212 0
M  V30 3 O 2.653404 -7.256267 0.536888 0
M  V30 4 C 2.461444 -5.070324 1.871157 0
M  V30 5 C 2.101587 -4.696747 3.146072 0
M  V30 6 C 2.143437 -3.354740 3.438118 0
M  V30 7 C 2.533845 -2.457702 2.468672 0
M  V30 8 C 2.897394 -2.791127 1.194669 0
M  V30 9 C 3.297516 -1.887208 0.205238 0
M  V30 10 N 3.269812 -0.560458 0.698432 0
M  V30 11 C 3.247113 0.759738 1.173963 0
M  V30 12 C 2.344151 1.672119 0.383924 0
M  V30 13 C 2.899972 2.334326 -0.686136 0
M  V30 14 C 2.089747 3.176902 -1.420761 0
M  V30 15 C 0.747371 3.352185 -1.088235 0
M  V30 16 C 0.236814 2.661377 -0.000063 0
M  V30 17 N -1.134286 2.776049 0.423836 0
M  V30 18 C -1.995843 1.813085 -0.211810 0
M  V30 19 O -1.391398 1.046500 -1.021606 0
M  V30 20 C -3.433131 1.773162 0.090982 0
M  V30 21 C -4.118081 2.585988 0.959657 0
M  V30 22 C -5.461821 2.409337 1.121581 0
M  V30 23 C -6.150948 1.434928 0.435154 0
M  V30 24 N -7.459922 1.089719 0.441035 0
M  V30 25 C -7.628348 0.053916 -0.421562 0
M  V30 26 N -6.438412 -0.219770 -0.938347 0
M  V30 27 C -5.488267 0.595682 -0.451058 0
M  V30 28 C -4.118933 0.784108 -0.608812 0
M  V30 29 C 1.022652 1.809236 0.756569 0
M  V30 30 N 3.617941 -2.417762 -0.982832 0
M  V30 31 C 3.568307 -3.727651 -1.238246 0
M  V30 32 N 3.182593 -4.556687 -0.272086 0
M  V30 33 C 2.846761 -4.143514 0.928123 0
M  V30 34 H 2.056212 -8.395103 2.779905 0
M  V30 35 H 1.940063 -8.300830 2.927510 0
M  V30 36 H 1.813968 -5.476895 3.820285 0
M  V30 37 H 1.866919 -3.053506 4.428260 0
M  V30 38 H 2.537308 -1.440385 2.779237 0
M  V30 39 H 3.609294 -0.146846 -0.235218 0
M  V30 40 H 2.868512 0.815109 2.252977 0
M  V30 41 H 4.266110 1.233465 1.194289 0
M  V30 42 H 3.926845 2.246836 -1.001310 0
M  V30 43 H 2.458044 3.725275 -2.269610 0
M  V30 44 H 0.047053 3.993916 -1.612159 0
M  V30 45 H -1.529670 3.446429 1.101528 0
M  V30 46 H -3.527423 3.332335 1.470151 0
M  V30 47 H -6.011141 3.046283 1.802697 0
M  V30 48 H -8.536978 -0.465375 -0.659776 0
M  V30 49 H -6.176479 -0.955934 -1.640461 0
M  V30 50 H -3.654468 0.101710 -1.312183 0
M  V30 51 H 0.675680 1.243765 1.616738 0
M  V30 52 H 3.866245 -3.949800 -2.256390 0
M  V30 END ATOM
M  V30 BEGIN BOND
M  V30 1 1 1 2
M  V30 2 2 2 3
M  V30 3 1 2 4
M  V30 4 2 4 5
M  V30 5 1 5 6
M  V30 6 2 6 7
M  V30 7 1 7 8
M  V30 8 2 8 9
M  V30 9 1 9 10
M  V30 10 1 10 11
M  V30 11 1 11 12
M  V30 12 2 12 13
M  V30 13 1 13 14
M  V30 14 2 14 15
M  V30 15 1 15 16
M  V30 16 1 16 17
M  V30 17 1 17 18
M  V30 18 2 18 19
M  V30 19 1 18 20
M  V30 20 2 20 21
M  V30 21 1 21 22
M  V30 22 2 22 23
M  V30 23 1 23 24
M  V30 24 2 24 25
M  V30 25 1 25 26
M  V30 26 1 26 27
M  V30 27 2 27 28
M  V30 28 2 16 29
M  V30 29 1 9 30
M  V30 30 2 30 31
M  V30 31 1 31 32
M  V30 32 2 32 33
M  V30 33 1 33 4
M  V30 34 1 33 8
M  V30 35 1 29 12
M  V30 36 1 28 20
M  V30 37 1 27 23
M  V30 38 1 1 34
M  V30 39 1 1 35
M  V30 40 1 5 36
M  V30 41 1 6 37
M  V30 42 1 7 38
M  V30 43 1 10 39
M  V30 44 1 11 40
M  V30 45 1 11 41
M  V30 46 1 13 42
M  V30 47 1 14 43
M  V30 48 1 15 44
M  V30 49 1 17 45
M  V30 50 1 21 46
M  V30 51 1 22 47
M  V30 52 1 25 48
M  V30 53 1 26 49
M  V30 54 1 28 50
M  V30 55 1 29 51
M  V30 56 1 31 52
M  V30 END BOND
M  V30 END CTAB
M  END
>  <Dataset>  (689) 
ChEMBL_Kinases

>  <Ligand_Instance>  (689) 
nan

>  <PDB_ID>  (689) 
nan

>  <Standardized_SMILES>  (689) 
NC(=O)c1cccc2c(NCc3cccc(NC(=O)c4ccc5nc[nH]c5c4)c3)ncnc12

>  <Name>  (689) 
nan

>  <Pocket>  (689) 
nan

>  <ATP_Site>  (689) 
nan

>  <Peripheral>  (689) 
nan

>  <Num_H_Atoms_ProtBoundConf>  (689) 
nan

>  <Num_Resolved_Atoms>  (689) 
nan

>  <Num_Not_Resolved_Atoms>  (689) 
nan

$$$$
CHEMBL4282148
     RDKit          3D

  0  0  0  0  0  0  0  0  0  0999 V3000
M  V30 BEGIN CTAB
M  V30 COUNTS 62 66 0 0 0
M  V30 BEGIN ATOM
M  V30 1 C 5.246027 -3.248474 0.178493 0
M  V30 2 C 4.183636 -2.853587 -0.806676 0
M  V30 3 O 4.373897 -1.524699 -1.318865 0
M  V30 4 C 4.366494 -0.485395 -0.415303 0
M  V30 5 O 4.178581 -1.031149 0.702475 0
M  V30 6 C 4.528651 0.953452 -0.597550 0
M  V30 7 C 4.411369 1.581760 0.790285 0
M  V30 8 C 3.017668 1.487049 1.352667 0
M  V30 9 N 2.076398 1.772746 0.273512 0
M  V30 10 C 0.713498 1.369921 0.278283 0
M  V30 11 C -0.214322 1.612510 -0.722792 0
M  V30 12 C -1.519993 1.178458 -0.624646 0
M  V30 13 C -1.955108 0.475159 0.493730 0
M  V30 14 C -3.278650 0.088576 0.489123 0
M  V30 15 N -4.173295 0.375047 -0.578860 0
M  V30 16 C -4.238610 -0.592906 -1.619880 0
M  V30 17 C -3.518235 -1.767683 -1.682114 0
M  V30 18 C -3.896038 -2.388210 -2.854577 0
M  V30 19 C -3.427123 -3.685122 -3.414463 0
M  V30 20 N -4.810314 -1.618559 -3.478261 0
M  V30 21 N -5.013414 -0.529092 -2.721891 0
M  V30 22 N -3.664969 -0.594374 1.595379 0
M  V30 23 C -2.817594 -0.866251 2.607053 0
M  V30 24 C -3.284778 -1.604458 3.776480 0
M  V30 25 C -4.598688 -2.018864 3.839693 0
M  V30 26 C -5.063441 -2.717216 4.935269 0
M  V30 27 C -4.234016 -3.024977 6.002790 0
M  V30 28 C -2.900421 -2.607026 5.943892 0
M  V30 29 C -2.447487 -1.903189 4.830899 0
M  V30 30 N -1.533907 -0.452557 2.536177 0
M  V30 31 C -1.047786 0.229074 1.489747 0
M  V30 32 C 0.255417 0.671332 1.374142 0
M  V30 33 C 2.694503 2.516807 -0.806172 0
M  V30 34 C 3.627388 1.596995 -1.591605 0
M  V30 35 H 4.911403 -3.175144 1.252009 0
M  V30 36 H 6.191028 -2.709019 0.063751 0
M  V30 37 H 5.455960 -4.352213 0.059517 0
M  V30 38 H 4.063069 -3.569717 -1.623600 0
M  V30 39 H 3.213110 -2.868953 -0.228433 0
M  V30 40 H 5.602319 1.120898 -0.886906 0
M  V30 41 H 4.876047 2.564811 0.856743 0
M  V30 42 H 5.039837 0.910233 1.446059 0
M  V30 43 H 2.921136 2.336234 2.070778 0
M  V30 44 H 2.837107 0.517747 1.818252 0
M  V30 45 H 0.131843 2.155106 -1.579901 0
M  V30 46 H -2.203190 1.395952 -1.437234 0
M  V30 47 H -4.764015 1.231613 -0.634045 0
M  V30 48 H -2.784603 -2.169312 -0.971158 0
M  V30 49 H -4.235777 -4.436540 -3.233003 0
M  V30 50 H -3.214331 -3.573302 -4.502723 0
M  V30 51 H -2.500855 -3.998642 -2.916460 0
M  V30 52 H -5.320033 -1.741650 -4.364246 0
M  V30 53 H -5.330280 -1.832648 3.064071 0
M  V30 54 H -6.093031 -3.045441 4.991987 0
M  V30 55 H -4.539751 -3.570544 6.891639 0
M  V30 56 H -2.184189 -2.810994 6.746240 0
M  V30 57 H -1.426332 -1.543349 4.707610 0
M  V30 58 H 0.847788 0.399475 2.240847 0
M  V30 59 H 1.982021 2.993973 -1.481407 0
M  V30 60 H 3.343877 3.316527 -0.394487 0
M  V30 61 H 4.230411 2.298861 -2.239304 0
M  V30 62 H 3.112910 0.938700 -2.289323 0
M  V30 END ATOM
M  V30 BEGIN BOND
M  V30 1 1 1 2
M  V30 2 1 2 3
M  V30 3 1 3 4
M  V30 4 2 4 5
M  V30 5 1 4 6
M  V30 6 1 6 7
M  V30 7 1 7 8
M  V30 8 1 8 9
M  V30 9 1 9 10
M  V30 10 2 10 11
M  V30 11 1 11 12
M  V30 12 2 12 13
M  V30 13 1 13 14
M  V30 14 1 14 15
M  V30 15 1 15 16
M  V30 16 1 16 17
M  V30 17 2 17 18
M  V30 18 1 18 19
M  V30 19 1 18 20
M  V30 20 1 20 21
M  V30 21 2 14 22
M  V30 22 1 22 23
M  V30 23 1 23 24
M  V30 24 2 24 25
M  V30 25 1 25 26
M  V30 26 2 26 27
M  V30 27 1 27 28
M  V30 28 2 28 29
M  V30 29 2 23 30
M  V30 30 1 30 31
M  V30 31 2 31 32
M  V30 32 1 9 33
M  V30 33 1 33 34
M  V30 34 1 34 6
M  V30 35 1 32 10
M  V30 36 1 31 13
M  V30 37 2 21 16
M  V30 38 1 29 24
M  V30 39 1 1 35
M  V30 40 1 1 36
M  V30 41 1 1 37
M  V30 42 1 2 38
M  V30 43 1 2 39
M  V30 44 1 6 40
M  V30 45 1 7 41
M  V30 46 1 7 42
M  V30 47 1 8 43
M  V30 48 1 8 44
M  V30 49 1 11 45
M  V30 50 1 12 46
M  V30 51 1 15 47
M  V30 52 1 17 48
M  V30 53 1 19 49
M  V30 54 1 19 50
M  V30 55 1 19 51
M  V30 56 1 20 52
M  V30 57 1 25 53
M  V30 58 1 26 54
M  V30 59 1 27 55
M  V30 60 1 28 56
M  V30 61 1 29 57
M  V30 62 1 32 58
M  V30 63 1 33 59
M  V30 64 1 33 60
M  V30 65 1 34 61
M  V30 66 1 34 62
M  V30 END BOND
M  V30 END CTAB
M  END
>  <Dataset>  (690) 
ChEMBL_Kinases

>  <Ligand_Instance>  (690) 
nan

>  <PDB_ID>  (690) 
nan

>  <Standardized_SMILES>  (690) 
CCOC(=O)C1CCN(c2ccc3c(Nc4cc(C)[nH]n4)nc(-c4ccccc4)nc3c2)CC1

>  <Name>  (690) 
nan

>  <Pocket>  (690) 
nan

>  <ATP_Site>  (690) 
nan

>  <Peripheral>  (690) 
nan

>  <Num_H_Atoms_ProtBoundConf>  (690) 
nan

>  <Num_Resolved_Atoms>  (690) 
nan

>  <Num_Not_Resolved_Atoms>  (690) 
nan

$$$$
CHEMBL4588407
     RDKit          3D

  0  0  0  0  0  0  0  0  0  0999 V3000
M  V30 BEGIN CTAB
M  V30 COUNTS 47 51 0 0 0
M  V30 BEGIN ATOM
M  V30 1 C -0.393952 -4.119858 -2.969930 0
M  V30 2 C 0.618816 -3.762369 -1.943643 0
M  V30 3 C 1.769426 -4.517615 -1.764291 0
M  V30 4 C 2.735100 -4.202478 -0.808875 0
M  V30 5 C 2.491774 -3.076636 -0.027069 0
M  V30 6 C 1.349643 -2.338951 -0.215302 0
M  V30 7 C 1.263150 -1.198445 0.685238 0
M  V30 8 N 2.073055 -0.133438 0.784982 0
M  V30 9 C 1.704815 0.755815 1.737885 0
M  V30 10 C 2.530786 1.990181 1.953869 0
M  V30 11 N 2.120950 3.083866 1.137659 0
M  V30 12 C 0.918522 3.799443 1.172263 0
M  V30 13 C -0.112188 3.577421 2.059950 0
M  V30 14 C -1.310487 4.256204 2.117651 0
M  V30 15 C -1.516145 5.264568 1.200766 0
M  V30 16 F -2.664260 5.979777 1.188962 0
M  V30 17 C -0.528001 5.544273 0.280992 0
M  V30 18 C 0.643774 4.820812 0.286326 0
M  V30 19 N 0.609404 0.190357 2.238464 0
M  V30 20 C 0.303266 -0.974228 1.646822 0
M  V30 21 C -0.842427 -1.783537 2.012375 0
M  V30 22 C -1.797933 -1.944828 1.031275 0
M  V30 23 C -2.909196 -2.700291 1.310241 0
M  V30 24 C -3.054339 -3.275641 2.538891 0
M  V30 25 N -4.163661 -4.112127 3.025747 0
M  V30 26 S -3.855630 -4.554782 4.581522 0
M  V30 27 N -2.227374 -3.696523 4.792305 0
M  V30 28 C -2.158534 -3.151003 3.525390 0
M  V30 29 C -1.041496 -2.390662 3.242436 0
M  V30 30 N 0.453824 -2.692205 -1.153310 0
M  V30 31 H -1.285362 -3.479038 -2.813115 0
M  V30 32 H 0.015372 -3.831734 -3.975529 0
M  V30 33 H -0.623012 -5.197275 -2.919567 0
M  V30 34 H 1.863997 -5.373689 -2.422571 0
M  V30 35 H 3.625633 -4.831112 -0.708169 0
M  V30 36 H 3.299294 -2.911744 0.688764 0
M  V30 37 H 2.908450 -0.077777 0.130068 0
M  V30 38 H 2.469635 2.268315 3.041862 0
M  V30 39 H 3.593271 1.748161 1.760899 0
M  V30 40 H 2.812561 3.410399 0.398461 0
M  V30 41 H -0.016489 2.809726 2.808584 0
M  V30 42 H -2.078756 4.036023 2.835008 0
M  V30 43 H -0.681262 6.336690 -0.444791 0
M  V30 44 H 1.377633 5.099471 -0.470589 0
M  V30 45 H -1.798206 -1.540280 0.025347 0
M  V30 46 H -3.695420 -2.880562 0.624460 0
M  V30 47 H -0.207934 -2.166947 3.892881 0
M  V30 END ATOM
M  V30 BEGIN BOND
M  V30 1 1 1 2
M  V30 2 2 2 3
M  V30 3 1 3 4
M  V30 4 2 4 5
M  V30 5 1 5 6
M  V30 6 1 6 7
M  V30 7 1 7 8
M  V30 8 1 8 9
M  V30 9 1 9 10
M  V30 10 1 10 11
M  V30 11 1 11 12
M  V30 12 2 12 13
M  V30 13 1 13 14
M  V30 14 2 14 15
M  V30 15 1 15 16
M  V30 16 1 15 17
M  V30 17 2 17 18
M  V30 18 2 9 19
M  V30 19 1 19 20
M  V30 20 1 20 21
M  V30 21 1 21 22
M  V30 22 2 22 23
M  V30 23 1 23 24
M  V30 24 2 24 25
M  V30 25 1 25 26
M  V30 26 1 26 27
M  V30 27 2 27 28
M  V30 28 1 28 29
M  V30 29 2 6 30
M  V30 30 1 30 2
M  V30 31 2 20 7
M  V30 32 2 29 21
M  V30 33 1 18 12
M  V30 34 1 28 24
M  V30 35 1 1 31
M  V30 36 1 1 32
M  V30 37 1 1 33
M  V30 38 1 3 34
M  V30 39 1 4 35
M  V30 40 1 5 36
M  V30 41 1 8 37
M  V30 42 1 10 38
M  V30 43 1 10 39
M  V30 44 1 11 40
M  V30 45 1 13 41
M  V30 46 1 14 42
M  V30 47 1 17 43
M  V30 48 1 18 44
M  V30 49 1 22 45
M  V30 50 1 23 46
M  V30 51 1 29 47
M  V30 END BOND
M  V30 END CTAB
M  END
>  <Dataset>  (691) 
ChEMBL_Kinases

>  <Ligand_Instance>  (691) 
nan

>  <PDB_ID>  (691) 
nan

>  <Standardized_SMILES>  (691) 
Cc1cccc(-c2[nH]c(CNc3ccc(F)cc3)nc2-c2ccc3nsnc3c2)n1

>  <Name>  (691) 
nan

>  <Pocket>  (691) 
nan

>  <ATP_Site>  (691) 
nan

>  <Peripheral>  (691) 
nan

>  <Num_H_Atoms_ProtBoundConf>  (691) 
nan

>  <Num_Resolved_Atoms>  (691) 
nan

>  <Num_Not_Resolved_Atoms>  (691) 
nan

$$$$
CHEMBL4588783
     RDKit          3D

  0  0  0  0  0  0  0  0  0  0999 V3000
M  V30 BEGIN CTAB
M  V30 COUNTS 54 58 0 0 0
M  V30 BEGIN ATOM
M  V30 1 O -0.070186 -2.402554 2.096600 0
M  V30 2 C -1.211248 -2.152548 1.632710 0
M  V30 3 C -1.556515 -1.029236 0.767383 0
M  V30 4 C -0.858425 0.033513 0.209872 0
M  V30 5 C -1.477240 0.954762 -0.585437 0
M  V30 6 C -0.704555 2.054784 -1.149653 0
M  V30 7 C -1.213191 3.026612 -1.951925 0
M  V30 8 C -0.417052 4.035269 -2.446926 0
M  V30 9 N 0.877891 4.015384 -2.102913 0
M  V30 10 C 1.438371 3.078549 -1.311640 0
M  V30 11 N 2.820829 3.102158 -0.975498 0
M  V30 12 C 3.349966 2.052471 -0.113920 0
M  V30 13 C 2.715510 1.987432 1.227905 0
M  V30 14 C 3.507677 2.621375 2.329475 0
M  V30 15 O 4.873328 2.584128 2.143443 0
M  V30 16 C 5.274580 1.576513 1.272754 0
M  V30 17 C 4.853811 2.035450 -0.113568 0
M  V30 18 N 0.607356 2.121886 -0.861515 0
M  V30 19 C -2.822503 0.797188 -0.819343 0
M  V30 20 C -3.565930 -0.249045 -0.284823 0
M  V30 21 C -2.904555 -1.157181 0.512266 0
M  V30 22 C -3.478388 -2.359570 1.198160 0
M  V30 23 N -2.357399 -2.953536 1.894786 0
M  V30 24 C -2.533248 -4.153332 2.680090 0
M  V30 25 C -2.307405 -5.363256 1.827623 0
M  V30 26 C -3.446387 -5.842176 1.201986 0
M  V30 27 C -3.334732 -6.969812 0.384292 0
M  V30 28 C -2.102077 -7.588777 0.210284 0
M  V30 29 C -0.991063 -7.094035 0.841203 0
M  V30 30 Cl 0.551861 -7.876142 0.617932 0
M  V30 31 C -1.091325 -5.974038 1.655851 0
M  V30 32 H 0.189984 0.047528 0.467444 0
M  V30 33 H -2.247636 3.011432 -2.205233 0
M  V30 34 H -0.771195 4.831539 -3.088300 0
M  V30 35 H 3.398012 3.878411 -1.365718 0
M  V30 36 H 3.056462 1.097417 -0.642590 0
M  V30 37 H 2.455858 0.933036 1.533140 0
M  V30 38 H 1.743714 2.529502 1.189243 0
M  V30 39 H 3.289110 2.088028 3.280613 0
M  V30 40 H 3.188187 3.676098 2.487172 0
M  V30 41 H 6.360652 1.472855 1.359106 0
M  V30 42 H 4.714350 0.658944 1.551799 0
M  V30 43 H 5.263468 3.059163 -0.291192 0
M  V30 44 H 5.297274 1.359348 -0.874786 0
M  V30 45 H -3.357864 1.484848 -1.431729 0
M  V30 46 H -4.631929 -0.346548 -0.489113 0
M  V30 47 H -4.256958 -1.992914 1.910301 0
M  V30 48 H -3.998280 -3.033318 0.510008 0
M  V30 49 H -3.540497 -4.178587 3.160560 0
M  V30 50 H -1.758427 -4.180090 3.474980 0
M  V30 51 H -4.453123 -5.426893 1.276583 0
M  V30 52 H -4.199201 -7.393364 -0.135519 0
M  V30 53 H -2.046535 -8.458684 -0.427701 0
M  V30 54 H -0.232221 -5.553443 2.172179 0
M  V30 END ATOM
M  V30 BEGIN BOND
M  V30 1 2 1 2
M  V30 2 1 2 3
M  V30 3 2 3 4
M  V30 4 1 4 5
M  V30 5 1 5 6
M  V30 6 2 6 7
M  V30 7 1 7 8
M  V30 8 2 8 9
M  V30 9 1 9 10
M  V30 10 1 10 11
M  V30 11 1 11 12
M  V30 12 1 12 13
M  V30 13 1 13 14
M  V30 14 1 14 15
M  V30 15 1 15 16
M  V30 16 1 16 17
M  V30 17 2 10 18
M  V30 18 2 5 19
M  V30 19 1 19 20
M  V30 20 2 20 21
M  V30 21 1 21 22
M  V30 22 1 22 23
M  V30 23 1 23 24
M  V30 24 1 24 25
M  V30 25 2 25 26
M  V30 26 1 26 27
M  V30 27 2 27 28
M  V30 28 1 28 29
M  V30 29 1 29 30
M  V30 30 2 29 31
M  V30 31 1 23 2
M  V30 32 1 31 25
M  V30 33 1 21 3
M  V30 34 1 18 6
M  V30 35 1 17 12
M  V30 36 1 4 32
M  V30 37 1 7 33
M  V30 38 1 8 34
M  V30 39 1 11 35
M  V30 40 1 12 36
M  V30 41 1 13 37
M  V30 42 1 13 38
M  V30 43 1 14 39
M  V30 44 1 14 40
M  V30 45 1 16 41
M  V30 46 1 16 42
M  V30 47 1 17 43
M  V30 48 1 17 44
M  V30 49 1 19 45
M  V30 50 1 20 46
M  V30 51 1 22 47
M  V30 52 1 22 48
M  V30 53 1 24 49
M  V30 54 1 24 50
M  V30 55 1 26 51
M  V30 56 1 27 52
M  V30 57 1 28 53
M  V30 58 1 31 54
M  V30 END BOND
M  V30 END CTAB
M  END
>  <Dataset>  (692) 
ChEMBL_Kinases

>  <Ligand_Instance>  (692) 
nan

>  <PDB_ID>  (692) 
nan

>  <Standardized_SMILES>  (692) 
O=C1c2cc(-c3ccnc(NC4CCOCC4)n3)ccc2CN1Cc1cccc(Cl)c1

>  <Name>  (692) 
nan

>  <Pocket>  (692) 
nan

>  <ATP_Site>  (692) 
nan

>  <Peripheral>  (692) 
nan

>  <Num_H_Atoms_ProtBoundConf>  (692) 
nan

>  <Num_Resolved_Atoms>  (692) 
nan

>  <Num_Not_Resolved_Atoms>  (692) 
nan

$$$$
CHEMBL3680575
     RDKit          3D

  0  0  0  0  0  0  0  0  0  0999 V3000
M  V30 BEGIN CTAB
M  V30 COUNTS 52 55 0 0 0
M  V30 BEGIN ATOM
M  V30 1 C -0.305942 0.775339 3.592174 0
M  V30 2 C -0.914457 1.555712 2.464945 0
M  V30 3 N 0.060668 2.268321 1.668207 0
M  V30 4 C 1.083809 1.466250 1.036491 0
M  V30 5 N 1.108880 0.129470 1.189951 0
M  V30 6 C 2.047791 -0.639306 0.611048 0
M  V30 7 N 3.022545 -0.080941 -0.163715 0
M  V30 8 C 3.048321 1.252123 -0.353301 0
M  V30 9 C 4.047650 1.783395 -1.141180 0
M  V30 10 C 5.062954 0.943398 -1.765102 0
M  V30 11 N 4.999506 -0.452344 -1.528797 0
M  V30 12 O 5.984373 1.381252 -2.494490 0
M  V30 13 C 4.099864 3.145485 -1.352024 0
M  V30 14 C 3.119666 3.923253 -0.744590 0
M  V30 15 C 2.138877 3.358801 0.033721 0
M  V30 16 C 2.073962 2.014566 0.251799 0
M  V30 17 C -1.782112 0.667464 1.671315 0
M  V30 18 C -2.268520 1.302760 0.526772 0
M  V30 19 C -3.104081 0.672568 -0.378206 0
M  V30 20 C -3.457789 -0.634889 -0.119178 0
M  V30 21 C -2.959747 -1.234953 1.021927 0
M  V30 22 N -3.322675 -2.599360 1.296981 0
M  V30 23 C -2.356247 -3.408813 0.684226 0
M  V30 24 O -1.425477 -2.802868 0.055803 0
M  V30 25 C -2.233601 -4.891279 0.644159 0
M  V30 26 C -3.322275 -5.625961 1.378645 0
M  V30 27 F -3.287168 -5.239161 2.702800 0
M  V30 28 F -3.074564 -6.994613 1.384058 0
M  V30 29 F -4.571174 -5.323892 0.883562 0
M  V30 30 C -1.467117 -5.548053 -0.439054 0
M  V30 31 C -0.825195 -5.395139 0.913510 0
M  V30 32 C -2.127008 -0.619077 1.930749 0
M  V30 33 H -1.143889 0.583689 4.313254 0
M  V30 34 H 0.450364 1.364808 4.151306 0
M  V30 35 H 0.088333 -0.208040 3.319560 0
M  V30 36 H -1.583434 2.309531 2.931835 0
M  V30 37 H -0.006275 3.281954 1.582275 0
M  V30 38 H 1.984742 -1.710544 0.793548 0
M  V30 39 H 4.986336 -1.314016 -2.150481 0
M  V30 40 H 4.951247 -1.455475 -1.276007 0
M  V30 41 H 4.900211 3.475658 -1.971085 0
M  V30 42 H 3.220003 4.999160 -0.953379 0
M  V30 43 H 1.426715 4.045032 0.460136 0
M  V30 44 H -2.049102 2.339212 0.227807 0
M  V30 45 H -3.494852 1.131261 -1.264472 0
M  V30 46 H -4.111615 -1.167917 -0.803497 0
M  V30 47 H -4.069665 -3.162403 1.803368 0
M  V30 48 H -1.156218 -4.929937 -1.284306 0
M  V30 49 H -1.755874 -6.603714 -0.666994 0
M  V30 50 H 0.026082 -4.694678 0.939219 0
M  V30 51 H -0.665474 -6.279293 1.553331 0
M  V30 52 H -1.727015 -1.050336 2.815065 0
M  V30 END ATOM
M  V30 BEGIN BOND
M  V30 1 1 1 2
M  V30 2 1 2 3
M  V30 3 1 3 4
M  V30 4 2 4 5
M  V30 5 1 5 6
M  V30 6 2 6 7
M  V30 7 1 7 8
M  V30 8 2 8 9
M  V30 9 1 9 10
M  V30 10 1 10 11
M  V30 11 2 10 12
M  V30 12 1 9 13
M  V30 13 2 13 14
M  V30 14 1 14 15
M  V30 15 2 15 16
M  V30 16 1 2 17
M  V30 17 2 17 18
M  V30 18 1 18 19
M  V30 19 2 19 20
M  V30 20 1 20 21
M  V30 21 1 21 22
M  V30 22 1 22 23
M  V30 23 2 23 24
M  V30 24 1 23 25
M  V30 25 1 25 26
M  V30 26 1 26 27
M  V30 27 1 26 28
M  V30 28 1 26 29
M  V30 29 1 25 30
M  V30 30 1 30 31
M  V30 31 2 21 32
M  V30 32 1 16 4
M  V30 33 1 32 17
M  V30 34 1 16 8
M  V30 35 1 31 25
M  V30 36 1 1 33
M  V30 37 1 1 34
M  V30 38 1 1 35
M  V30 39 1 2 36
M  V30 40 1 3 37
M  V30 41 1 6 38
M  V30 42 1 11 39
M  V30 43 1 11 40
M  V30 44 1 13 41
M  V30 45 1 14 42
M  V30 46 1 15 43
M  V30 47 1 18 44
M  V30 48 1 19 45
M  V30 49 1 20 46
M  V30 50 1 22 47
M  V30 51 1 30 48
M  V30 52 1 30 49
M  V30 53 1 31 50
M  V30 54 1 31 51
M  V30 55 1 32 52
M  V30 END BOND
M  V30 END CTAB
M  END
>  <Dataset>  (693) 
ChEMBL_Kinases

>  <Ligand_Instance>  (693) 
nan

>  <PDB_ID>  (693) 
nan

>  <Standardized_SMILES>  (693) 
CC(Nc1ncnc2c(C(N)=O)cccc12)c1cccc(NC(=O)C2(C(F)(F)F)CC2)c1

>  <Name>  (693) 
nan

>  <Pocket>  (693) 
nan

>  <ATP_Site>  (693) 
nan

>  <Peripheral>  (693) 
nan

>  <Num_H_Atoms_ProtBoundConf>  (693) 
nan

>  <Num_Resolved_Atoms>  (693) 
nan

>  <Num_Not_Resolved_Atoms>  (693) 
nan

$$$$
CHEMBL215275
     RDKit          3D

  0  0  0  0  0  0  0  0  0  0999 V3000
M  V30 BEGIN CTAB
M  V30 COUNTS 71 74 0 0 0
M  V30 BEGIN ATOM
M  V30 1 C 3.816262 -2.075326 2.151868 0
M  V30 2 C 4.772687 -2.108323 1.005870 0
M  V30 3 N 4.480429 -2.792867 -0.146230 0
M  V30 4 C 4.409783 -4.137002 -0.385329 0
M  V30 5 C 3.282976 -4.858598 0.269917 0
M  V30 6 O 3.268191 -4.821082 1.644984 0
M  V30 7 C 4.183105 -1.942805 -1.257138 0
M  V30 8 C 2.857154 -1.238947 -0.993648 0
M  V30 9 C 2.518839 -0.314355 -2.114555 0
M  V30 10 O 1.322107 0.353909 -1.923379 0
M  V30 11 C 0.882991 1.212387 -0.985618 0
M  V30 12 C 1.416038 1.769851 0.131640 0
M  V30 13 C 0.778336 2.646833 0.975896 0
M  V30 14 N 1.381359 3.138647 2.061515 0
M  V30 15 C 0.762792 3.991025 2.899801 0
M  V30 16 N -0.513033 4.368749 2.643861 0
M  V30 17 C -1.162217 3.888880 1.545854 0
M  V30 18 N -2.500434 4.155450 1.112746 0
M  V30 19 C -3.483254 3.169851 1.318304 0
M  V30 20 C -3.324181 1.953151 1.995888 0
M  V30 21 C -4.490138 1.225438 1.958251 0
M  V30 22 C -4.911894 -0.095136 2.485249 0
M  V30 23 C -4.439073 -1.143220 1.548443 0
M  V30 24 O -3.183596 -0.929787 1.583627 0
M  V30 25 N -5.023751 -2.175482 0.746712 0
M  V30 26 C -3.985155 -2.884507 0.037656 0
M  V30 27 C -3.452747 -2.597993 -1.185281 0
M  V30 28 C -2.457479 -3.442526 -1.658657 0
M  V30 29 C -2.048836 -4.525720 -0.883317 0
M  V30 30 C -2.581720 -4.820086 0.351031 0
M  V30 31 F -2.131151 -5.903761 1.054106 0
M  V30 32 C -3.575416 -3.965019 0.806187 0
M  V30 33 N -5.342174 2.024759 1.251675 0
M  V30 34 N -4.758275 3.152929 0.880426 0
M  V30 35 C -0.526032 3.001968 0.668487 0
M  V30 36 C -1.122798 2.470421 -0.455200 0
M  V30 37 C -0.434534 1.582781 -1.281820 0
M  V30 38 O -1.133155 1.105411 -2.391015 0
M  V30 39 C -2.451023 1.534229 -2.602066 0
M  V30 40 H 3.856915 -1.011599 2.581531 0
M  V30 41 H 4.080737 -2.692545 3.022721 0
M  V30 42 H 2.760029 -2.204279 1.908945 0
M  V30 43 H 4.959334 -1.014943 0.716801 0
M  V30 44 H 5.821098 -2.385438 1.385971 0
M  V30 45 H 4.232108 -4.298769 -1.509011 0
M  V30 46 H 5.383124 -4.703059 -0.252577 0
M  V30 47 H 2.278257 -4.446503 -0.066915 0
M  V30 48 H 3.214949 -5.932392 -0.048403 0
M  V30 49 H 2.342823 -4.840292 1.961916 0
M  V30 50 H 4.951611 -1.138565 -1.368564 0
M  V30 51 H 4.110429 -2.458023 -2.219267 0
M  V30 52 H 2.956974 -0.702047 -0.062672 0
M  V30 53 H 2.088554 -2.046283 -1.005379 0
M  V30 54 H 3.368170 0.386092 -2.350193 0
M  V30 55 H 2.474888 -0.956069 -3.056082 0
M  V30 56 H 2.423502 1.500814 0.354108 0
M  V30 57 H 1.254471 4.385648 3.773494 0
M  V30 58 H -2.802699 5.056159 0.645254 0
M  V30 59 H -2.449452 1.575398 2.498058 0
M  V30 60 H -6.016815 -0.161798 2.533828 0
M  V30 61 H -4.558167 -0.243443 3.532762 0
M  V30 62 H -6.057723 -2.113994 0.914176 0
M  V30 63 H -3.868941 -1.724067 -1.668517 0
M  V30 64 H -2.054076 -3.195496 -2.629489 0
M  V30 65 H -1.270533 -5.116772 -1.343918 0
M  V30 66 H -3.947671 -4.265321 1.787976 0
M  V30 67 H -6.353819 1.828674 0.995453 0
M  V30 68 H -2.142160 2.766094 -0.674062 0
M  V30 69 H -2.535399 2.654457 -2.722223 0
M  V30 70 H -2.884333 1.096444 -3.523946 0
M  V30 71 H -3.079895 1.298357 -1.708920 0
M  V30 END ATOM
M  V30 BEGIN BOND
M  V30 1 1 1 2
M  V30 2 1 2 3
M  V30 3 1 3 4
M  V30 4 1 4 5
M  V30 5 1 5 6
M  V30 6 1 3 7
M  V30 7 1 7 8
M  V30 8 1 8 9
M  V30 9 1 9 10
M  V30 10 1 10 11
M  V30 11 2 11 12
M  V30 12 1 12 13
M  V30 13 2 13 14
M  V30 14 1 14 15
M  V30 15 2 15 16
M  V30 16 1 16 17
M  V30 17 1 17 18
M  V30 18 1 18 19
M  V30 19 1 19 20
M  V30 20 2 20 21
M  V30 21 1 21 22
M  V30 22 1 22 23
M  V30 23 2 23 24
M  V30 24 1 23 25
M  V30 25 1 25 26
M  V30 26 2 26 27
M  V30 27 1 27 28
M  V30 28 2 28 29
M  V30 29 1 29 30
M  V30 30 1 30 31
M  V30 31 2 30 32
M  V30 32 1 21 33
M  V30 33 1 33 34
M  V30 34 2 17 35
M  V30 35 1 35 36
M  V30 36 2 36 37
M  V30 37 1 37 38
M  V30 38 1 38 39
M  V30 39 1 37 11
M  V30 40 1 35 13
M  V30 41 2 34 19
M  V30 42 1 32 26
M  V30 43 1 1 40
M  V30 44 1 1 41
M  V30 45 1 1 42
M  V30 46 1 2 43
M  V30 47 1 2 44
M  V30 48 1 4 45
M  V30 49 1 4 46
M  V30 50 1 5 47
M  V30 51 1 5 48
M  V30 52 1 6 49
M  V30 53 1 7 50
M  V30 54 1 7 51
M  V30 55 1 8 52
M  V30 56 1 8 53
M  V30 57 1 9 54
M  V30 58 1 9 55
M  V30 59 1 12 56
M  V30 60 1 15 57
M  V30 61 1 18 58
M  V30 62 1 20 59
M  V30 63 1 22 60
M  V30 64 1 22 61
M  V30 65 1 25 62
M  V30 66 1 27 63
M  V30 67 1 28 64
M  V30 68 1 29 65
M  V30 69 1 32 66
M  V30 70 1 33 67
M  V30 71 1 36 68
M  V30 72 1 39 69
M  V30 73 1 39 70
M  V30 74 1 39 71
M  V30 END BOND
M  V30 END CTAB
M  END
>  <Dataset>  (694) 
ChEMBL_Kinases

>  <Ligand_Instance>  (694) 
nan

>  <PDB_ID>  (694) 
nan

>  <Standardized_SMILES>  (694) 
CCN(CCO)CCCOc1cc2ncnc(Nc3cc(CC(=O)Nc4cccc(F)c4)[nH]n3)c2cc1OC

>  <Name>  (694) 
nan

>  <Pocket>  (694) 
nan

>  <ATP_Site>  (694) 
nan

>  <Peripheral>  (694) 
nan

>  <Num_H_Atoms_ProtBoundConf>  (694) 
nan

>  <Num_Resolved_Atoms>  (694) 
nan

>  <Num_Not_Resolved_Atoms>  (694) 
nan

$$$$
CHEMBL4283293
     RDKit          3D

  0  0  0  0  0  0  0  0  0  0999 V3000
M  V30 BEGIN CTAB
M  V30 COUNTS 41 44 0 0 0
M  V30 BEGIN ATOM
M  V30 1 C 0.383204 -1.610834 4.351403 0
M  V30 2 O 0.641919 -1.233614 3.010463 0
M  V30 3 C 1.693662 -1.873227 2.361543 0
M  V30 4 C 2.532740 -2.842446 2.858020 0
M  V30 5 C 3.529474 -3.353879 2.033800 0
M  V30 6 C 3.686465 -2.906921 0.738334 0
M  V30 7 C 2.841673 -1.929347 0.234615 0
M  V30 8 C 1.832876 -1.403639 1.050924 0
M  V30 9 C 0.998264 -0.381118 0.428066 0
M  V30 10 N 1.608392 0.706003 0.117669 0
M  V30 11 C 1.126691 1.898231 -0.493083 0
M  V30 12 C -0.210865 2.266033 -0.656871 0
M  V30 13 N -0.251848 3.468587 -1.282152 0
M  V30 14 N 0.984819 3.881374 -1.522698 0
M  V30 15 C 1.836462 2.946158 -1.053414 0
M  V30 16 C 3.312440 2.975327 -1.099199 0
M  V30 17 N -1.390847 1.553384 -0.261410 0
M  V30 18 C -1.464891 0.136965 -0.069805 0
M  V30 19 N -2.750302 -0.282898 -0.230069 0
M  V30 20 C -2.943127 -1.624909 -0.069627 0
M  V30 21 S -4.557097 -2.374835 -0.238726 0
M  V30 22 C -5.383222 -2.367155 1.398039 0
M  V30 23 N -1.935152 -2.492431 0.228666 0
M  V30 24 C -0.652936 -2.049975 0.385115 0
M  V30 25 C -0.421665 -0.709329 0.231482 0
M  V30 26 H -0.691094 -1.356527 4.589887 0
M  V30 27 H 0.414562 -2.720896 4.445873 0
M  V30 28 H 1.092391 -1.168130 5.078961 0
M  V30 29 H 2.333334 -3.128662 3.881286 0
M  V30 30 H 4.164165 -4.122965 2.488621 0
M  V30 31 H 4.458977 -3.313229 0.121476 0
M  V30 32 H 3.001223 -1.604227 -0.796608 0
M  V30 33 H 1.227408 4.782284 -1.996810 0
M  V30 34 H 3.761976 3.237691 -0.123205 0
M  V30 35 H 3.696296 3.640992 -1.921838 0
M  V30 36 H 3.725314 1.961576 -1.365267 0
M  V30 37 H -2.241823 2.107483 -0.106079 0
M  V30 38 H -6.457900 -2.611462 1.287002 0
M  V30 39 H -4.835643 -3.112133 2.022948 0
M  V30 40 H -5.308118 -1.366151 1.875949 0
M  V30 41 H 0.164641 -2.717201 0.621798 0
M  V30 END ATOM
M  V30 BEGIN BOND
M  V30 1 1 1 2
M  V30 2 1 2 3
M  V30 3 2 3 4
M  V30 4 1 4 5
M  V30 5 2 5 6
M  V30 6 1 6 7
M  V30 7 2 7 8
M  V30 8 1 8 9
M  V30 9 2 9 10
M  V30 10 1 10 11
M  V30 11 1 11 12
M  V30 12 2 12 13
M  V30 13 1 13 14
M  V30 14 1 14 15
M  V30 15 1 15 16
M  V30 16 1 12 17
M  V30 17 1 17 18
M  V30 18 2 18 19
M  V30 19 1 19 20
M  V30 20 1 20 21
M  V30 21 1 21 22
M  V30 22 2 20 23
M  V30 23 1 23 24
M  V30 24 2 24 25
M  V30 25 1 8 3
M  V30 26 1 25 9
M  V30 27 2 15 11
M  V30 28 1 25 18
M  V30 29 1 1 26
M  V30 30 1 1 27
M  V30 31 1 1 28
M  V30 32 1 4 29
M  V30 33 1 5 30
M  V30 34 1 6 31
M  V30 35 1 7 32
M  V30 36 1 14 33
M  V30 37 1 16 34
M  V30 38 1 16 35
M  V30 39 1 16 36
M  V30 40 1 17 37
M  V30 41 1 22 38
M  V30 42 1 22 39
M  V30 43 1 22 40
M  V30 44 1 24 41
M  V30 END BOND
M  V30 END CTAB
M  END
>  <Dataset>  (695) 
ChEMBL_Kinases

>  <Ligand_Instance>  (695) 
nan

>  <PDB_ID>  (695) 
nan

>  <Standardized_SMILES>  (695) 
COc1ccccc1C1=Nc2c(n[nH]c2C)Nc2nc(SC)ncc21

>  <Name>  (695) 
nan

>  <Pocket>  (695) 
nan

>  <ATP_Site>  (695) 
nan

>  <Peripheral>  (695) 
nan

>  <Num_H_Atoms_ProtBoundConf>  (695) 
nan

>  <Num_Resolved_Atoms>  (695) 
nan

>  <Num_Not_Resolved_Atoms>  (695) 
nan

$$$$
CHEMBL3701744
     RDKit          3D

  0  0  0  0  0  0  0  0  0  0999 V3000
M  V30 BEGIN CTAB
M  V30 COUNTS 52 57 0 0 0
M  V30 BEGIN ATOM
M  V30 1 N -3.756500 0.014820 4.632550 0
M  V30 2 C -3.570847 -1.209234 3.860122 0
M  V30 3 C -2.526407 -1.123005 2.828577 0
M  V30 4 C -2.322103 0.100855 2.221593 0
M  V30 5 C -1.335398 0.193921 1.242385 0
M  V30 6 C -0.538113 -0.885619 0.838598 0
M  V30 7 C 0.428189 -0.558300 -0.203946 0
M  V30 8 N -0.089000 -0.208146 -1.402665 0
M  V30 9 C 0.901543 0.065601 -2.270133 0
M  V30 10 N 2.061606 -0.117957 -1.597548 0
M  V30 11 C 1.799688 -0.500811 -0.328071 0
M  V30 12 C 2.640207 -0.821484 0.789862 0
M  V30 13 C 2.836848 -1.998832 1.475886 0
M  V30 14 C 3.692528 -2.115510 2.537451 0
M  V30 15 C 4.419485 -1.005455 2.974430 0
M  V30 16 C 4.241290 0.185468 2.304985 0
M  V30 17 C 3.366776 0.294120 1.224294 0
M  V30 18 C 3.403226 0.051788 -2.098797 0
M  V30 19 O 3.428391 0.455776 -3.453945 0
M  V30 20 C 2.314087 0.667996 -4.219763 0
M  V30 21 C 2.299791 1.061799 -5.539496 0
M  V30 22 C 1.126601 1.250449 -6.228540 0
M  V30 23 C -0.103201 1.058207 -5.644723 0
M  V30 24 N -0.101411 0.669908 -4.344170 0
M  V30 25 C 1.064714 0.483780 -3.663757 0
M  V30 26 C -0.775248 -2.088766 1.470136 0
M  V30 27 C -1.748788 -2.195351 2.441357 0
M  V30 28 C -4.904220 -1.574886 3.226784 0
M  V30 29 C -4.774865 -2.955420 3.824843 0
M  V30 30 C -3.651456 -2.450991 4.673000 0
M  V30 31 H -4.307010 0.707125 4.048442 0
M  V30 32 H -2.852111 0.448552 4.917575 0
M  V30 33 H -2.906950 0.968953 2.491825 0
M  V30 34 H -1.221904 1.195181 0.797574 0
M  V30 35 H 2.242812 -2.808237 1.077212 0
M  V30 36 H 3.787811 -3.060027 3.013794 0
M  V30 37 H 5.079376 -1.155944 3.816752 0
M  V30 38 H 4.836235 0.997285 2.699266 0
M  V30 39 H 3.356569 1.288517 0.830110 0
M  V30 40 H 4.016322 0.729776 -1.471400 0
M  V30 41 H 3.913052 -0.953386 -2.084164 0
M  V30 42 H 3.262378 1.220590 -6.025518 0
M  V30 43 H 1.104935 1.560348 -7.265700 0
M  V30 44 H -1.075056 1.180746 -6.103008 0
M  V30 45 H -0.138553 -2.886696 1.122946 0
M  V30 46 H -1.891473 -3.162232 2.902994 0
M  V30 47 H -4.883475 -1.616241 2.116792 0
M  V30 48 H -5.777387 -0.986676 3.573594 0
M  V30 49 H -4.497392 -3.762172 3.118459 0
M  V30 50 H -5.729264 -3.197153 4.375519 0
M  V30 51 H -4.019466 -2.252527 5.709398 0
M  V30 52 H -2.762520 -3.097044 4.749930 0
M  V30 END ATOM
M  V30 BEGIN BOND
M  V30 1 1 1 2
M  V30 2 1 2 3
M  V30 3 2 3 4
M  V30 4 1 4 5
M  V30 5 2 5 6
M  V30 6 1 6 7
M  V30 7 1 7 8
M  V30 8 2 8 9
M  V30 9 1 9 10
M  V30 10 1 10 11
M  V30 11 1 11 12
M  V30 12 2 12 13
M  V30 13 1 13 14
M  V30 14 2 14 15
M  V30 15 1 15 16
M  V30 16 2 16 17
M  V30 17 1 10 18
M  V30 18 1 18 19
M  V30 19 1 19 20
M  V30 20 2 20 21
M  V30 21 1 21 22
M  V30 22 2 22 23
M  V30 23 1 23 24
M  V30 24 2 24 25
M  V30 25 1 6 26
M  V30 26 2 26 27
M  V30 27 1 2 28
M  V30 28 1 28 29
M  V30 29 1 29 30
M  V30 30 1 30 2
M  V30 31 1 27 3
M  V30 32 2 11 7
M  V30 33 1 17 12
M  V30 34 1 25 20
M  V30 35 1 25 9
M  V30 36 1 1 31
M  V30 37 1 1 32
M  V30 38 1 4 33
M  V30 39 1 5 34
M  V30 40 1 13 35
M  V30 41 1 14 36
M  V30 42 1 15 37
M  V30 43 1 16 38
M  V30 44 1 17 39
M  V30 45 1 18 40
M  V30 46 1 18 41
M  V30 47 1 21 42
M  V30 48 1 22 43
M  V30 49 1 23 44
M  V30 50 1 26 45
M  V30 51 1 27 46
M  V30 52 1 28 47
M  V30 53 1 28 48
M  V30 54 1 29 49
M  V30 55 1 29 50
M  V30 56 1 30 51
M  V30 57 1 30 52
M  V30 END BOND
M  V30 END CTAB
M  END
>  <Dataset>  (696) 
ChEMBL_Kinases

>  <Ligand_Instance>  (696) 
nan

>  <PDB_ID>  (696) 
nan

>  <Standardized_SMILES>  (696) 
NC1(c2ccc(-c3nc4n(c3-c3ccccc3)COc3cccnc3-4)cc2)CCC1

>  <Name>  (696) 
nan

>  <Pocket>  (696) 
nan

>  <ATP_Site>  (696) 
nan

>  <Peripheral>  (696) 
nan

>  <Num_H_Atoms_ProtBoundConf>  (696) 
nan

>  <Num_Resolved_Atoms>  (696) 
nan

>  <Num_Not_Resolved_Atoms>  (696) 
nan

$$$$
CHEMBL3099963
     RDKit          3D

  0  0  0  0  0  0  0  0  0  0999 V3000
M  V30 BEGIN CTAB
M  V30 COUNTS 45 49 0 0 0
M  V30 BEGIN ATOM
M  V30 1 C -1.179385 -6.001479 5.101081 0
M  V30 2 C -0.164445 -5.463853 4.164022 0
M  V30 3 N 1.024276 -6.049648 3.941703 0
M  V30 4 C 1.695084 -5.303233 3.041490 0
M  V30 5 N 0.926663 -4.236725 2.690340 0
M  V30 6 C 1.288442 -3.218574 1.762795 0
M  V30 7 C 2.646732 -2.996264 1.534761 0
M  V30 8 C 3.063874 -2.022632 0.647594 0
M  V30 9 C 2.108359 -1.265480 -0.016391 0
M  V30 10 N 2.493423 -0.249371 -0.937887 0
M  V30 11 C 1.595287 0.582841 -1.694621 0
M  V30 12 C 1.180184 1.763032 -1.102360 0
M  V30 13 C 0.308914 2.591337 -1.818960 0
M  V30 14 C -0.093321 3.817055 -1.143492 0
M  V30 15 N 0.155686 5.097440 -1.508779 0
M  V30 16 O -0.376018 5.879646 -0.635519 0
M  V30 17 C -0.978945 5.182758 0.312419 0
M  V30 18 C -0.820457 3.823461 0.022284 0
M  V30 19 C -1.299154 2.663447 0.759383 0
M  V30 20 C -2.201581 1.857763 0.062766 0
M  V30 21 N -2.546705 0.827949 0.888233 0
M  V30 22 N -1.900517 0.980101 2.029431 0
M  V30 23 C -1.129754 2.082111 1.998404 0
M  V30 24 C -0.135514 2.262984 -3.077079 0
M  V30 25 C 0.318410 1.067379 -3.611793 0
M  V30 26 N 1.167789 0.244387 -2.931466 0
M  V30 27 C 0.766561 -1.488099 0.211521 0
M  V30 28 C 0.333692 -2.469398 1.105823 0
M  V30 29 N -0.189171 -4.375362 3.394248 0
M  V30 30 H -2.020733 -5.290214 5.130679 0
M  V30 31 H -1.623092 -6.968051 4.761162 0
M  V30 32 H -0.778578 -6.163741 6.118197 0
M  V30 33 H 2.698985 -5.547850 2.674366 0
M  V30 34 H 3.390949 -3.589655 2.054818 0
M  V30 35 H 4.117946 -1.811393 0.436001 0
M  V30 36 H 3.495286 -0.071746 -1.097561 0
M  V30 37 H 1.528795 2.024631 -0.111554 0
M  V30 38 H -1.526767 5.501124 1.198711 0
M  V30 39 H -2.669155 1.860035 -0.933402 0
M  V30 40 H -1.924252 0.382763 2.883597 0
M  V30 41 H -0.454992 2.583890 2.671935 0
M  V30 42 H -0.808420 2.914246 -3.616819 0
M  V30 43 H 0.000528 0.750776 -4.609042 0
M  V30 44 H 0.049137 -0.878017 -0.324259 0
M  V30 45 H -0.705214 -2.653373 1.293367 0
M  V30 END ATOM
M  V30 BEGIN BOND
M  V30 1 1 1 2
M  V30 2 1 2 3
M  V30 3 2 3 4
M  V30 4 1 4 5
M  V30 5 1 5 6
M  V30 6 2 6 7
M  V30 7 1 7 8
M  V30 8 2 8 9
M  V30 9 1 9 10
M  V30 10 1 10 11
M  V30 11 2 11 12
M  V30 12 1 12 13
M  V30 13 1 13 14
M  V30 14 2 14 15
M  V30 15 1 15 16
M  V30 16 1 16 17
M  V30 17 2 17 18
M  V30 18 1 18 19
M  V30 19 1 19 20
M  V30 20 2 20 21
M  V30 21 1 21 22
M  V30 22 1 22 23
M  V30 23 2 13 24
M  V30 24 1 24 25
M  V30 25 2 25 26
M  V30 26 1 9 27
M  V30 27 2 27 28
M  V30 28 1 5 29
M  V30 29 2 29 2
M  V30 30 1 28 6
M  V30 31 1 26 11
M  V30 32 1 18 14
M  V30 33 2 23 19
M  V30 34 1 1 30
M  V30 35 1 1 31
M  V30 36 1 1 32
M  V30 37 1 4 33
M  V30 38 1 7 34
M  V30 39 1 8 35
M  V30 40 1 10 36
M  V30 41 1 12 37
M  V30 42 1 17 38
M  V30 43 1 20 39
M  V30 44 1 22 40
M  V30 45 1 23 41
M  V30 46 1 24 42
M  V30 47 1 25 43
M  V30 48 1 27 44
M  V30 49 1 28 45
M  V30 END BOND
M  V30 END CTAB
M  END
>  <Dataset>  (697) 
ChEMBL_Kinases

>  <Ligand_Instance>  (697) 
nan

>  <PDB_ID>  (697) 
nan

>  <Standardized_SMILES>  (697) 
Cc1ncn(-c2ccc(Nc3cc(-c4nocc4-c4cn[nH]c4)ccn3)cc2)n1

>  <Name>  (697) 
nan

>  <Pocket>  (697) 
nan

>  <ATP_Site>  (697) 
nan

>  <Peripheral>  (697) 
nan

>  <Num_H_Atoms_ProtBoundConf>  (697) 
nan

>  <Num_Resolved_Atoms>  (697) 
nan

>  <Num_Not_Resolved_Atoms>  (697) 
nan

$$$$
CHEMBL3099964
     RDKit          3D

  0  0  0  0  0  0  0  0  0  0999 V3000
M  V30 BEGIN CTAB
M  V30 COUNTS 45 49 0 0 0
M  V30 BEGIN ATOM
M  V30 1 C -1.058731 -5.963590 4.782671 0
M  V30 2 C 0.075397 -5.153222 4.238837 0
M  V30 3 N 1.320175 -5.114420 4.742497 0
M  V30 4 C 1.997280 -4.267257 3.947239 0
M  V30 5 N 1.194235 -3.776407 2.954744 0
M  V30 6 C 1.562466 -2.858338 1.928888 0
M  V30 7 C 2.907693 -2.587538 1.720549 0
M  V30 8 C 3.257440 -1.683370 0.706753 0
M  V30 9 C 2.249881 -1.092125 -0.051114 0
M  V30 10 N 2.520892 -0.163163 -1.101890 0
M  V30 11 C 1.493132 0.456048 -1.872670 0
M  V30 12 C 1.011018 1.667775 -1.397568 0
M  V30 13 C -0.000335 2.370036 -2.067606 0
M  V30 14 C -0.412182 3.630901 -1.457237 0
M  V30 15 N -0.384983 4.930670 -1.848096 0
M  V30 16 O -0.873971 5.699678 -0.935459 0
M  V30 17 C -1.235671 4.951845 0.072413 0
M  V30 18 C -0.967571 3.616267 -0.196393 0
M  V30 19 C -1.245156 2.509538 0.711393 0
M  V30 20 C -2.145961 1.481710 0.415678 0
M  V30 21 C -2.131968 0.624649 1.522640 0
M  V30 22 N -1.277861 1.119149 2.409025 0
M  V30 23 N -0.727743 2.254051 1.949219 0
M  V30 24 C -0.500065 1.812411 -3.218193 0
M  V30 25 C -0.008806 0.596723 -3.685069 0
M  V30 26 N 0.967851 -0.063237 -3.021657 0
M  V30 27 C 0.917278 -1.385746 0.184492 0
M  V30 28 C 0.550545 -2.280999 1.186677 0
M  V30 29 N 0.012905 -4.334834 3.151883 0
M  V30 30 H -1.968587 -5.339091 4.781283 0
M  V30 31 H -1.235150 -6.837929 4.155958 0
M  V30 32 H -0.815294 -6.246063 5.841495 0
M  V30 33 H 3.032686 -3.954024 4.002436 0
M  V30 34 H 3.704507 -3.038844 2.301559 0
M  V30 35 H 4.301099 -1.433852 0.499494 0
M  V30 36 H 3.441838 0.162979 -1.420732 0
M  V30 37 H 1.433311 2.088799 -0.470834 0
M  V30 38 H -1.686766 5.298834 1.005532 0
M  V30 39 H -2.772971 1.305985 -0.471297 0
M  V30 40 H -2.692560 -0.305210 1.705761 0
M  V30 41 H -0.949110 0.831157 3.353748 0
M  V30 42 H -1.270908 2.367060 -3.711527 0
M  V30 43 H -0.410137 0.167418 -4.592083 0
M  V30 44 H 0.140851 -0.909340 -0.423972 0
M  V30 45 H -0.491159 -2.528087 1.390679 0
M  V30 END ATOM
M  V30 BEGIN BOND
M  V30 1 1 1 2
M  V30 2 1 2 3
M  V30 3 2 3 4
M  V30 4 1 4 5
M  V30 5 1 5 6
M  V30 6 2 6 7
M  V30 7 1 7 8
M  V30 8 2 8 9
M  V30 9 1 9 10
M  V30 10 1 10 11
M  V30 11 2 11 12
M  V30 12 1 12 13
M  V30 13 1 13 14
M  V30 14 2 14 15
M  V30 15 1 15 16
M  V30 16 1 16 17
M  V30 17 2 17 18
M  V30 18 1 18 19
M  V30 19 1 19 20
M  V30 20 2 20 21
M  V30 21 1 21 22
M  V30 22 1 22 23
M  V30 23 2 13 24
M  V30 24 1 24 25
M  V30 25 2 25 26
M  V30 26 1 9 27
M  V30 27 2 27 28
M  V30 28 1 5 29
M  V30 29 2 29 2
M  V30 30 1 28 6
M  V30 31 1 26 11
M  V30 32 1 18 14
M  V30 33 2 23 19
M  V30 34 1 1 30
M  V30 35 1 1 31
M  V30 36 1 1 32
M  V30 37 1 4 33
M  V30 38 1 7 34
M  V30 39 1 8 35
M  V30 40 1 10 36
M  V30 41 1 12 37
M  V30 42 1 17 38
M  V30 43 1 20 39
M  V30 44 1 21 40
M  V30 45 1 22 41
M  V30 46 1 24 42
M  V30 47 1 25 43
M  V30 48 1 27 44
M  V30 49 1 28 45
M  V30 END BOND
M  V30 END CTAB
M  END
>  <Dataset>  (698) 
ChEMBL_Kinases

>  <Ligand_Instance>  (698) 
nan

>  <PDB_ID>  (698) 
nan

>  <Standardized_SMILES>  (698) 
Cc1ncn(-c2ccc(Nc3cc(-c4nocc4-c4cc[nH]n4)ccn3)cc2)n1

>  <Name>  (698) 
nan

>  <Pocket>  (698) 
nan

>  <ATP_Site>  (698) 
nan

>  <Peripheral>  (698) 
nan

>  <Num_H_Atoms_ProtBoundConf>  (698) 
nan

>  <Num_Resolved_Atoms>  (698) 
nan

>  <Num_Not_Resolved_Atoms>  (698) 
nan

$$$$
CHEMBL3099965
     RDKit          3D

  0  0  0  0  0  0  0  0  0  0999 V3000
M  V30 BEGIN CTAB
M  V30 COUNTS 52 56 0 0 0
M  V30 BEGIN ATOM
M  V30 1 F -1.477394 -2.803263 -1.452432 0
M  V30 2 C -0.137392 -2.830343 -1.299827 0
M  V30 3 C 0.676920 -2.020796 -2.049995 0
M  V30 4 C 2.058220 -2.085844 -1.855008 0
M  V30 5 C 2.600795 -2.959108 -0.913395 0
M  V30 6 C 4.061905 -2.829575 -0.908214 0
M  V30 7 C 4.913588 -3.879043 -1.231171 0
M  V30 8 O 6.114187 -3.389868 -1.114559 0
M  V30 9 N 6.126708 -2.159825 -0.757538 0
M  V30 10 C 4.852141 -1.715388 -0.601376 0
M  V30 11 C 4.175050 -0.471775 -0.227234 0
M  V30 12 C 4.371579 0.649017 -1.022174 0
M  V30 13 C 3.693358 1.774234 -0.598448 0
M  V30 14 N 2.905928 1.781104 0.497527 0
M  V30 15 C 2.741412 0.671328 1.243057 0
M  V30 16 N 1.871806 0.899968 2.347133 0
M  V30 17 C 0.468182 0.676199 2.273405 0
M  V30 18 C -0.395777 0.923567 3.315319 0
M  V30 19 C -1.758476 0.698244 3.232182 0
M  V30 20 C -2.301544 0.205872 2.070030 0
M  V30 21 N -3.694422 -0.034164 1.955295 0
M  V30 22 C -4.693276 0.235024 2.972701 0
M  V30 23 C -5.541423 1.356593 2.358926 0
M  V30 24 O -6.259045 0.779435 1.319703 0
M  V30 25 C -5.471049 0.313672 0.298460 0
M  V30 26 C -4.366768 -0.594247 0.799865 0
M  V30 27 C -1.459688 -0.049914 1.013002 0
M  V30 28 C -0.102793 0.177386 1.103738 0
M  V30 29 C 3.377210 -0.491228 0.895824 0
M  V30 30 C 1.781268 -3.769376 -0.163082 0
M  V30 31 C 0.429768 -3.688428 -0.371534 0
M  V30 32 H 0.205658 -1.354826 -2.773250 0
M  V30 33 H 2.589701 -1.396893 -2.509161 0
M  V30 34 H 4.587348 -4.878121 -1.514422 0
M  V30 35 H 5.006106 0.602368 -1.886118 0
M  V30 36 H 3.846298 2.662123 -1.224079 0
M  V30 37 H 2.244203 1.246417 3.265439 0
M  V30 38 H 0.061672 1.317557 4.235673 0
M  V30 39 H -2.339447 0.928476 4.112253 0
M  V30 40 H -5.330892 -0.655944 3.159441 0
M  V30 41 H -4.318981 0.557424 3.934178 0
M  V30 42 H -6.255113 1.792144 3.071265 0
M  V30 43 H -4.822797 2.072404 1.931134 0
M  V30 44 H -5.098302 1.094433 -0.403649 0
M  V30 45 H -6.131253 -0.336364 -0.347324 0
M  V30 46 H -3.730464 -0.892080 -0.026276 0
M  V30 47 H -4.886378 -1.530672 1.161861 0
M  V30 48 H -1.766865 -0.428942 0.072424 0
M  V30 49 H 0.585170 -0.011393 0.297054 0
M  V30 50 H 3.196222 -1.318974 1.532992 0
M  V30 51 H 2.323398 -4.384350 0.515222 0
M  V30 52 H -0.161919 -4.350790 0.248849 0
M  V30 END ATOM
M  V30 BEGIN BOND
M  V30 1 1 1 2
M  V30 2 2 2 3
M  V30 3 1 3 4
M  V30 4 2 4 5
M  V30 5 1 5 6
M  V30 6 2 6 7
M  V30 7 1 7 8
M  V30 8 1 8 9
M  V30 9 2 9 10
M  V30 10 1 10 11
M  V30 11 2 11 12
M  V30 12 1 12 13
M  V30 13 2 13 14
M  V30 14 1 14 15
M  V30 15 1 15 16
M  V30 16 1 16 17
M  V30 17 2 17 18
M  V30 18 1 18 19
M  V30 19 2 19 20
M  V30 20 1 20 21
M  V30 21 1 21 22
M  V30 22 1 22 23
M  V30 23 1 23 24
M  V30 24 1 24 25
M  V30 25 1 25 26
M  V30 26 1 20 27
M  V30 27 2 27 28
M  V30 28 2 15 29
M  V30 29 1 5 30
M  V30 30 2 30 31
M  V30 31 1 31 2
M  V30 32 1 10 6
M  V30 33 1 29 11
M  V30 34 1 28 17
M  V30 35 1 26 21
M  V30 36 1 3 32
M  V30 37 1 4 33
M  V30 38 1 7 34
M  V30 39 1 12 35
M  V30 40 1 13 36
M  V30 41 1 16 37
M  V30 42 1 18 38
M  V30 43 1 19 39
M  V30 44 1 22 40
M  V30 45 1 22 41
M  V30 46 1 23 42
M  V30 47 1 23 43
M  V30 48 1 25 44
M  V30 49 1 25 45
M  V30 50 1 26 46
M  V30 51 1 26 47
M  V30 52 1 27 48
M  V30 53 1 28 49
M  V30 54 1 29 50
M  V30 55 1 30 51
M  V30 56 1 31 52
M  V30 END BOND
M  V30 END CTAB
M  END
>  <Dataset>  (699) 
ChEMBL_Kinases

>  <Ligand_Instance>  (699) 
nan

>  <PDB_ID>  (699) 
nan

>  <Standardized_SMILES>  (699) 
Fc1ccc(-c2conc2-c2ccnc(Nc3ccc(N4CCOCC4)cc3)c2)cc1

>  <Name>  (699) 
nan

>  <Pocket>  (699) 
nan

>  <ATP_Site>  (699) 
nan

>  <Peripheral>  (699) 
nan

>  <Num_H_Atoms_ProtBoundConf>  (699) 
nan

>  <Num_Resolved_Atoms>  (699) 
nan

>  <Num_Not_Resolved_Atoms>  (699) 
nan

$$$$
CHEMBL4281788
     RDKit          3D

  0  0  0  0  0  0  0  0  0  0999 V3000
M  V30 BEGIN CTAB
M  V30 COUNTS 42 45 0 0 0
M  V30 BEGIN ATOM
M  V30 1 N 1.616541 -7.089487 1.978427 0
M  V30 2 C 1.079107 -5.809541 1.682259 0
M  V30 3 N 1.810464 -4.684314 1.589256 0
M  V30 4 C 1.319739 -3.473292 1.311508 0
M  V30 5 O 2.063716 -2.394670 1.228320 0
M  V30 6 C 1.581569 -1.212766 0.956802 0
M  V30 7 C 2.399902 -0.098533 0.877792 0
M  V30 8 C 1.858071 1.156164 0.585379 0
M  V30 9 C 0.509673 1.317328 0.370033 0
M  V30 10 C -0.109477 2.647644 0.053786 0
M  V30 11 C 0.387020 3.221816 -1.241824 0
M  V30 12 C 0.143737 4.730200 -1.206684 0
M  V30 13 C 1.107009 5.282327 -0.206997 0
M  V30 14 O 1.881631 6.228966 -0.317457 0
M  V30 15 C 1.126353 4.575332 1.119354 0
M  V30 16 C 0.007600 3.591957 1.225640 0
M  V30 17 C -0.260469 0.176910 0.460276 0
M  V30 18 C 0.222376 -1.084392 0.745630 0
M  V30 19 C -0.652014 -2.175140 0.812787 0
M  V30 20 O -1.878147 -1.988769 0.610083 0
M  V30 21 C -0.046371 -3.397373 1.108453 0
M  V30 22 C -0.895890 -4.486547 1.178789 0
M  V30 23 C -0.281628 -5.700464 1.474211 0
M  V30 24 C -1.163118 -6.883257 1.556278 0
M  V30 25 O -2.409853 -6.945655 1.393759 0
M  V30 26 O -0.581505 -8.125416 1.852010 0
M  V30 27 H 2.021798 -7.751568 1.286342 0
M  V30 28 H 1.517668 -7.217005 3.020343 0
M  V30 29 H 3.463382 -0.218405 1.046393 0
M  V30 30 H 2.517922 2.007149 0.529878 0
M  V30 31 H -1.219739 2.479282 -0.071452 0
M  V30 32 H -0.207398 2.791563 -2.085084 0
M  V30 33 H 1.471791 3.006128 -1.425084 0
M  V30 34 H 0.294908 5.170703 -2.212329 0
M  V30 35 H -0.864771 4.899459 -0.818291 0
M  V30 36 H 0.893163 5.389961 1.866252 0
M  V30 37 H 2.117161 4.208218 1.398572 0
M  V30 38 H -0.945583 4.175396 1.388482 0
M  V30 39 H 0.159310 3.014456 2.164082 0
M  V30 40 H -1.316513 0.266629 0.297934 0
M  V30 41 H -1.955036 -4.392091 1.015192 0
M  V30 42 H -0.919205 -9.001450 1.432611 0
M  V30 END ATOM
M  V30 BEGIN BOND
M  V30 1 1 1 2
M  V30 2 2 2 3
M  V30 3 1 3 4
M  V30 4 1 4 5
M  V30 5 1 5 6
M  V30 6 2 6 7
M  V30 7 1 7 8
M  V30 8 2 8 9
M  V30 9 1 9 10
M  V30 10 1 10 11
M  V30 11 1 11 12
M  V30 12 1 12 13
M  V30 13 2 13 14
M  V30 14 1 13 15
M  V30 15 1 15 16
M  V30 16 1 9 17
M  V30 17 2 17 18
M  V30 18 1 18 19
M  V30 19 2 19 20
M  V30 20 1 19 21
M  V30 21 1 21 22
M  V30 22 2 22 23
M  V30 23 1 23 24
M  V30 24 2 24 25
M  V30 25 1 24 26
M  V30 26 1 23 2
M  V30 27 2 21 4
M  V30 28 1 18 6
M  V30 29 1 16 10
M  V30 30 1 1 27
M  V30 31 1 1 28
M  V30 32 1 7 29
M  V30 33 1 8 30
M  V30 34 1 10 31
M  V30 35 1 11 32
M  V30 36 1 11 33
M  V30 37 1 12 34
M  V30 38 1 12 35
M  V30 39 1 15 36
M  V30 40 1 15 37
M  V30 41 1 16 38
M  V30 42 1 16 39
M  V30 43 1 17 40
M  V30 44 1 22 41
M  V30 45 1 26 42
M  V30 END BOND
M  V30 END CTAB
M  END
>  <Dataset>  (700) 
ChEMBL_Kinases

>  <Ligand_Instance>  (700) 
nan

>  <PDB_ID>  (700) 
nan

>  <Standardized_SMILES>  (700) 
Nc1nc2oc3ccc(C4CCC(=O)CC4)cc3c(=O)c2cc1C(=O)O

>  <Name>  (700) 
nan

>  <Pocket>  (700) 
nan

>  <ATP_Site>  (700) 
nan

>  <Peripheral>  (700) 
nan

>  <Num_H_Atoms_ProtBoundConf>  (700) 
nan

>  <Num_Resolved_Atoms>  (700) 
nan

>  <Num_Not_Resolved_Atoms>  (700) 
nan

$$$$
CHEMBL4281733
     RDKit          3D

  0  0  0  0  0  0  0  0  0  0999 V3000
M  V30 BEGIN CTAB
M  V30 COUNTS 44 47 0 0 0
M  V30 BEGIN ATOM
M  V30 1 N -1.742559 -6.662050 2.082120 0
M  V30 2 C -1.463371 -5.293803 1.854203 0
M  V30 3 N -0.269896 -4.951860 1.355884 0
M  V30 4 C 0.063047 -3.672273 1.114568 0
M  V30 5 O 1.251758 -3.369321 0.621453 0
M  V30 6 C 1.613288 -2.124909 0.371954 0
M  V30 7 C 2.856552 -1.814910 -0.143186 0
M  V30 8 C 3.223567 -0.509298 -0.400133 0
M  V30 9 C 2.364297 0.542321 -0.153454 0
M  V30 10 C 2.821067 1.924094 -0.450878 0
M  V30 11 C 2.035842 2.600788 -1.539728 0
M  V30 12 C 0.762028 3.250701 -1.077613 0
M  V30 13 N 0.826929 3.789354 0.244397 0
M  V30 14 C -0.404499 3.934642 0.934509 0
M  V30 15 O -1.372082 3.541049 0.214231 0
M  V30 16 C 2.196545 4.091498 0.629800 0
M  V30 17 C 2.868263 2.732058 0.809325 0
M  V30 18 C 1.117999 0.256775 0.360802 0
M  V30 19 C 0.753938 -1.060413 0.617574 0
M  V30 20 C -0.508561 -1.303842 1.134526 0
M  V30 21 O -1.339558 -0.383960 1.381501 0
M  V30 22 C -0.824478 -2.626973 1.372905 0
M  V30 23 C -2.065146 -2.966376 1.889556 0
M  V30 24 C -2.374557 -4.293022 2.125671 0
M  V30 25 C -3.673250 -4.610708 2.663184 0
M  V30 26 O -4.023216 -5.802793 2.903746 0
M  V30 27 O -4.616444 -3.661421 2.951486 0
M  V30 28 H -1.521285 -7.350277 1.348391 0
M  V30 29 H -2.152020 -7.205720 2.872941 0
M  V30 30 H 3.496430 -2.673390 -0.320399 0
M  V30 31 H 4.222965 -0.401289 -0.802019 0
M  V30 32 H 3.877261 1.858705 -0.826285 0
M  V30 33 H 2.655301 3.352616 -2.059594 0
M  V30 34 H 1.733937 1.880015 -2.332270 0
M  V30 35 H 0.570965 4.123837 -1.765662 0
M  V30 36 H -0.111620 2.573229 -1.188199 0
M  V30 37 H -0.594959 4.312250 1.924288 0
M  V30 38 H 2.718940 4.667017 -0.138227 0
M  V30 39 H 2.198785 4.570925 1.628529 0
M  V30 40 H 3.904774 2.864446 1.191489 0
M  V30 41 H 2.277939 2.215947 1.595194 0
M  V30 42 H 0.426881 1.034505 0.565854 0
M  V30 43 H -2.792075 -2.187681 2.107865 0
M  V30 44 H -5.591837 -3.861298 3.207290 0
M  V30 END ATOM
M  V30 BEGIN BOND
M  V30 1 1 1 2
M  V30 2 2 2 3
M  V30 3 1 3 4
M  V30 4 1 4 5
M  V30 5 1 5 6
M  V30 6 2 6 7
M  V30 7 1 7 8
M  V30 8 2 8 9
M  V30 9 1 9 10
M  V30 10 1 10 11
M  V30 11 1 11 12
M  V30 12 1 12 13
M  V30 13 1 13 14
M  V30 14 2 14 15
M  V30 15 1 13 16
M  V30 16 1 16 17
M  V30 17 1 9 18
M  V30 18 2 18 19
M  V30 19 1 19 20
M  V30 20 2 20 21
M  V30 21 1 20 22
M  V30 22 1 22 23
M  V30 23 2 23 24
M  V30 24 1 24 25
M  V30 25 2 25 26
M  V30 26 1 25 27
M  V30 27 1 24 2
M  V30 28 2 22 4
M  V30 29 1 19 6
M  V30 30 1 17 10
M  V30 31 1 1 28
M  V30 32 1 1 29
M  V30 33 1 7 30
M  V30 34 1 8 31
M  V30 35 1 10 32
M  V30 36 1 11 33
M  V30 37 1 11 34
M  V30 38 1 12 35
M  V30 39 1 12 36
M  V30 40 1 14 37
M  V30 41 1 16 38
M  V30 42 1 16 39
M  V30 43 1 17 40
M  V30 44 1 17 41
M  V30 45 1 18 42
M  V30 46 1 23 43
M  V30 47 1 27 44
M  V30 END BOND
M  V30 END CTAB
M  END
>  <Dataset>  (701) 
ChEMBL_Kinases

>  <Ligand_Instance>  (701) 
nan

>  <PDB_ID>  (701) 
nan

>  <Standardized_SMILES>  (701) 
Nc1nc2oc3ccc(C4CCN(C=O)CC4)cc3c(=O)c2cc1C(=O)O

>  <Name>  (701) 
nan

>  <Pocket>  (701) 
nan

>  <ATP_Site>  (701) 
nan

>  <Peripheral>  (701) 
nan

>  <Num_H_Atoms_ProtBoundConf>  (701) 
nan

>  <Num_Resolved_Atoms>  (701) 
nan

>  <Num_Not_Resolved_Atoms>  (701) 
nan

$$$$
CHEMBL4588929
     RDKit          3D

  0  0  0  0  0  0  0  0  0  0999 V3000
M  V30 BEGIN CTAB
M  V30 COUNTS 57 59 0 0 0
M  V30 BEGIN ATOM
M  V30 1 C 0.638731 -1.471411 5.839591 0
M  V30 2 O 1.904188 -2.060614 6.048265 0
M  V30 3 C 3.039417 -1.775836 5.333674 0
M  V30 4 C 4.177589 -2.469780 5.702804 0
M  V30 5 C 5.367904 -2.253861 5.045214 0
M  V30 6 C 5.440330 -1.342018 4.009250 0
M  V30 7 C 4.316296 -0.624452 3.609042 0
M  V30 8 C 4.288610 0.376871 2.508693 0 CFG=1
M  V30 9 C 5.619785 0.391893 1.822021 0
M  V30 10 N 3.156166 0.225053 1.651033 0
M  V30 11 C 2.186136 1.246011 1.549219 0
M  V30 12 O 2.329906 2.305415 2.229271 0
M  V30 13 C 1.002478 1.166835 0.697409 0
M  V30 14 C 0.139522 2.245680 0.697716 0
M  V30 15 C -1.025637 2.278023 -0.079263 0
M  V30 16 C -1.295660 1.156271 -0.875647 0
M  V30 17 C -2.500644 1.090957 -1.732465 0
M  V30 18 C -3.040886 2.237546 -2.309222 0
M  V30 19 C -4.176620 2.078296 -3.099681 0
M  V30 20 N -4.753468 0.873776 -3.316646 0
M  V30 21 C -4.234223 -0.240731 -2.760333 0
M  V30 22 N -4.726510 -1.568399 -2.895195 0
M  V30 23 C -4.385882 -2.541906 -3.889598 0
M  V30 24 C -5.155848 -3.820705 -3.634146 0
M  V30 25 C -4.817223 -4.873061 -4.673365 0
M  V30 26 O -5.152127 -4.387543 -5.948164 0
M  V30 27 C -3.093983 -0.157233 -1.954183 0
M  V30 28 C -0.420811 0.088823 -0.861585 0
M  V30 29 C 0.728829 0.066418 -0.089798 0
M  V30 30 C 3.149981 -0.875237 4.296757 0
M  V30 31 H -0.079648 -2.040534 6.475250 0
M  V30 32 H 0.323709 -1.412191 4.792745 0
M  V30 33 H 0.616276 -0.425301 6.226335 0
M  V30 34 H 4.283772 -3.219297 6.496011 0
M  V30 35 H 6.309262 -2.747809 5.261743 0
M  V30 36 H 6.357354 -1.126704 3.448149 0
M  V30 37 H 4.192628 1.386667 3.005643 0
M  V30 38 H 5.927430 -0.627279 1.513927 0
M  V30 39 H 6.367810 0.727674 2.578075 0
M  V30 40 H 5.634320 1.128224 1.003265 0
M  V30 41 H 3.041986 -0.649395 1.092077 0
M  V30 42 H 0.269896 3.149370 1.279883 0
M  V30 43 H -1.706809 3.118099 -0.085243 0
M  V30 44 H -2.578643 3.202403 -2.135279 0
M  V30 45 H -4.634485 2.940314 -3.570561 0
M  V30 46 H -5.401448 -1.701955 -2.110717 0
M  V30 47 H -4.642479 -2.110566 -4.890544 0
M  V30 48 H -3.291971 -2.704425 -3.817924 0
M  V30 49 H -6.246527 -3.651343 -3.603968 0
M  V30 50 H -4.844013 -4.194148 -2.648669 0
M  V30 51 H -5.412780 -5.784347 -4.497091 0
M  V30 52 H -3.762278 -5.169053 -4.628275 0
M  V30 53 H -5.767110 -5.005389 -6.422441 0
M  V30 54 H -2.633922 -0.997379 -1.485662 0
M  V30 55 H -0.585231 -0.814430 -1.466383 0
M  V30 56 H 1.395468 -0.783305 -0.099173 0
M  V30 57 H 2.223099 -0.366734 4.059251 0
M  V30 END ATOM
M  V30 BEGIN BOND
M  V30 1 1 1 2
M  V30 2 1 2 3
M  V30 3 2 3 4
M  V30 4 1 4 5
M  V30 5 2 5 6
M  V30 6 1 6 7
M  V30 7 1 7 8
M  V30 8 1 8 9
M  V30 9 1 8 10
M  V30 10 1 10 11
M  V30 11 2 11 12
M  V30 12 1 11 13
M  V30 13 2 13 14
M  V30 14 1 14 15
M  V30 15 2 15 16
M  V30 16 1 16 17
M  V30 17 2 17 18
M  V30 18 1 18 19
M  V30 19 2 19 20
M  V30 20 1 20 21
M  V30 21 1 21 22
M  V30 22 1 22 23
M  V30 23 1 23 24
M  V30 24 1 24 25
M  V30 25 1 25 26
M  V30 26 2 21 27
M  V30 27 1 16 28
M  V30 28 2 28 29
M  V30 29 2 7 30
M  V30 30 1 30 3
M  V30 31 1 29 13
M  V30 32 1 27 17
M  V30 33 1 1 31
M  V30 34 1 1 32
M  V30 35 1 1 33
M  V30 36 1 4 34
M  V30 37 1 5 35
M  V30 38 1 6 36
M  V30 39 1 8 37 CFG=1
M  V30 40 1 9 38
M  V30 41 1 9 39
M  V30 42 1 9 40
M  V30 43 1 10 41
M  V30 44 1 14 42
M  V30 45 1 15 43
M  V30 46 1 18 44
M  V30 47 1 19 45
M  V30 48 1 22 46
M  V30 49 1 23 47
M  V30 50 1 23 48
M  V30 51 1 24 49
M  V30 52 1 24 50
M  V30 53 1 25 51
M  V30 54 1 25 52
M  V30 55 1 26 53
M  V30 56 1 27 54
M  V30 57 1 28 55
M  V30 58 1 29 56
M  V30 59 1 30 57
M  V30 END BOND
M  V30 END CTAB
M  END
>  <Dataset>  (702) 
ChEMBL_Kinases

>  <Ligand_Instance>  (702) 
nan

>  <PDB_ID>  (702) 
nan

>  <Standardized_SMILES>  (702) 
COc1cccc([C@@H](C)NC(=O)c2ccc(-c3ccnc(NCCCO)c3)cc2)c1

>  <Name>  (702) 
nan

>  <Pocket>  (702) 
nan

>  <ATP_Site>  (702) 
nan

>  <Peripheral>  (702) 
nan

>  <Num_H_Atoms_ProtBoundConf>  (702) 
nan

>  <Num_Resolved_Atoms>  (702) 
nan

>  <Num_Not_Resolved_Atoms>  (702) 
nan

$$$$
CHEMBL3099972
     RDKit          3D

  0  0  0  0  0  0  0  0  0  0999 V3000
M  V30 BEGIN CTAB
M  V30 COUNTS 57 61 0 0 0
M  V30 BEGIN ATOM
M  V30 1 C 4.629617 -5.602650 -1.104499 0
M  V30 2 N 4.191240 -5.524196 0.266470 0
M  V30 3 C 4.103319 -4.366460 1.083145 0
M  V30 4 O 5.073960 -3.947149 1.827537 0
M  V30 5 N 4.787974 -2.874386 2.493151 0
M  V30 6 C 3.515378 -2.521923 2.184669 0
M  V30 7 C 2.772747 -1.379912 2.691286 0
M  V30 8 C 2.396328 -1.401839 4.027219 0
M  V30 9 C 1.683979 -0.304743 4.521064 0
M  V30 10 N 1.412310 0.697296 3.666458 0
M  V30 11 C 1.788742 0.695611 2.373041 0
M  V30 12 N 1.372080 1.874731 1.696234 0
M  V30 13 C 0.155435 1.943747 0.960990 0
M  V30 14 C -0.308763 3.097001 0.366624 0
M  V30 15 C -1.480759 3.174746 -0.355947 0
M  V30 16 C -2.259015 2.032652 -0.507781 0
M  V30 17 N -3.479227 2.065046 -1.244769 0
M  V30 18 C -4.331907 0.957404 -1.627587 0
M  V30 19 C -5.652513 1.116297 -0.914417 0
M  V30 20 O -6.031591 2.446100 -0.805763 0
M  V30 21 C -5.473814 3.240087 -1.800731 0
M  V30 22 C -3.969865 3.345551 -1.685674 0
M  V30 23 C -1.780359 0.881591 0.095209 0
M  V30 24 C -0.607457 0.801258 0.818858 0
M  V30 25 C 2.494703 -0.358825 1.824984 0
M  V30 26 C 3.052588 -3.466028 1.279445 0
M  V30 27 C 1.770295 -3.565659 0.639254 0
M  V30 28 C 1.524485 -3.490921 -0.736646 0
M  V30 29 C 0.242918 -3.603486 -1.251747 0
M  V30 30 C -0.825364 -3.791224 -0.432348 0
M  V30 31 F -2.086999 -3.901752 -0.947418 0
M  V30 32 C -0.628130 -3.872011 0.950682 0
M  V30 33 C 0.671586 -3.756573 1.454017 0
M  V30 34 H 5.725860 -5.772143 -1.162757 0
M  V30 35 H 4.155008 -6.470390 -1.636487 0
M  V30 36 H 4.353096 -4.713084 -1.701844 0
M  V30 37 H 3.874591 -6.305307 0.860910 0
M  V30 38 H 2.652782 -2.248623 4.656477 0
M  V30 39 H 1.370806 -0.287305 5.567784 0
M  V30 40 H 1.962278 2.746686 1.720295 0
M  V30 41 H 0.286770 4.017908 0.469837 0
M  V30 42 H -1.756950 4.126571 -0.783702 0
M  V30 43 H -3.848045 0.031696 -1.276828 0
M  V30 44 H -4.455331 0.966465 -2.733212 0
M  V30 45 H -5.581469 0.579826 0.049562 0
M  V30 46 H -6.422870 0.625316 -1.563528 0
M  V30 47 H -5.678731 2.729998 -2.783925 0
M  V30 48 H -5.987900 4.221956 -1.842286 0
M  V30 49 H -3.775624 4.079739 -0.858326 0
M  V30 50 H -3.547024 3.693075 -2.638117 0
M  V30 51 H -2.317157 -0.051990 0.032118 0
M  V30 52 H -0.265649 -0.118678 1.276387 0
M  V30 53 H 2.753872 -0.285152 0.800525 0
M  V30 54 H 2.405093 -3.339277 -1.368210 0
M  V30 55 H 0.149656 -3.533559 -2.322748 0
M  V30 56 H -1.496909 -4.021834 1.582680 0
M  V30 57 H 0.781938 -3.825029 2.541475 0
M  V30 END ATOM
M  V30 BEGIN BOND
M  V30 1 1 1 2
M  V30 2 1 2 3
M  V30 3 1 3 4
M  V30 4 1 4 5
M  V30 5 2 5 6
M  V30 6 1 6 7
M  V30 7 2 7 8
M  V30 8 1 8 9
M  V30 9 2 9 10
M  V30 10 1 10 11
M  V30 11 1 11 12
M  V30 12 1 12 13
M  V30 13 2 13 14
M  V30 14 1 14 15
M  V30 15 2 15 16
M  V30 16 1 16 17
M  V30 17 1 17 18
M  V30 18 1 18 19
M  V30 19 1 19 20
M  V30 20 1 20 21
M  V30 21 1 21 22
M  V30 22 1 16 23
M  V30 23 2 23 24
M  V30 24 2 11 25
M  V30 25 1 6 26
M  V30 26 1 26 27
M  V30 27 2 27 28
M  V30 28 1 28 29
M  V30 29 2 29 30
M  V30 30 1 30 31
M  V30 31 1 30 32
M  V30 32 2 32 33
M  V30 33 2 26 3
M  V30 34 1 33 27
M  V30 35 1 25 7
M  V30 36 1 24 13
M  V30 37 1 22 17
M  V30 38 1 1 34
M  V30 39 1 1 35
M  V30 40 1 1 36
M  V30 41 1 2 37
M  V30 42 1 8 38
M  V30 43 1 9 39
M  V30 44 1 12 40
M  V30 45 1 14 41
M  V30 46 1 15 42
M  V30 47 1 18 43
M  V30 48 1 18 44
M  V30 49 1 19 45
M  V30 50 1 19 46
M  V30 51 1 21 47
M  V30 52 1 21 48
M  V30 53 1 22 49
M  V30 54 1 22 50
M  V30 55 1 23 51
M  V30 56 1 24 52
M  V30 57 1 25 53
M  V30 58 1 28 54
M  V30 59 1 29 55
M  V30 60 1 32 56
M  V30 61 1 33 57
M  V30 END BOND
M  V30 END CTAB
M  END
>  <Dataset>  (703) 
ChEMBL_Kinases

>  <Ligand_Instance>  (703) 
nan

>  <PDB_ID>  (703) 
nan

>  <Standardized_SMILES>  (703) 
CNc1onc(-c2ccnc(Nc3ccc(N4CCOCC4)cc3)c2)c1-c1ccc(F)cc1

>  <Name>  (703) 
nan

>  <Pocket>  (703) 
nan

>  <ATP_Site>  (703) 
nan

>  <Peripheral>  (703) 
nan

>  <Num_H_Atoms_ProtBoundConf>  (703) 
nan

>  <Num_Resolved_Atoms>  (703) 
nan

>  <Num_Not_Resolved_Atoms>  (703) 
nan

$$$$
CHEMBL3680571
     RDKit          3D

  0  0  0  0  0  0  0  0  0  0999 V3000
M  V30 BEGIN CTAB
M  V30 COUNTS 53 56 0 0 0
M  V30 BEGIN ATOM
M  V30 1 N -6.197641 -6.097335 -2.293403 0
M  V30 2 C -5.416869 -5.438387 -1.311472 0
M  V30 3 O -4.975337 -6.329469 -0.541078 0
M  V30 4 C -5.247149 -3.988512 -1.320504 0
M  V30 5 C -5.853238 -3.239244 -2.306881 0
M  V30 6 C -5.646737 -1.869652 -2.245103 0
M  V30 7 C -4.876081 -1.318162 -1.244814 0
M  V30 8 C -4.273951 -2.061121 -0.265257 0
M  V30 9 C -3.512024 -1.464800 0.714589 0
M  V30 10 N -3.296918 -0.064305 0.783290 0
M  V30 11 C -2.520283 0.646944 1.764479 0
M  V30 12 C -1.082679 0.234430 1.782306 0
M  V30 13 C -0.583205 -0.718258 2.641045 0
M  V30 14 C 0.756268 -1.035508 2.572767 0
M  V30 15 C 1.537246 -0.367070 1.629630 0
M  V30 16 C 1.081958 0.573010 0.771527 0
M  V30 17 N 1.839792 1.274212 -0.195816 0
M  V30 18 C 3.211847 1.190503 -0.490798 0
M  V30 19 O 3.927847 0.394685 0.166117 0
M  V30 20 C 3.907864 1.958967 -1.513740 0
M  V30 21 C 5.264547 1.768504 -1.684779 0
M  V30 22 C 6.008231 2.464844 -2.643660 0
M  V30 23 C 5.372621 3.385036 -3.461250 0
M  V30 24 C 6.191027 4.110690 -4.474540 0
M  V30 25 O 6.665149 5.285951 -3.849002 0
M  V30 26 C 4.016858 3.602920 -3.320251 0
M  V30 27 C 3.335494 2.887707 -2.358169 0
M  V30 28 C -0.262636 0.861371 0.871206 0
M  V30 29 N -2.994885 -2.326163 1.594037 0
M  V30 30 C -3.186328 -3.651024 1.546098 0
M  V30 31 N -3.932430 -4.229361 0.585097 0
M  V30 32 C -4.479969 -3.419496 -0.328504 0
M  V30 33 H -6.302681 -6.583938 -3.204706 0
M  V30 34 H -7.160218 -6.439223 -2.576378 0
M  V30 35 H -6.445976 -3.734057 -3.063808 0
M  V30 36 H -6.132389 -1.274902 -3.034896 0
M  V30 37 H -4.801705 -0.264063 -1.316481 0
M  V30 38 H -3.733738 0.539507 0.060430 0
M  V30 39 H -2.625990 1.732131 1.590687 0
M  V30 40 H -2.944254 0.488528 2.793646 0
M  V30 41 H -1.215713 -1.207771 3.363613 0
M  V30 42 H 1.166247 -1.779575 3.237069 0
M  V30 43 H 2.554642 -0.659450 1.631850 0
M  V30 44 H 1.377855 1.972705 -0.818970 0
M  V30 45 H 5.844749 1.062248 -1.082360 0
M  V30 46 H 7.068356 2.295153 -2.755056 0
M  V30 47 H 6.996430 3.522352 -4.909615 0
M  V30 48 H 5.558047 4.506423 -5.319907 0
M  V30 49 H 5.931969 5.956613 -3.789985 0
M  V30 50 H 3.506327 4.318015 -3.951106 0
M  V30 51 H 2.279773 3.066490 -2.258971 0
M  V30 52 H -0.688545 1.621169 0.195132 0
M  V30 53 H -2.668802 -4.164805 2.367055 0
M  V30 END ATOM
M  V30 BEGIN BOND
M  V30 1 1 1 2
M  V30 2 2 2 3
M  V30 3 1 2 4
M  V30 4 2 4 5
M  V30 5 1 5 6
M  V30 6 2 6 7
M  V30 7 1 7 8
M  V30 8 2 8 9
M  V30 9 1 9 10
M  V30 10 1 10 11
M  V30 11 1 11 12
M  V30 12 2 12 13
M  V30 13 1 13 14
M  V30 14 2 14 15
M  V30 15 1 15 16
M  V30 16 1 16 17
M  V30 17 1 17 18
M  V30 18 2 18 19
M  V30 19 1 18 20
M  V30 20 2 20 21
M  V30 21 1 21 22
M  V30 22 2 22 23
M  V30 23 1 23 24
M  V30 24 1 24 25
M  V30 25 1 23 26
M  V30 26 2 26 27
M  V30 27 2 16 28
M  V30 28 1 9 29
M  V30 29 2 29 30
M  V30 30 1 30 31
M  V30 31 2 31 32
M  V30 32 1 32 4
M  V30 33 1 32 8
M  V30 34 1 28 12
M  V30 35 1 27 20
M  V30 36 1 1 33
M  V30 37 1 1 34
M  V30 38 1 5 35
M  V30 39 1 6 36
M  V30 40 1 7 37
M  V30 41 1 10 38
M  V30 42 1 11 39
M  V30 43 1 11 40
M  V30 44 1 13 41
M  V30 45 1 14 42
M  V30 46 1 15 43
M  V30 47 1 17 44
M  V30 48 1 21 45
M  V30 49 1 22 46
M  V30 50 1 24 47
M  V30 51 1 24 48
M  V30 52 1 25 49
M  V30 53 1 26 50
M  V30 54 1 27 51
M  V30 55 1 28 52
M  V30 56 1 30 53
M  V30 END BOND
M  V30 END CTAB
M  END
>  <Dataset>  (704) 
ChEMBL_Kinases

>  <Ligand_Instance>  (704) 
nan

>  <PDB_ID>  (704) 
nan

>  <Standardized_SMILES>  (704) 
NC(=O)c1cccc2c(NCc3cccc(NC(=O)c4ccc(CO)cc4)c3)ncnc12

>  <Name>  (704) 
nan

>  <Pocket>  (704) 
nan

>  <ATP_Site>  (704) 
nan

>  <Peripheral>  (704) 
nan

>  <Num_H_Atoms_ProtBoundConf>  (704) 
nan

>  <Num_Resolved_Atoms>  (704) 
nan

>  <Num_Not_Resolved_Atoms>  (704) 
nan

$$$$
CHEMBL3680573
     RDKit          3D

  0  0  0  0  0  0  0  0  0  0999 V3000
M  V30 BEGIN CTAB
M  V30 COUNTS 54 57 0 0 0
M  V30 BEGIN ATOM
M  V30 1 C 4.898339 -3.473567 5.952707 0
M  V30 2 C 4.254653 -2.783000 4.806089 0
M  V30 3 C 4.228958 -1.405009 4.727480 0
M  V30 4 C 3.638133 -0.733926 3.674139 0
M  V30 5 C 3.052381 -1.469634 2.663914 0
M  V30 6 C 2.379921 -0.954507 1.471098 0
M  V30 7 O 1.842830 -1.614754 0.544534 0
M  V30 8 N 2.288297 0.439802 1.276285 0
M  V30 9 C 1.698473 1.191094 0.222744 0
M  V30 10 C 2.482063 1.526083 -0.870907 0
M  V30 11 C 1.956311 2.254641 -1.920120 0
M  V30 12 C 0.639429 2.668583 -1.909291 0
M  V30 13 C -0.137484 2.333388 -0.819233 0
M  V30 14 C -1.588660 2.675060 -0.593160 0
M  V30 15 C -2.198934 3.262478 -1.824319 0
M  V30 16 N -2.270997 1.480207 -0.108992 0
M  V30 17 C -2.274025 0.326549 -0.931647 0
M  V30 18 N -1.661336 0.338417 -2.128722 0
M  V30 19 C -1.623093 -0.711481 -2.958159 0
M  V30 20 N -2.211073 -1.892498 -2.649554 0
M  V30 21 C -2.850312 -1.978529 -1.453511 0
M  V30 22 C -3.471059 -3.150029 -1.073570 0
M  V30 23 C -3.427684 -4.291985 -1.979251 0
M  V30 24 N -4.041507 -5.527494 -1.658952 0
M  V30 25 O -2.844742 -4.245733 -3.093099 0
M  V30 26 C -4.133932 -3.295989 0.125956 0
M  V30 27 C -4.135235 -2.170799 0.936794 0
M  V30 28 Cl -4.961631 -2.292822 2.475310 0
M  V30 29 C -3.523013 -0.988332 0.581505 0
M  V30 30 C -2.870217 -0.877876 -0.623695 0
M  V30 31 C 0.376229 1.609538 0.228352 0
M  V30 32 C 3.089391 -2.857732 2.762629 0
M  V30 33 N 3.678079 -3.484266 3.811133 0
M  V30 34 H 4.276854 -4.378662 6.164360 0
M  V30 35 H 5.930588 -3.788149 5.732183 0
M  V30 36 H 4.930995 -2.841009 6.859385 0
M  V30 37 H 4.676170 -0.785037 5.497355 0
M  V30 38 H 3.584482 0.331344 3.554070 0
M  V30 39 H 2.670334 1.159817 1.929246 0
M  V30 40 H 3.525227 1.246072 -0.969066 0
M  V30 41 H 2.499611 2.559691 -2.814533 0
M  V30 42 H 0.119015 3.239668 -2.667163 0
M  V30 43 H -1.555356 3.467251 0.180172 0
M  V30 44 H -3.284802 3.248589 -1.772313 0
M  V30 45 H -1.854000 2.693656 -2.711365 0
M  V30 46 H -1.884343 4.326130 -1.893518 0
M  V30 47 H -2.715123 1.567906 0.827149 0
M  V30 48 H -1.094626 -0.545592 -3.878871 0
M  V30 49 H -3.669403 -6.448586 -2.030858 0
M  V30 50 H -4.858236 -5.827022 -1.089702 0
M  V30 51 H -4.609259 -4.225165 0.393813 0
M  V30 52 H -3.581718 -0.176590 1.280122 0
M  V30 53 H -0.152364 1.295467 1.130855 0
M  V30 54 H 2.658359 -3.549111 2.022892 0
M  V30 END ATOM
M  V30 BEGIN BOND
M  V30 1 1 1 2
M  V30 2 2 2 3
M  V30 3 1 3 4
M  V30 4 2 4 5
M  V30 5 1 5 6
M  V30 6 2 6 7
M  V30 7 1 6 8
M  V30 8 1 8 9
M  V30 9 2 9 10
M  V30 10 1 10 11
M  V30 11 2 11 12
M  V30 12 1 12 13
M  V30 13 1 13 14
M  V30 14 1 14 15
M  V30 15 1 14 16
M  V30 16 1 16 17
M  V30 17 2 17 18
M  V30 18 1 18 19
M  V30 19 2 19 20
M  V30 20 1 20 21
M  V30 21 2 21 22
M  V30 22 1 22 23
M  V30 23 1 23 24
M  V30 24 2 23 25
M  V30 25 1 22 26
M  V30 26 2 26 27
M  V30 27 1 27 28
M  V30 28 1 27 29
M  V30 29 2 29 30
M  V30 30 2 13 31
M  V30 31 1 5 32
M  V30 32 2 32 33
M  V30 33 1 33 2
M  V30 34 1 31 9
M  V30 35 1 30 17
M  V30 36 1 30 21
M  V30 37 1 1 34
M  V30 38 1 1 35
M  V30 39 1 1 36
M  V30 40 1 3 37
M  V30 41 1 4 38
M  V30 42 1 8 39
M  V30 43 1 10 40
M  V30 44 1 11 41
M  V30 45 1 12 42
M  V30 46 1 14 43
M  V30 47 1 15 44
M  V30 48 1 15 45
M  V30 49 1 15 46
M  V30 50 1 16 47
M  V30 51 1 19 48
M  V30 52 1 24 49
M  V30 53 1 24 50
M  V30 54 1 26 51
M  V30 55 1 29 52
M  V30 56 1 31 53
M  V30 57 1 32 54
M  V30 END BOND
M  V30 END CTAB
M  END
>  <Dataset>  (705) 
ChEMBL_Kinases

>  <Ligand_Instance>  (705) 
nan

>  <PDB_ID>  (705) 
nan

>  <Standardized_SMILES>  (705) 
Cc1ccc(C(=O)Nc2cccc(C(C)Nc3ncnc4c(C(N)=O)cc(Cl)cc34)c2)cn1

>  <Name>  (705) 
nan

>  <Pocket>  (705) 
nan

>  <ATP_Site>  (705) 
nan

>  <Peripheral>  (705) 
nan

>  <Num_H_Atoms_ProtBoundConf>  (705) 
nan

>  <Num_Resolved_Atoms>  (705) 
nan

>  <Num_Not_Resolved_Atoms>  (705) 
nan

$$$$
CHEMBL3701745
     RDKit          3D

  0  0  0  0  0  0  0  0  0  0999 V3000
M  V30 BEGIN CTAB
M  V30 COUNTS 59 64 0 0 0
M  V30 BEGIN ATOM
M  V30 1 C 4.317065 0.562003 2.626930 0
M  V30 2 C 5.581549 0.970818 1.949783 0
M  V30 3 C 5.494337 1.061372 0.448248 0
M  V30 4 O 6.747538 1.451908 -0.043831 0
M  V30 5 C 4.340094 1.905774 -0.087219 0
M  V30 6 C 3.766104 0.722160 -0.749026 0
M  V30 7 N 3.898069 0.870610 -2.209316 0
M  V30 8 C 2.427983 0.243875 -0.356597 0
M  V30 9 C 1.615512 0.821501 0.583838 0
M  V30 10 C 0.379698 0.286898 0.879053 0
M  V30 11 C -0.118822 -0.842308 0.263824 0
M  V30 12 C -1.417943 -1.449024 0.534010 0
M  V30 13 N -1.447408 -2.681874 1.121374 0
M  V30 14 C -2.751322 -3.045037 1.281499 0
M  V30 15 N -3.532315 -2.060041 0.804120 0
M  V30 16 C -2.734009 -1.082694 0.345953 0
M  V30 17 C -3.082981 0.185498 -0.266597 0
M  V30 18 C -3.723309 -0.065252 -1.486174 0
M  V30 19 C -4.173403 0.985641 -2.293631 0
M  V30 20 C -3.981986 2.285585 -1.879370 0
M  V30 21 C -3.349916 2.517851 -0.675724 0
M  V30 22 C -2.906321 1.496980 0.120739 0
M  V30 23 C -4.964395 -2.157841 0.838398 0
M  V30 24 O -5.435697 -3.345267 1.396260 0
M  V30 25 C -4.701142 -4.384811 1.899401 0
M  V30 26 C -5.222990 -5.540220 2.444658 0
M  V30 27 C -4.373494 -6.529290 2.924919 0
M  V30 28 C -2.993467 -6.375713 2.866249 0
M  V30 29 N -2.507374 -5.240526 2.330247 0
M  V30 30 C -3.316341 -4.262841 1.855810 0
M  V30 31 C 0.727112 -1.406892 -0.686036 0
M  V30 32 C 1.973037 -0.901227 -1.010036 0
M  V30 33 C 4.921535 -0.123399 -0.255050 0
M  V30 34 H 4.606698 0.193169 3.651101 0
M  V30 35 H 3.617525 1.393091 2.789779 0
M  V30 36 H 3.799882 -0.294454 2.162829 0
M  V30 37 H 5.821732 2.000096 2.321631 0
M  V30 38 H 6.389166 0.260738 2.176895 0
M  V30 39 H 7.357147 0.673929 -0.187410 0
M  V30 40 H 3.839476 2.369244 0.771434 0
M  V30 41 H 4.756392 2.702104 -0.763814 0
M  V30 42 H 3.857915 -0.082918 -2.614625 0
M  V30 43 H 4.906514 1.188623 -2.347114 0
M  V30 44 H 1.952495 1.691738 1.085046 0
M  V30 45 H -0.219797 0.763582 1.616721 0
M  V30 46 H -3.950626 -1.029085 -1.955044 0
M  V30 47 H -4.672296 0.858802 -3.240564 0
M  V30 48 H -4.323257 3.121608 -2.490606 0
M  V30 49 H -3.165718 3.512890 -0.286962 0
M  V30 50 H -2.405025 1.540464 1.074844 0
M  V30 51 H -5.449542 -2.014090 -0.145573 0
M  V30 52 H -5.362031 -1.318513 1.472926 0
M  V30 53 H -6.295242 -5.648936 2.485441 0
M  V30 54 H -4.762167 -7.441701 3.354580 0
M  V30 55 H -2.274375 -7.110030 3.224148 0
M  V30 56 H 0.390109 -2.299876 -1.206407 0
M  V30 57 H 2.563077 -1.423804 -1.776082 0
M  V30 58 H 4.619608 -0.993324 0.360542 0
M  V30 59 H 5.616211 -0.502500 -1.040875 0
M  V30 END ATOM
M  V30 BEGIN BOND
M  V30 1 1 1 2
M  V30 2 1 2 3
M  V30 3 1 3 4
M  V30 4 1 3 5
M  V30 5 1 5 6
M  V30 6 1 6 7
M  V30 7 1 6 8
M  V30 8 2 8 9
M  V30 9 1 9 10
M  V30 10 2 10 11
M  V30 11 1 11 12
M  V30 12 1 12 13
M  V30 13 2 13 14
M  V30 14 1 14 15
M  V30 15 1 15 16
M  V30 16 1 16 17
M  V30 17 2 17 18
M  V30 18 1 18 19
M  V30 19 2 19 20
M  V30 20 1 20 21
M  V30 21 2 21 22
M  V30 22 1 15 23
M  V30 23 1 23 24
M  V30 24 1 24 25
M  V30 25 2 25 26
M  V30 26 1 26 27
M  V30 27 2 27 28
M  V30 28 1 28 29
M  V30 29 2 29 30
M  V30 30 1 11 31
M  V30 31 2 31 32
M  V30 32 1 6 33
M  V30 33 1 33 3
M  V30 34 1 32 8
M  V30 35 2 16 12
M  V30 36 1 22 17
M  V30 37 1 30 25
M  V30 38 1 30 14
M  V30 39 1 1 34
M  V30 40 1 1 35
M  V30 41 1 1 36
M  V30 42 1 2 37
M  V30 43 1 2 38
M  V30 44 1 4 39
M  V30 45 1 5 40
M  V30 46 1 5 41
M  V30 47 1 7 42
M  V30 48 1 7 43
M  V30 49 1 9 44
M  V30 50 1 10 45
M  V30 51 1 18 46
M  V30 52 1 19 47
M  V30 53 1 20 48
M  V30 54 1 21 49
M  V30 55 1 22 50
M  V30 56 1 23 51
M  V30 57 1 23 52
M  V30 58 1 26 53
M  V30 59 1 27 54
M  V30 60 1 28 55
M  V30 61 1 31 56
M  V30 62 1 32 57
M  V30 63 1 33 58
M  V30 64 1 33 59
M  V30 END BOND
M  V30 END CTAB
M  END
>  <Dataset>  (706) 
ChEMBL_Kinases

>  <Ligand_Instance>  (706) 
nan

>  <PDB_ID>  (706) 
nan

>  <Standardized_SMILES>  (706) 
CCC1(O)CC(N)(c2ccc(-c3nc4n(c3-c3ccccc3)COc3cccnc3-4)cc2)C1

>  <Name>  (706) 
nan

>  <Pocket>  (706) 
nan

>  <ATP_Site>  (706) 
nan

>  <Peripheral>  (706) 
nan

>  <Num_H_Atoms_ProtBoundConf>  (706) 
nan

>  <Num_Resolved_Atoms>  (706) 
nan

>  <Num_Not_Resolved_Atoms>  (706) 
nan

$$$$
CHEMBL3094465
     RDKit          3D

  0  0  0  0  0  0  0  0  0  0999 V3000
M  V30 BEGIN CTAB
M  V30 COUNTS 65 68 0 0 0
M  V30 BEGIN ATOM
M  V30 1 C 7.548712 -3.904454 3.424440 0
M  V30 2 O 7.959260 -2.754972 2.710438 0
M  V30 3 C 6.947549 -1.888071 2.261987 0
M  V30 4 N 5.692642 -2.267762 2.549218 0
M  V30 5 C 4.640180 -1.554559 2.201782 0
M  V30 6 C 4.795047 -0.353513 1.507805 0
M  V30 7 C 3.850777 0.612459 1.081422 0
M  V30 8 C 4.000797 1.955230 0.375521 0
M  V30 9 C 2.625431 2.073901 0.419933 0
M  V30 10 O 2.966561 3.244483 0.550423 0
M  V30 11 N 1.401908 1.591680 0.390169 0
M  V30 12 C 0.169008 2.163985 0.502187 0
M  V30 13 C -0.830239 1.176712 0.371150 0
M  V30 14 C -2.183484 1.503700 0.486703 0
M  V30 15 C -2.965422 0.223892 0.343982 0
M  V30 16 O -2.617138 -0.445036 1.406647 0
M  V30 17 N -3.872507 -0.299769 -0.605785 0
M  V30 18 C -4.377111 -1.625391 -0.346893 0
M  V30 19 C -3.638475 -2.616360 -1.148955 0
M  V30 20 C -3.822794 -2.310683 -2.613894 0
M  V30 21 N -3.297682 -1.031592 -3.015589 0
M  V30 22 C -3.785983 -0.835325 -4.407100 0
M  V30 23 C -1.821809 -1.140576 -3.239902 0
M  V30 24 C -4.346588 -1.919251 1.136742 0
M  V30 25 C -3.642470 -2.951855 1.671497 0
M  V30 26 C -3.586634 -3.275930 3.024700 0
M  V30 27 C -4.335050 -2.436287 3.808142 0
M  V30 28 C -5.092332 -1.360987 3.332899 0
M  V30 29 Cl -6.018453 -0.361353 4.492749 0
M  V30 30 C -5.100217 -1.090848 1.976901 0
M  V30 31 C -2.550137 2.797126 0.740058 0
M  V30 32 C -1.581862 3.749713 0.861886 0
M  V30 33 C -0.262413 3.428530 0.743260 0
M  V30 34 Cl 0.893015 4.708671 0.957562 0
M  V30 35 C 5.324632 1.833601 0.332643 0
M  V30 36 O 5.357015 2.995545 -0.273833 0
M  V30 37 N 6.369069 1.138792 0.610118 0
M  V30 38 C 6.107578 0.005062 1.222683 0
M  V30 39 N 7.225711 -0.719471 1.568045 0
M  V30 40 H 6.441145 -3.882523 3.598957 0
M  V30 41 H 7.766945 -4.825515 2.917833 0
M  V30 42 H 8.044395 -3.888616 4.428975 0
M  V30 43 H 3.603391 -1.744824 2.392996 0
M  V30 44 H 2.917433 0.039739 1.442024 0
M  V30 45 H 1.598838 0.588212 0.176547 0
M  V30 46 H -0.571287 0.105417 0.164729 0
M  V30 47 H -3.971858 0.433040 -1.322482 0
M  V30 48 H -5.488920 -1.611637 -0.544283 0
M  V30 49 H -3.839345 -3.682989 -0.972875 0
M  V30 50 H -2.545013 -2.500351 -0.862526 0
M  V30 51 H -4.907206 -2.421787 -2.807986 0
M  V30 52 H -3.302459 -3.083152 -3.228591 0
M  V30 53 H -3.009150 -0.772165 -5.140853 0
M  V30 54 H -4.357197 0.152410 -4.406184 0
M  V30 55 H -4.493259 -1.620002 -4.706833 0
M  V30 56 H -1.514143 -0.492342 -4.084292 0
M  V30 57 H -1.253211 -0.845932 -2.356072 0
M  V30 58 H -1.582538 -2.175863 -3.560268 0
M  V30 59 H -3.051584 -3.617237 1.029286 0
M  V30 60 H -3.017155 -4.112934 3.372777 0
M  V30 61 H -4.342256 -2.648873 4.878196 0
M  V30 62 H -5.668085 -0.251741 1.605921 0
M  V30 63 H -3.608377 2.885750 0.832873 0
M  V30 64 H -1.947550 4.743606 1.040930 0
M  V30 65 H 7.271288 1.563467 0.304250 0
M  V30 END ATOM
M  V30 BEGIN BOND
M  V30 1 1 1 2
M  V30 2 1 2 3
M  V30 3 2 3 4
M  V30 4 1 4 5
M  V30 5 2 5 6
M  V30 6 1 6 7
M  V30 7 2 7 8
M  V30 8 1 8 9
M  V30 9 2 9 10
M  V30 10 1 9 11
M  V30 11 1 11 12
M  V30 12 2 12 13
M  V30 13 1 13 14
M  V30 14 1 14 15
M  V30 15 2 15 16
M  V30 16 1 15 17
M  V30 17 1 17 18
M  V30 18 1 18 19
M  V30 19 1 19 20
M  V30 20 1 20 21
M  V30 21 1 21 22
M  V30 22 1 21 23
M  V30 23 1 18 24
M  V30 24 2 24 25
M  V30 25 1 25 26
M  V30 26 2 26 27
M  V30 27 1 27 28
M  V30 28 1 28 29
M  V30 29 2 28 30
M  V30 30 2 14 31
M  V30 31 1 31 32
M  V30 32 2 32 33
M  V30 33 1 33 34
M  V30 34 1 8 35
M  V30 35 2 35 36
M  V30 36 1 35 37
M  V30 37 1 37 38
M  V30 38 2 38 39
M  V30 39 1 39 3
M  V30 40 1 38 6
M  V30 41 1 33 12
M  V30 42 1 30 24
M  V30 43 1 1 40
M  V30 44 1 1 41
M  V30 45 1 1 42
M  V30 46 1 5 43
M  V30 47 1 7 44
M  V30 48 1 11 45
M  V30 49 1 13 46
M  V30 50 1 17 47
M  V30 51 1 18 48
M  V30 52 1 19 49
M  V30 53 1 19 50
M  V30 54 1 20 51
M  V30 55 1 20 52
M  V30 56 1 22 53
M  V30 57 1 22 54
M  V30 58 1 22 55
M  V30 59 1 23 56
M  V30 60 1 23 57
M  V30 61 1 23 58
M  V30 62 1 25 59
M  V30 63 1 26 60
M  V30 64 1 27 61
M  V30 65 1 30 62
M  V30 66 1 31 63
M  V30 67 1 32 64
M  V30 68 1 37 65
M  V30 END BOND
M  V30 END CTAB
M  END
>  <Dataset>  (707) 
ChEMBL_Kinases

>  <Ligand_Instance>  (707) 
nan

>  <PDB_ID>  (707) 
nan

>  <Standardized_SMILES>  (707) 
COc1ncc2cc(C(=O)Nc3cc(C(=O)NC(CCN(C)C)c4cccc(Cl)c4)ccc3Cl)c(=O)[nH]c2n1

>  <Name>  (707) 
nan

>  <Pocket>  (707) 
nan

>  <ATP_Site>  (707) 
nan

>  <Peripheral>  (707) 
nan

>  <Num_H_Atoms_ProtBoundConf>  (707) 
nan

>  <Num_Resolved_Atoms>  (707) 
nan

>  <Num_Not_Resolved_Atoms>  (707) 
nan

$$$$
CHEMBL3680587
     RDKit          3D

  0  0  0  0  0  0  0  0  0  0999 V3000
M  V30 BEGIN CTAB
M  V30 COUNTS 57 61 0 0 0
M  V30 BEGIN ATOM
M  V30 1 C 4.915182 -3.266396 4.314516 0
M  V30 2 C 5.415337 -2.613587 3.065845 0
M  V30 3 N 4.787952 -1.542603 2.544440 0
M  V30 4 C 5.439589 -1.146940 1.420068 0
M  V30 5 C 5.040802 -0.008552 0.583132 0
M  V30 6 C 5.971124 0.750412 -0.103675 0
M  V30 7 C 5.597746 1.821031 -0.890978 0
M  V30 8 C 4.262911 2.169375 -1.016477 0
M  V30 9 C 3.330054 1.415450 -0.333285 0
M  V30 10 C 1.872992 1.636285 -0.347029 0
M  V30 11 O 1.005633 0.944086 0.282714 0
M  V30 12 N 1.231538 2.688399 -1.092637 0
M  V30 13 C -0.171413 2.600826 -0.873178 0
M  V30 14 C -0.657379 3.322206 0.197559 0
M  V30 15 C -1.999316 3.269800 0.448766 0
M  V30 16 C -2.884990 2.536291 -0.310355 0
M  V30 17 C -2.414597 1.816192 -1.375100 0
M  V30 18 C -3.090614 0.930244 -2.367667 0
M  V30 19 N -3.062228 -0.454031 -1.949362 0
M  V30 20 C -3.660684 -0.981910 -0.780593 0
M  V30 21 N -4.347529 -0.276751 0.110883 0
M  V30 22 C -4.927592 -0.742721 1.222393 0
M  V30 23 N -4.850694 -2.039569 1.534030 0
M  V30 24 C -4.165870 -2.836699 0.676987 0
M  V30 25 C -4.075083 -4.177279 0.980596 0
M  V30 26 C -4.714084 -4.674285 2.199410 0
M  V30 27 N -4.645583 -6.050643 2.551431 0
M  V30 28 O -5.337844 -3.890373 2.960700 0
M  V30 29 C -3.401302 -5.067847 0.173310 0
M  V30 30 C -2.800177 -4.567938 -0.984263 0
M  V30 31 C -2.917093 -3.222019 -1.246711 0
M  V30 32 C -3.582050 -2.319307 -0.458051 0
M  V30 33 C -1.042500 1.856655 -1.649608 0
M  V30 34 C 3.712433 0.341629 0.455518 0
M  V30 35 N 6.462345 -2.014049 1.299245 0
M  V30 36 O 6.440115 -2.871493 2.269915 0
M  V30 37 H 5.337291 -4.280900 4.439746 0
M  V30 38 H 3.805085 -3.418176 4.244813 0
M  V30 39 H 5.080529 -2.657712 5.216221 0
M  V30 40 H 7.023814 0.490463 -0.016086 0
M  V30 41 H 6.316239 2.418330 -1.430030 0
M  V30 42 H 3.871787 2.989309 -1.608113 0
M  V30 43 H 1.857618 3.332600 -1.659320 0
M  V30 44 H -0.010105 3.911688 0.823064 0
M  V30 45 H -2.443353 3.813637 1.274579 0
M  V30 46 H -3.947118 2.435380 -0.200834 0
M  V30 47 H -4.188168 1.214426 -2.323167 0
M  V30 48 H -2.754774 1.116800 -3.386494 0
M  V30 49 H -2.534315 -1.026684 -2.629321 0
M  V30 50 H -5.450229 -0.035937 1.843233 0
M  V30 51 H -5.470776 -6.708978 2.602806 0
M  V30 52 H -3.612025 -6.194890 2.728305 0
M  V30 53 H -3.361232 -6.111876 0.460153 0
M  V30 54 H -2.279827 -5.274971 -1.601215 0
M  V30 55 H -2.426039 -2.927606 -2.153750 0
M  V30 56 H -0.503914 1.345128 -2.455341 0
M  V30 57 H 3.014394 -0.277672 1.009352 0
M  V30 END ATOM
M  V30 BEGIN BOND
M  V30 1 1 1 2
M  V30 2 2 2 3
M  V30 3 1 3 4
M  V30 4 1 4 5
M  V30 5 2 5 6
M  V30 6 1 6 7
M  V30 7 2 7 8
M  V30 8 1 8 9
M  V30 9 1 9 10
M  V30 10 2 10 11
M  V30 11 1 10 12
M  V30 12 1 12 13
M  V30 13 2 13 14
M  V30 14 1 14 15
M  V30 15 2 15 16
M  V30 16 1 16 17
M  V30 17 1 17 18
M  V30 18 1 18 19
M  V30 19 1 19 20
M  V30 20 2 20 21
M  V30 21 1 21 22
M  V30 22 2 22 23
M  V30 23 1 23 24
M  V30 24 2 24 25
M  V30 25 1 25 26
M  V30 26 1 26 27
M  V30 27 2 26 28
M  V30 28 1 25 29
M  V30 29 2 29 30
M  V30 30 1 30 31
M  V30 31 2 31 32
M  V30 32 2 17 33
M  V30 33 2 9 34
M  V30 34 2 4 35
M  V30 35 1 35 36
M  V30 36 1 36 2
M  V30 37 1 34 5
M  V30 38 1 33 13
M  V30 39 1 32 20
M  V30 40 1 32 24
M  V30 41 1 1 37
M  V30 42 1 1 38
M  V30 43 1 1 39
M  V30 44 1 6 40
M  V30 45 1 7 41
M  V30 46 1 8 42
M  V30 47 1 12 43
M  V30 48 1 14 44
M  V30 49 1 15 45
M  V30 50 1 16 46
M  V30 51 1 18 47
M  V30 52 1 18 48
M  V30 53 1 19 49
M  V30 54 1 22 50
M  V30 55 1 27 51
M  V30 56 1 27 52
M  V30 57 1 29 53
M  V30 58 1 30 54
M  V30 59 1 31 55
M  V30 60 1 33 56
M  V30 61 1 34 57
M  V30 END BOND
M  V30 END CTAB
M  END
>  <Dataset>  (708) 
ChEMBL_Kinases

>  <Ligand_Instance>  (708) 
nan

>  <PDB_ID>  (708) 
nan

>  <Standardized_SMILES>  (708) 
Cc1nc(-c2cccc(C(=O)Nc3cccc(CNc4ncnc5c(C(N)=O)cccc45)c3)c2)no1

>  <Name>  (708) 
nan

>  <Pocket>  (708) 
nan

>  <ATP_Site>  (708) 
nan

>  <Peripheral>  (708) 
nan

>  <Num_H_Atoms_ProtBoundConf>  (708) 
nan

>  <Num_Resolved_Atoms>  (708) 
nan

>  <Num_Not_Resolved_Atoms>  (708) 
nan

$$$$
CHEMBL3099612
     RDKit          3D

  0  0  0  0  0  0  0  0  0  0999 V3000
M  V30 BEGIN CTAB
M  V30 COUNTS 29 31 0 0 0
M  V30 BEGIN ATOM
M  V30 1 O 1.429662 -2.251952 4.751375 0
M  V30 2 C 0.661771 -2.461934 3.776991 0
M  V30 3 C -0.814748 -2.372896 3.790375 0
M  V30 4 C -1.241332 -2.557051 2.368840 0 CFG=1
M  V30 5 O -1.979253 -1.479310 1.860983 0
M  V30 6 C 0.021115 -2.818720 1.575994 0 CFG=1
M  V30 7 C 0.304279 -1.729609 0.590603 0
M  V30 8 C 0.378664 -1.970659 -0.717083 0
M  V30 9 C 0.651314 -0.943952 -1.709582 0
M  V30 10 O 0.707048 -1.244996 -2.929051 0
M  V30 11 C 0.851764 0.426476 -1.214385 0
M  V30 12 C 1.114597 1.432582 -2.138707 0
M  V30 13 C 1.307088 2.731031 -1.698211 0
M  V30 14 C 1.234023 2.996404 -0.356790 0
M  V30 15 C 0.976205 2.032543 0.595745 0
M  V30 16 C 0.783270 0.727553 0.147193 0
M  V30 17 C 0.502438 -0.377277 1.075303 0
M  V30 18 O 0.440770 -0.101566 2.310363 0
M  V30 19 O 1.083213 -2.814531 2.520349 0
M  V30 20 H -1.208303 -3.178895 4.465725 0
M  V30 21 H -1.121957 -1.374652 4.181007 0
M  V30 22 H -1.872898 -3.470921 2.315347 0
M  V30 23 H -1.729395 -1.409846 0.884894 0
M  V30 24 H 0.046147 -3.812905 1.102998 0
M  V30 25 H 0.222403 -2.994909 -1.015535 0
M  V30 26 H 1.167394 1.199742 -3.189751 0
M  V30 27 H 1.512760 3.530810 -2.396677 0
M  V30 28 H 1.378977 4.007856 0.041838 0
M  V30 29 H 0.915881 2.229184 1.658544 0
M  V30 END ATOM
M  V30 BEGIN BOND
M  V30 1 2 1 2
M  V30 2 1 2 3
M  V30 3 1 3 4
M  V30 4 1 4 5
M  V30 5 1 4 6
M  V30 6 1 6 7
M  V30 7 2 7 8
M  V30 8 1 8 9
M  V30 9 2 9 10
M  V30 10 1 9 11
M  V30 11 2 11 12
M  V30 12 1 12 13
M  V30 13 2 13 14
M  V30 14 1 14 15
M  V30 15 2 15 16
M  V30 16 1 16 17
M  V30 17 2 17 18
M  V30 18 1 6 19
M  V30 19 1 19 2
M  V30 20 1 17 7
M  V30 21 1 16 11
M  V30 22 1 3 20
M  V30 23 1 3 21
M  V30 24 1 4 22 CFG=1
M  V30 25 1 5 23
M  V30 26 1 6 24 CFG=3
M  V30 27 1 8 25
M  V30 28 1 12 26
M  V30 29 1 13 27
M  V30 30 1 14 28
M  V30 31 1 15 29
M  V30 END BOND
M  V30 END CTAB
M  END
>  <Dataset>  (709) 
ChEMBL_Kinases

>  <Ligand_Instance>  (709) 
nan

>  <PDB_ID>  (709) 
nan

>  <Standardized_SMILES>  (709) 
O=C1C[C@@H](O)[C@@H](C2=CC(=O)c3ccccc3C2=O)O1

>  <Name>  (709) 
nan

>  <Pocket>  (709) 
nan

>  <ATP_Site>  (709) 
nan

>  <Peripheral>  (709) 
nan

>  <Num_H_Atoms_ProtBoundConf>  (709) 
nan

>  <Num_Resolved_Atoms>  (709) 
nan

>  <Num_Not_Resolved_Atoms>  (709) 
nan

$$$$
CHEMBL4282864
     RDKit          3D

  0  0  0  0  0  0  0  0  0  0999 V3000
M  V30 BEGIN CTAB
M  V30 COUNTS 40 43 0 0 0
M  V30 BEGIN ATOM
M  V30 1 C 4.064161 -4.707624 3.548169 0
M  V30 2 S 4.607293 -3.741756 2.131583 0
M  V30 3 C 3.305238 -2.629047 1.621158 0
M  V30 4 N 2.104694 -2.587936 2.273680 0
M  V30 5 C 1.119245 -1.751014 1.888639 0
M  V30 6 C 1.431167 -0.965028 0.799890 0
M  V30 7 C 2.643332 -1.005593 0.150002 0
M  V30 8 N 3.633604 -1.856839 0.548159 0
M  V30 9 N 3.116119 -0.141775 -0.914919 0
M  V30 10 C 2.670236 1.246689 -0.939558 0
M  V30 11 N 3.470818 2.267686 -1.339224 0
M  V30 12 N 2.763897 3.401701 -1.212497 0
M  V30 13 C 1.509426 3.139551 -0.735561 0
M  V30 14 C 0.418943 4.100907 -0.451898 0
M  V30 15 C 1.425447 1.783036 -0.556360 0
M  V30 16 N 0.324389 1.001392 -0.131505 0
M  V30 17 C 0.270214 -0.174632 0.445181 0
M  V30 18 C -1.081361 -0.628122 0.664000 0
M  V30 19 C -2.095830 0.294954 0.478579 0
M  V30 20 C -3.450723 0.052974 0.541595 0
M  V30 21 C -3.897084 -1.201834 0.809694 0
M  V30 22 C -5.320192 -1.529681 0.893003 0
M  V30 23 F -5.982423 -0.838680 -0.108896 0
M  V30 24 F -5.872337 -1.276930 2.134778 0
M  V30 25 F -5.483263 -2.876636 0.627196 0
M  V30 26 C -2.962449 -2.191688 1.008208 0
M  V30 27 C -1.637579 -1.853039 0.923901 0
M  V30 28 H 4.880124 -5.359360 3.920172 0
M  V30 29 H 3.733680 -4.067301 4.392166 0
M  V30 30 H 3.220224 -5.387116 3.306499 0
M  V30 31 H 0.180300 -1.628892 2.395569 0
M  V30 32 H 3.763428 -0.500668 -1.610103 0
M  V30 33 H 3.166970 4.327563 -1.459497 0
M  V30 34 H -0.549440 3.752870 -0.829185 0
M  V30 35 H 0.357952 4.357684 0.630296 0
M  V30 36 H 0.637996 5.044871 -1.020800 0
M  V30 37 H -1.888694 1.355429 0.254209 0
M  V30 38 H -4.205830 0.808918 0.389600 0
M  V30 39 H -3.246827 -3.210150 1.224860 0
M  V30 40 H -0.941390 -2.673328 1.015046 0
M  V30 END ATOM
M  V30 BEGIN BOND
M  V30 1 1 1 2
M  V30 2 1 2 3
M  V30 3 2 3 4
M  V30 4 1 4 5
M  V30 5 2 5 6
M  V30 6 1 6 7
M  V30 7 2 7 8
M  V30 8 1 7 9
M  V30 9 1 9 10
M  V30 10 2 10 11
M  V30 11 1 11 12
M  V30 12 1 12 13
M  V30 13 1 13 14
M  V30 14 2 13 15
M  V30 15 1 15 16
M  V30 16 2 16 17
M  V30 17 1 17 18
M  V30 18 2 18 19
M  V30 19 1 19 20
M  V30 20 2 20 21
M  V30 21 1 21 22
M  V30 22 1 22 23
M  V30 23 1 22 24
M  V30 24 1 22 25
M  V30 25 1 21 26
M  V30 26 2 26 27
M  V30 27 1 8 3
M  V30 28 1 15 10
M  V30 29 1 27 18
M  V30 30 1 17 6
M  V30 31 1 1 28
M  V30 32 1 1 29
M  V30 33 1 1 30
M  V30 34 1 5 31
M  V30 35 1 9 32
M  V30 36 1 12 33
M  V30 37 1 14 34
M  V30 38 1 14 35
M  V30 39 1 14 36
M  V30 40 1 19 37
M  V30 41 1 20 38
M  V30 42 1 26 39
M  V30 43 1 27 40
M  V30 END BOND
M  V30 END CTAB
M  END
>  <Dataset>  (710) 
ChEMBL_Kinases

>  <Ligand_Instance>  (710) 
nan

>  <PDB_ID>  (710) 
nan

>  <Standardized_SMILES>  (710) 
CSc1ncc2c(n1)Nc1n[nH]c(C)c1N=C2c1ccc(C(F)(F)F)cc1

>  <Name>  (710) 
nan

>  <Pocket>  (710) 
nan

>  <ATP_Site>  (710) 
nan

>  <Peripheral>  (710) 
nan

>  <Num_H_Atoms_ProtBoundConf>  (710) 
nan

>  <Num_Resolved_Atoms>  (710) 
nan

>  <Num_Not_Resolved_Atoms>  (710) 
nan

$$$$
CHEMBL4282530
     RDKit          3D

  0  0  0  0  0  0  0  0  0  0999 V3000
M  V30 BEGIN CTAB
M  V30 COUNTS 47 50 0 0 0
M  V30 BEGIN ATOM
M  V30 1 C -1.636351 -4.263146 2.071545 0
M  V30 2 O -2.537543 -4.831214 1.133029 0
M  V30 3 C -2.252130 -4.596535 -0.205162 0
M  V30 4 C -1.155378 -3.854177 -0.587138 0
M  V30 5 C -0.826028 -3.591081 -1.900962 0
M  V30 6 C 0.282823 -2.842029 -2.242080 0
M  V30 7 N 1.075278 -2.350806 -1.174642 0
M  V30 8 C 1.017947 -1.145703 -0.434570 0
M  V30 9 C 1.958614 -0.982567 0.555464 0
M  V30 10 C 1.922502 0.185423 1.291060 0
M  V30 11 C 0.972275 1.150710 1.035469 0
M  V30 12 C 0.804600 2.428860 1.720185 0
M  V30 13 O -0.076638 3.293814 1.463626 0
M  V30 14 N 1.683324 2.761368 2.763182 0
M  V30 15 C 1.810262 3.886511 3.623397 0
M  V30 16 C 2.583204 5.009149 3.355752 0
M  V30 17 C 2.617333 6.037250 4.284601 0
M  V30 18 C 1.891861 5.960887 5.475319 0
M  V30 19 C 1.125617 4.842345 5.735225 0
M  V30 20 C 1.104396 3.839846 4.808494 0
M  V30 21 C 0.041943 0.926098 0.014630 0
M  V30 22 C 0.033651 -0.234807 -0.757967 0
M  V30 23 N 0.539796 -2.626946 -3.559044 0
M  V30 24 C -0.277265 -3.138365 -4.516760 0
M  V30 25 N -1.366387 -3.872850 -4.218887 0
M  V30 26 C -1.639833 -4.098274 -2.920320 0
M  V30 27 C -2.748368 -4.848104 -2.549280 0
M  V30 28 C -3.053674 -5.095903 -1.214723 0
M  V30 29 O -4.155789 -5.841957 -0.828944 0
M  V30 30 H -1.952333 -4.393309 3.116951 0
M  V30 31 H -1.511095 -3.164113 1.931018 0
M  V30 32 H -0.629481 -4.717874 1.896772 0
M  V30 33 H -0.489113 -3.436547 0.176174 0
M  V30 34 H 1.773923 -3.106764 -1.016867 0
M  V30 35 H 2.711881 -1.709593 0.783227 0
M  V30 36 H 2.611138 0.415424 2.088699 0
M  V30 37 H 2.470600 2.172420 3.113426 0
M  V30 38 H 3.120572 5.008503 2.418761 0
M  V30 39 H 3.231000 6.906014 4.050441 0
M  V30 40 H 1.920360 6.762211 6.196001 0
M  V30 41 H 0.555884 4.777387 6.665535 0
M  V30 42 H 0.488863 2.987696 5.061886 0
M  V30 43 H -0.736345 1.652920 -0.236766 0
M  V30 44 H -0.691411 -0.387575 -1.538881 0
M  V30 45 H 0.008682 -2.913870 -5.539528 0
M  V30 46 H -3.401145 -5.256774 -3.312617 0
M  V30 47 H -4.631935 -5.648225 0.046867 0
M  V30 END ATOM
M  V30 BEGIN BOND
M  V30 1 1 1 2
M  V30 2 1 2 3
M  V30 3 2 3 4
M  V30 4 1 4 5
M  V30 5 2 5 6
M  V30 6 1 6 7
M  V30 7 1 7 8
M  V30 8 2 8 9
M  V30 9 1 9 10
M  V30 10 2 10 11
M  V30 11 1 11 12
M  V30 12 2 12 13
M  V30 13 1 12 14
M  V30 14 1 14 15
M  V30 15 2 15 16
M  V30 16 1 16 17
M  V30 17 2 17 18
M  V30 18 1 18 19
M  V30 19 2 19 20
M  V30 20 1 11 21
M  V30 21 2 21 22
M  V30 22 1 6 23
M  V30 23 2 23 24
M  V30 24 1 24 25
M  V30 25 2 25 26
M  V30 26 1 26 27
M  V30 27 2 27 28
M  V30 28 1 28 29
M  V30 29 1 28 3
M  V30 30 1 26 5
M  V30 31 1 22 8
M  V30 32 1 20 15
M  V30 33 1 1 30
M  V30 34 1 1 31
M  V30 35 1 1 32
M  V30 36 1 4 33
M  V30 37 1 7 34
M  V30 38 1 9 35
M  V30 39 1 10 36
M  V30 40 1 14 37
M  V30 41 1 16 38
M  V30 42 1 17 39
M  V30 43 1 18 40
M  V30 44 1 19 41
M  V30 45 1 20 42
M  V30 46 1 21 43
M  V30 47 1 22 44
M  V30 48 1 24 45
M  V30 49 1 27 46
M  V30 50 1 29 47
M  V30 END BOND
M  V30 END CTAB
M  END
>  <Dataset>  (711) 
ChEMBL_Kinases

>  <Ligand_Instance>  (711) 
nan

>  <PDB_ID>  (711) 
nan

>  <Standardized_SMILES>  (711) 
COc1cc2c(Nc3ccc(C(=O)Nc4ccccc4)cc3)ncnc2cc1O

>  <Name>  (711) 
nan

>  <Pocket>  (711) 
nan

>  <ATP_Site>  (711) 
nan

>  <Peripheral>  (711) 
nan

>  <Num_H_Atoms_ProtBoundConf>  (711) 
nan

>  <Num_Resolved_Atoms>  (711) 
nan

>  <Num_Not_Resolved_Atoms>  (711) 
nan

$$$$
CHEMBL4587832
     RDKit          3D

  0  0  0  0  0  0  0  0  0  0999 V3000
M  V30 BEGIN CTAB
M  V30 COUNTS 50 53 0 0 0
M  V30 BEGIN ATOM
M  V30 1 C 2.674451 -5.795250 3.498495 0
M  V30 2 C 1.575970 -4.777848 3.571253 0
M  V30 3 C 0.792115 -4.964640 4.854849 0
M  V30 4 O 0.765682 -4.743095 2.441902 0
M  V30 5 C 0.543243 -3.718198 1.572689 0
M  V30 6 C 1.078921 -2.447874 1.603116 0
M  V30 7 C 0.796768 -1.465310 0.676881 0
M  V30 8 C 1.413959 -0.139968 0.789792 0
M  V30 9 C 2.686740 -0.029793 1.325499 0
M  V30 10 N 3.223527 1.222964 1.413640 0
M  V30 11 C 2.506696 2.277861 0.984461 0
M  V30 12 C 1.238366 2.174321 0.450026 0
M  V30 13 C 0.462515 3.323896 -0.014547 0
M  V30 14 C 0.458337 4.639976 0.460280 0
M  V30 15 N -0.411166 5.378836 -0.261360 0
M  V30 16 N -0.977431 4.595909 -1.191849 0
M  V30 17 C -1.965346 5.094425 -2.134806 0
M  V30 18 C -2.213979 4.140968 -3.253413 0
M  V30 19 O -3.326279 3.586315 -2.622709 0
M  V30 20 C -3.383908 4.718779 -1.812993 0
M  V30 21 C -0.458107 3.362509 -1.049568 0
M  V30 22 C 0.649855 0.916235 0.340129 0
M  V30 23 C -0.076868 -1.749167 -0.358467 0
M  V30 24 C -0.623310 -3.015358 -0.406166 0
M  V30 25 C -0.337736 -3.997573 0.524705 0
M  V30 26 C -0.956178 -5.310341 0.404809 0
M  V30 27 N -1.852606 -5.575801 -0.664268 0
M  V30 28 O -0.705661 -6.210760 1.236627 0
M  V30 29 H 2.769643 -6.283824 4.487141 0
M  V30 30 H 3.637347 -5.305073 3.194921 0
M  V30 31 H 2.403832 -6.563912 2.743636 0
M  V30 32 H 2.062941 -3.773529 3.675245 0
M  V30 33 H 1.429370 -4.836086 5.733765 0
M  V30 34 H 0.418084 -6.009456 4.857998 0
M  V30 35 H -0.103017 -4.306256 4.851619 0
M  V30 36 H 1.749534 -2.229428 2.396885 0
M  V30 37 H 3.210304 -0.940758 1.654932 0
M  V30 38 H 2.932468 3.289577 1.052291 0
M  V30 39 H 1.095383 4.940126 1.296296 0
M  V30 40 H -1.802913 6.152954 -2.411061 0
M  V30 41 H -1.404227 3.373579 -3.413251 0
M  V30 42 H -2.456388 4.629314 -4.225316 0
M  V30 43 H -3.444839 4.428552 -0.738230 0
M  V30 44 H -4.093347 5.503848 -2.122282 0
M  V30 45 H -0.731896 2.514681 -1.671200 0
M  V30 46 H -0.338117 0.793643 -0.071573 0
M  V30 47 H -0.298926 -0.980538 -1.085215 0
M  V30 48 H -1.302173 -3.169439 -1.246887 0
M  V30 49 H -2.481835 -4.825828 -1.077301 0
M  V30 50 H -1.928278 -6.535603 -1.092154 0
M  V30 END ATOM
M  V30 BEGIN BOND
M  V30 1 1 1 2
M  V30 2 1 2 3
M  V30 3 1 2 4
M  V30 4 1 4 5
M  V30 5 2 5 6
M  V30 6 1 6 7
M  V30 7 1 7 8
M  V30 8 2 8 9
M  V30 9 1 9 10
M  V30 10 2 10 11
M  V30 11 1 11 12
M  V30 12 1 12 13
M  V30 13 1 13 14
M  V30 14 2 14 15
M  V30 15 1 15 16
M  V30 16 1 16 17
M  V30 17 1 17 18
M  V30 18 1 18 19
M  V30 19 1 19 20
M  V30 20 1 16 21
M  V30 21 2 12 22
M  V30 22 2 7 23
M  V30 23 1 23 24
M  V30 24 2 24 25
M  V30 25 1 25 26
M  V30 26 1 26 27
M  V30 27 2 26 28
M  V30 28 1 25 5
M  V30 29 1 22 8
M  V30 30 2 21 13
M  V30 31 1 20 17
M  V30 32 1 1 29
M  V30 33 1 1 30
M  V30 34 1 1 31
M  V30 35 1 2 32
M  V30 36 1 3 33
M  V30 37 1 3 34
M  V30 38 1 3 35
M  V30 39 1 6 36
M  V30 40 1 9 37
M  V30 41 1 11 38
M  V30 42 1 14 39
M  V30 43 1 17 40
M  V30 44 1 18 41
M  V30 45 1 18 42
M  V30 46 1 20 43
M  V30 47 1 20 44
M  V30 48 1 21 45
M  V30 49 1 22 46
M  V30 50 1 23 47
M  V30 51 1 24 48
M  V30 52 1 27 49
M  V30 53 1 27 50
M  V30 END BOND
M  V30 END CTAB
M  END
>  <Dataset>  (712) 
ChEMBL_Kinases

>  <Ligand_Instance>  (712) 
nan

>  <PDB_ID>  (712) 
nan

>  <Standardized_SMILES>  (712) 
CC(C)Oc1cc(-c2cncc(-c3cnn(C4COC4)c3)c2)ccc1C(N)=O

>  <Name>  (712) 
nan

>  <Pocket>  (712) 
nan

>  <ATP_Site>  (712) 
nan

>  <Peripheral>  (712) 
nan

>  <Num_H_Atoms_ProtBoundConf>  (712) 
nan

>  <Num_Resolved_Atoms>  (712) 
nan

>  <Num_Not_Resolved_Atoms>  (712) 
nan

$$$$
CHEMBL3680584
     RDKit          3D

  0  0  0  0  0  0  0  0  0  0999 V3000
M  V30 BEGIN CTAB
M  V30 COUNTS 63 67 0 0 0
M  V30 BEGIN ATOM
M  V30 1 N 3.696538 3.963792 6.274307 0
M  V30 2 C 4.918236 3.525339 5.697424 0
M  V30 3 O 6.019286 3.297401 6.314678 0
M  V30 4 C 5.015603 3.284487 4.248081 0
M  V30 5 C 6.190748 2.792445 3.687656 0
M  V30 6 C 6.152307 2.604083 2.310888 0
M  V30 7 C 5.053819 2.870207 1.512292 0
M  V30 8 C 3.907828 3.356981 2.103104 0
M  V30 9 C 2.824884 3.625513 1.303390 0
M  V30 10 N 2.747435 3.418111 -0.095297 0
M  V30 11 C 1.597097 3.719048 -0.920244 0
M  V30 12 C 0.337472 3.102013 -0.443158 0
M  V30 13 C -0.566954 3.804725 0.317850 0
M  V30 14 C -1.749839 3.316395 0.833482 0
M  V30 15 C -2.059878 1.978380 0.555007 0
M  V30 16 C -1.152017 1.245848 -0.219073 0
M  V30 17 N -1.605678 -0.089795 -0.404941 0
M  V30 18 C -2.429834 -0.649262 -1.395005 0
M  V30 19 O -2.895345 0.085852 -2.328106 0
M  V30 20 C -2.739896 -2.071773 -1.331128 0
M  V30 21 C -2.250060 -2.955188 -0.384433 0
M  V30 22 C -2.630932 -4.271761 -0.429815 0
M  V30 23 C -3.467748 -4.831849 -1.334651 0
M  V30 24 N -3.862006 -6.199469 -1.358705 0
M  V30 25 C -4.674420 -6.811711 -2.385326 0
M  V30 26 C -4.026641 -8.070908 -2.846112 0
M  V30 27 C -2.757862 -8.392882 -2.139123 0
M  V30 28 C -2.931335 -8.444494 -0.631584 0
M  V30 29 C -3.412740 -7.051059 -0.278493 0
M  V30 30 O -3.415115 -6.662552 0.923080 0
M  V30 31 C -3.951593 -3.951169 -2.272874 0
M  V30 32 C -3.609877 -2.615730 -2.284625 0
M  V30 33 C 0.018392 1.788990 -0.708187 0
M  V30 34 N 1.761009 4.103748 1.971071 0
M  V30 35 C 1.750447 4.302494 3.295445 0
M  V30 36 N 2.822028 4.032183 4.059932 0
M  V30 37 C 3.920108 3.552220 3.462717 0
M  V30 38 H 2.765422 3.483571 6.369734 0
M  V30 39 H 4.041994 4.918224 6.571789 0
M  V30 40 H 7.049784 2.580733 4.285006 0
M  V30 41 H 7.100418 2.214313 1.914792 0
M  V30 42 H 5.139053 2.684460 0.453563 0
M  V30 43 H 3.548980 3.017741 -0.634228 0
M  V30 44 H 1.425531 4.831099 -0.859801 0
M  V30 45 H 1.786366 3.487801 -1.973248 0
M  V30 46 H -0.429782 4.866631 0.578024 0
M  V30 47 H -2.443692 3.895345 1.432103 0
M  V30 48 H -2.986418 1.594826 0.960092 0
M  V30 49 H -1.166426 -0.584106 0.398827 0
M  V30 50 H -1.576194 -2.558402 0.361528 0
M  V30 51 H -2.179325 -4.863579 0.352859 0
M  V30 52 H -4.881376 -6.138992 -3.246073 0
M  V30 53 H -5.675832 -7.094164 -1.931418 0
M  V30 54 H -4.707799 -8.946618 -2.707337 0
M  V30 55 H -3.882680 -8.015261 -3.955166 0
M  V30 56 H -2.279131 -9.325093 -2.483121 0
M  V30 57 H -2.013796 -7.567852 -2.345316 0
M  V30 58 H -1.979833 -8.686514 -0.165419 0
M  V30 59 H -3.720489 -9.156511 -0.335105 0
M  V30 60 H -4.618835 -4.200743 -3.057723 0
M  V30 61 H -3.992778 -1.908585 -3.032355 0
M  V30 62 H 0.657034 1.145789 -1.297089 0
M  V30 63 H 0.820871 4.692666 3.685850 0
M  V30 END ATOM
M  V30 BEGIN BOND
M  V30 1 1 1 2
M  V30 2 2 2 3
M  V30 3 1 2 4
M  V30 4 2 4 5
M  V30 5 1 5 6
M  V30 6 2 6 7
M  V30 7 1 7 8
M  V30 8 2 8 9
M  V30 9 1 9 10
M  V30 10 1 10 11
M  V30 11 1 11 12
M  V30 12 2 12 13
M  V30 13 1 13 14
M  V30 14 2 14 15
M  V30 15 1 15 16
M  V30 16 1 16 17
M  V30 17 1 17 18
M  V30 18 2 18 19
M  V30 19 1 18 20
M  V30 20 2 20 21
M  V30 21 1 21 22
M  V30 22 2 22 23
M  V30 23 1 23 24
M  V30 24 1 24 25
M  V30 25 1 25 26
M  V30 26 1 26 27
M  V30 27 1 27 28
M  V30 28 1 28 29
M  V30 29 2 29 30
M  V30 30 1 23 31
M  V30 31 2 31 32
M  V30 32 2 16 33
M  V30 33 1 9 34
M  V30 34 2 34 35
M  V30 35 1 35 36
M  V30 36 2 36 37
M  V30 37 1 37 4
M  V30 38 1 37 8
M  V30 39 1 33 12
M  V30 40 1 32 20
M  V30 41 1 29 24
M  V30 42 1 1 38
M  V30 43 1 1 39
M  V30 44 1 5 40
M  V30 45 1 6 41
M  V30 46 1 7 42
M  V30 47 1 10 43
M  V30 48 1 11 44
M  V30 49 1 11 45
M  V30 50 1 13 46
M  V30 51 1 14 47
M  V30 52 1 15 48
M  V30 53 1 17 49
M  V30 54 1 21 50
M  V30 55 1 22 51
M  V30 56 1 25 52
M  V30 57 1 25 53
M  V30 58 1 26 54
M  V30 59 1 26 55
M  V30 60 1 27 56
M  V30 61 1 27 57
M  V30 62 1 28 58
M  V30 63 1 28 59
M  V30 64 1 31 60
M  V30 65 1 32 61
M  V30 66 1 33 62
M  V30 67 1 35 63
M  V30 END BOND
M  V30 END CTAB
M  END
>  <Dataset>  (713) 
ChEMBL_Kinases

>  <Ligand_Instance>  (713) 
nan

>  <PDB_ID>  (713) 
nan

>  <Standardized_SMILES>  (713) 
NC(=O)c1cccc2c(NCc3cccc(NC(=O)c4ccc(N5CCCCC5=O)cc4)c3)ncnc12

>  <Name>  (713) 
nan

>  <Pocket>  (713) 
nan

>  <ATP_Site>  (713) 
nan

>  <Peripheral>  (713) 
nan

>  <Num_H_Atoms_ProtBoundConf>  (713) 
nan

>  <Num_Resolved_Atoms>  (713) 
nan

>  <Num_Not_Resolved_Atoms>  (713) 
nan

$$$$
CHEMBL4282263
     RDKit          3D

  0  0  0  0  0  0  0  0  0  0999 V3000
M  V30 BEGIN CTAB
M  V30 COUNTS 31 33 0 0 0
M  V30 BEGIN ATOM
M  V30 1 N -3.568300 0.253454 1.829384 0
M  V30 2 C -2.282681 0.628913 2.313977 0
M  V30 3 C -1.112012 0.117583 1.744332 0
M  V30 4 C 0.132192 0.482284 2.214848 0
M  V30 5 C 1.302236 -0.099552 1.561737 0
M  V30 6 C 2.604534 0.171620 1.923204 0
M  V30 7 C 3.657644 -0.419224 1.255803 0
M  V30 8 N 3.383151 -1.266076 0.244120 0
M  V30 9 C 2.112616 -1.543375 -0.123618 0
M  V30 10 N 1.828595 -2.440177 -1.194741 0
M  V30 11 C 0.484127 -2.776443 -1.634584 0
M  V30 12 C 0.325369 -3.741066 -2.782081 0
M  V30 13 C -0.002734 -2.269295 -2.965036 0
M  V30 14 N 1.084933 -0.952642 0.544434 0
M  V30 15 C 0.188442 1.369452 3.267664 0
M  V30 16 N -0.910669 1.887587 3.847581 0
M  V30 17 C -2.136490 1.523864 3.378797 0
M  V30 18 O -3.199849 1.988936 3.896956 0
M  V30 19 H -3.968951 0.745264 0.998263 0
M  V30 20 H -4.060489 -0.496588 2.321145 0
M  V30 21 H -1.268695 -0.575405 0.918462 0
M  V30 22 H 2.789327 0.854313 2.737635 0
M  V30 23 H 4.688472 -0.207957 1.537914 0
M  V30 24 H 2.617800 -2.883168 -1.695144 0
M  V30 25 H -0.295607 -2.892415 -0.853345 0
M  V30 26 H -0.509295 -4.449853 -2.794542 0
M  V30 27 H 1.284297 -4.098578 -3.215306 0
M  V30 28 H 0.718583 -1.679925 -3.559005 0
M  V30 29 H -1.061313 -1.978342 -3.094938 0
M  V30 30 H 1.157408 1.663342 3.645761 0
M  V30 31 H -0.828005 2.559155 4.645786 0
M  V30 END ATOM
M  V30 BEGIN BOND
M  V30 1 1 1 2
M  V30 2 2 2 3
M  V30 3 1 3 4
M  V30 4 1 4 5
M  V30 5 2 5 6
M  V30 6 1 6 7
M  V30 7 2 7 8
M  V30 8 1 8 9
M  V30 9 1 9 10
M  V30 10 1 10 11
M  V30 11 1 11 12
M  V30 12 1 12 13
M  V30 13 2 9 14
M  V30 14 2 4 15
M  V30 15 1 15 16
M  V30 16 1 16 17
M  V30 17 2 17 18
M  V30 18 1 17 2
M  V30 19 1 14 5
M  V30 20 1 13 11
M  V30 21 1 1 19
M  V30 22 1 1 20
M  V30 23 1 3 21
M  V30 24 1 6 22
M  V30 25 1 7 23
M  V30 26 1 10 24
M  V30 27 1 11 25
M  V30 28 1 12 26
M  V30 29 1 12 27
M  V30 30 1 13 28
M  V30 31 1 13 29
M  V30 32 1 15 30
M  V30 33 1 16 31
M  V30 END BOND
M  V30 END CTAB
M  END
>  <Dataset>  (714) 
ChEMBL_Kinases

>  <Ligand_Instance>  (714) 
nan

>  <PDB_ID>  (714) 
nan

>  <Standardized_SMILES>  (714) 
Nc1cc(-c2ccnc(NC3CC3)n2)c[nH]c1=O

>  <Name>  (714) 
nan

>  <Pocket>  (714) 
nan

>  <ATP_Site>  (714) 
nan

>  <Peripheral>  (714) 
nan

>  <Num_H_Atoms_ProtBoundConf>  (714) 
nan

>  <Num_Resolved_Atoms>  (714) 
nan

>  <Num_Not_Resolved_Atoms>  (714) 
nan

$$$$
CHEMBL3680583
     RDKit          3D

  0  0  0  0  0  0  0  0  0  0999 V3000
M  V30 BEGIN CTAB
M  V30 COUNTS 52 55 0 0 0
M  V30 BEGIN ATOM
M  V30 1 C 4.114757 -4.385272 1.903443 0
M  V30 2 C 4.396557 -3.294870 2.926084 0
M  V30 3 O 4.087932 -2.062306 2.254018 0
M  V30 4 C 4.227876 -0.841705 2.892564 0
M  V30 5 O 4.627430 -0.811878 4.066834 0
M  V30 6 C 3.923150 0.425378 2.239783 0
M  V30 7 C 4.055807 1.650034 2.864980 0
M  V30 8 O 3.702409 2.602455 2.010686 0
M  V30 9 C 3.349823 2.057900 0.870612 0
M  V30 10 N 2.889493 2.538719 -0.387149 0
M  V30 11 C 1.490251 2.668939 -0.603103 0
M  V30 12 C 0.965771 3.144280 -1.791084 0
M  V30 13 C -0.396987 3.248500 -1.949203 0
M  V30 14 C -1.260438 2.885755 -0.939056 0
M  V30 15 C -0.810064 2.404875 0.268039 0
M  V30 16 C -1.588658 1.956594 1.451813 0
M  V30 17 N -1.807259 0.521712 1.448649 0
M  V30 18 C -2.506086 -0.211865 0.466655 0
M  V30 19 N -3.070726 0.349173 -0.605396 0
M  V30 20 C -3.731466 -0.342908 -1.527283 0
M  V30 21 N -3.884013 -1.693496 -1.446610 0
M  V30 22 C -3.334945 -2.319632 -0.384225 0
M  V30 23 C -3.486549 -3.669939 -0.302972 0
M  V30 24 C -4.207066 -4.423344 -1.306573 0
M  V30 25 N -4.839011 -3.919375 -2.468186 0
M  V30 26 O -4.364554 -5.666378 -1.265115 0
M  V30 27 C -2.955496 -4.379713 0.748867 0
M  V30 28 C -2.265669 -3.676326 1.715936 0
M  V30 29 C -2.142427 -2.311648 1.584359 0
M  V30 30 C -2.658524 -1.566774 0.548524 0
M  V30 31 C 0.582979 2.320957 0.371877 0
M  V30 32 N 3.482972 0.718443 1.003574 0
M  V30 33 H 3.921444 -5.363294 2.377431 0
M  V30 34 H 3.165330 -4.134355 1.365845 0
M  V30 35 H 4.896939 -4.403422 1.135004 0
M  V30 36 H 5.439275 -3.329704 3.252601 0
M  V30 37 H 3.779784 -3.445412 3.821286 0
M  V30 38 H 4.385574 1.862419 3.874163 0
M  V30 39 H 3.524495 2.812388 -1.191030 0
M  V30 40 H 1.621610 3.437707 -2.604908 0
M  V30 41 H -0.853766 3.615272 -2.861095 0
M  V30 42 H -2.334202 2.963606 -1.027938 0
M  V30 43 H -1.034431 2.322262 2.332184 0
M  V30 44 H -2.588384 2.498733 1.474077 0
M  V30 45 H -1.374326 0.079321 2.282978 0
M  V30 46 H -4.110667 0.317958 -2.317664 0
M  V30 47 H -5.668747 -3.352887 -2.190357 0
M  V30 48 H -4.510584 -4.097196 -3.455840 0
M  V30 49 H -3.065579 -5.448984 0.829895 0
M  V30 50 H -1.851954 -4.239180 2.537588 0
M  V30 51 H -1.588952 -1.856060 2.386858 0
M  V30 52 H 1.024209 1.948002 1.301271 0
M  V30 END ATOM
M  V30 BEGIN BOND
M  V30 1 1 1 2
M  V30 2 1 2 3
M  V30 3 1 3 4
M  V30 4 2 4 5
M  V30 5 1 4 6
M  V30 6 2 6 7
M  V30 7 1 7 8
M  V30 8 1 8 9
M  V30 9 1 9 10
M  V30 10 1 10 11
M  V30 11 2 11 12
M  V30 12 1 12 13
M  V30 13 2 13 14
M  V30 14 1 14 15
M  V30 15 1 15 16
M  V30 16 1 16 17
M  V30 17 1 17 18
M  V30 18 2 18 19
M  V30 19 1 19 20
M  V30 20 2 20 21
M  V30 21 1 21 22
M  V30 22 2 22 23
M  V30 23 1 23 24
M  V30 24 1 24 25
M  V30 25 2 24 26
M  V30 26 1 23 27
M  V30 27 2 27 28
M  V30 28 1 28 29
M  V30 29 2 29 30
M  V30 30 2 15 31
M  V30 31 2 9 32
M  V30 32 1 32 6
M  V30 33 1 31 11
M  V30 34 1 30 18
M  V30 35 1 30 22
M  V30 36 1 1 33
M  V30 37 1 1 34
M  V30 38 1 1 35
M  V30 39 1 2 36
M  V30 40 1 2 37
M  V30 41 1 7 38
M  V30 42 1 10 39
M  V30 43 1 12 40
M  V30 44 1 13 41
M  V30 45 1 14 42
M  V30 46 1 16 43
M  V30 47 1 16 44
M  V30 48 1 17 45
M  V30 49 1 20 46
M  V30 50 1 25 47
M  V30 51 1 25 48
M  V30 52 1 27 49
M  V30 53 1 28 50
M  V30 54 1 29 51
M  V30 55 1 31 52
M  V30 END BOND
M  V30 END CTAB
M  END
>  <Dataset>  (715) 
ChEMBL_Kinases

>  <Ligand_Instance>  (715) 
nan

>  <PDB_ID>  (715) 
nan

>  <Standardized_SMILES>  (715) 
CCOC(=O)c1coc(Nc2cccc(CNc3ncnc4c(C(N)=O)cccc34)c2)n1

>  <Name>  (715) 
nan

>  <Pocket>  (715) 
nan

>  <ATP_Site>  (715) 
nan

>  <Peripheral>  (715) 
nan

>  <Num_H_Atoms_ProtBoundConf>  (715) 
nan

>  <Num_Resolved_Atoms>  (715) 
nan

>  <Num_Not_Resolved_Atoms>  (715) 
nan

$$$$
CHEMBL4282410
     RDKit          3D

  0  0  0  0  0  0  0  0  0  0999 V3000
M  V30 BEGIN CTAB
M  V30 COUNTS 26 27 0 0 0
M  V30 BEGIN ATOM
M  V30 1 C -0.913639 -1.489857 3.815536 0
M  V30 2 N -0.908391 -1.182600 2.384893 0
M  V30 3 C 0.237202 -0.689367 1.831660 0
M  V30 4 C 0.204053 -0.410010 0.483150 0
M  V30 5 C 1.491124 0.117197 -0.018140 0
M  V30 6 C 2.735366 -0.211338 0.451080 0
M  V30 7 C 3.837033 0.400910 -0.151007 0
M  V30 8 N 3.687401 1.295269 -1.170416 0
M  V30 9 C 2.441690 1.607843 -1.621807 0
M  V30 10 C 1.335234 1.021078 -1.048952 0
M  V30 11 C -0.877971 -0.584906 -0.345850 0
M  V30 12 C -2.014023 -1.084979 0.254309 0
M  V30 13 N -3.171078 -1.290331 -0.548356 0
M  V30 14 C -1.986653 -1.366033 1.601503 0
M  V30 15 O -3.051972 -1.826850 2.125186 0
M  V30 16 H -0.441008 -2.448851 4.033644 0
M  V30 17 H -1.950270 -1.511337 4.149983 0
M  V30 18 H -0.368693 -0.662977 4.354339 0
M  V30 19 H 1.080373 -0.553277 2.475907 0
M  V30 20 H 2.781701 -0.914106 1.245665 0
M  V30 21 H 4.824038 0.148462 0.212010 0
M  V30 22 H 2.391002 2.323123 -2.431601 0
M  V30 23 H 0.399823 1.326824 -1.468433 0
M  V30 24 H -0.800822 -0.333609 -1.392964 0
M  V30 25 H -3.520084 -2.039974 -1.184625 0
M  V30 26 H -3.665478 -0.377232 -0.318568 0
M  V30 END ATOM
M  V30 BEGIN BOND
M  V30 1 1 1 2
M  V30 2 1 2 3
M  V30 3 2 3 4
M  V30 4 1 4 5
M  V30 5 2 5 6
M  V30 6 1 6 7
M  V30 7 2 7 8
M  V30 8 1 8 9
M  V30 9 2 9 10
M  V30 10 1 4 11
M  V30 11 2 11 12
M  V30 12 1 12 13
M  V30 13 1 12 14
M  V30 14 2 14 15
M  V30 15 1 14 2
M  V30 16 1 10 5
M  V30 17 1 1 16
M  V30 18 1 1 17
M  V30 19 1 1 18
M  V30 20 1 3 19
M  V30 21 1 6 20
M  V30 22 1 7 21
M  V30 23 1 9 22
M  V30 24 1 10 23
M  V30 25 1 11 24
M  V30 26 1 13 25
M  V30 27 1 13 26
M  V30 END BOND
M  V30 END CTAB
M  END
>  <Dataset>  (716) 
ChEMBL_Kinases

>  <Ligand_Instance>  (716) 
nan

>  <PDB_ID>  (716) 
nan

>  <Standardized_SMILES>  (716) 
Cn1cc(-c2ccncc2)cc(N)c1=O

>  <Name>  (716) 
nan

>  <Pocket>  (716) 
nan

>  <ATP_Site>  (716) 
nan

>  <Peripheral>  (716) 
nan

>  <Num_H_Atoms_ProtBoundConf>  (716) 
nan

>  <Num_Resolved_Atoms>  (716) 
nan

>  <Num_Not_Resolved_Atoms>  (716) 
nan

$$$$
CHEMBL4587843
     RDKit          3D

  0  0  0  0  0  0  0  0  0  0999 V3000
M  V30 BEGIN CTAB
M  V30 COUNTS 57 61 0 0 0
M  V30 BEGIN ATOM
M  V30 1 C 6.476348 -3.758035 3.417394 0
M  V30 2 C 5.465485 -4.083185 2.357484 0
M  V30 3 N 4.944607 -5.253775 1.982857 0
M  V30 4 O 4.091674 -5.068394 1.028876 0
M  V30 5 C 3.996859 -3.772946 0.714473 0
M  V30 6 C 3.164343 -3.113496 -0.291013 0
M  V30 7 C 2.314723 -3.784655 -1.129713 0
M  V30 8 C 1.515082 -3.135137 -2.048518 0
M  V30 9 C 1.594380 -1.745150 -2.103487 0
M  V30 10 N 0.972987 -0.813287 -2.843263 0
M  V30 11 C 1.388512 0.414596 -2.514132 0
M  V30 12 N 1.153565 1.772404 -2.858514 0
M  V30 13 C 0.301111 2.503047 -1.978739 0
M  V30 14 C -0.294568 1.963547 -0.872228 0
M  V30 15 C -1.105438 2.531061 0.065839 0
M  V30 16 C -1.737213 1.900596 1.247651 0
M  V30 17 N -3.064361 1.411596 0.973311 0
M  V30 18 C -3.600392 0.831079 2.184549 0
M  V30 19 C -3.479126 -0.681522 2.220864 0
M  V30 20 N -4.183353 -1.324268 1.153311 0
M  V30 21 C -3.635956 -2.596549 0.777926 0
M  V30 22 C -3.847188 -3.626014 1.880339 0
M  V30 23 F -3.323960 -4.870354 1.527015 0
M  V30 24 F -3.203646 -3.142958 3.003911 0
M  V30 25 C -4.346196 -0.445938 0.017594 0
M  V30 26 C -3.133053 0.486625 -0.122267 0
M  V30 27 C -1.359434 3.897935 -0.161223 0
M  V30 28 C -0.765790 4.486215 -1.287266 0
M  V30 29 N 0.035721 3.808094 -2.161950 0
M  V30 30 N 2.304104 0.229043 -1.531555 0
M  V30 31 C 2.455523 -1.101140 -1.251783 0
M  V30 32 C 3.270923 -1.726247 -0.319598 0
M  V30 33 N 4.862526 -3.198234 1.559876 0
M  V30 34 H 6.105032 -4.007681 4.430449 0
M  V30 35 H 7.447844 -4.252311 3.190186 0
M  V30 36 H 6.631056 -2.661552 3.413480 0
M  V30 37 H 2.258901 -4.876858 -1.078075 0
M  V30 38 H 0.830501 -3.616025 -2.728881 0
M  V30 39 H 1.523882 2.286962 -3.664091 0
M  V30 40 H -0.088849 0.890171 -0.706063 0
M  V30 41 H -1.779455 2.666636 2.059269 0
M  V30 42 H -1.042283 1.084438 1.608417 0
M  V30 43 H -3.017688 1.187440 3.070125 0
M  V30 44 H -4.670935 1.141948 2.338341 0
M  V30 45 H -2.441873 -0.981274 2.333108 0
M  V30 46 H -4.003628 -0.989155 3.171050 0
M  V30 47 H -4.265931 -2.957365 -0.085781 0
M  V30 48 H -2.595529 -2.532855 0.438514 0
M  V30 49 H -4.915120 -3.752983 2.109542 0
M  V30 50 H -4.338444 -1.045915 -0.914375 0
M  V30 51 H -5.232295 0.188359 0.081055 0
M  V30 52 H -2.201593 -0.106549 -0.198166 0
M  V30 53 H -3.291749 1.005744 -1.088092 0
M  V30 54 H -1.988817 4.523049 0.481169 0
M  V30 55 H -0.903107 5.547893 -1.549601 0
M  V30 56 H 2.881429 0.947842 -0.989390 0
M  V30 57 H 3.931866 -1.198266 0.330882 0
M  V30 END ATOM
M  V30 BEGIN BOND
M  V30 1 1 1 2
M  V30 2 2 2 3
M  V30 3 1 3 4
M  V30 4 1 4 5
M  V30 5 1 5 6
M  V30 6 2 6 7
M  V30 7 1 7 8
M  V30 8 2 8 9
M  V30 9 1 9 10
M  V30 10 2 10 11
M  V30 11 1 11 12
M  V30 12 1 12 13
M  V30 13 2 13 14
M  V30 14 1 14 15
M  V30 15 1 15 16
M  V30 16 1 16 17
M  V30 17 1 17 18
M  V30 18 1 18 19
M  V30 19 1 19 20
M  V30 20 1 20 21
M  V30 21 1 21 22
M  V30 22 1 22 23
M  V30 23 1 22 24
M  V30 24 1 20 25
M  V30 25 1 25 26
M  V30 26 2 15 27
M  V30 27 1 27 28
M  V30 28 2 28 29
M  V30 29 1 11 30
M  V30 30 1 30 31
M  V30 31 2 31 32
M  V30 32 2 5 33
M  V30 33 1 33 2
M  V30 34 1 32 6
M  V30 35 1 31 9
M  V30 36 1 29 13
M  V30 37 1 26 17
M  V30 38 1 1 34
M  V30 39 1 1 35
M  V30 40 1 1 36
M  V30 41 1 7 37
M  V30 42 1 8 38
M  V30 43 1 12 39
M  V30 44 1 14 40
M  V30 45 1 16 41
M  V30 46 1 16 42
M  V30 47 1 18 43
M  V30 48 1 18 44
M  V30 49 1 19 45
M  V30 50 1 19 46
M  V30 51 1 21 47
M  V30 52 1 21 48
M  V30 53 1 22 49
M  V30 54 1 25 50
M  V30 55 1 25 51
M  V30 56 1 26 52
M  V30 57 1 26 53
M  V30 58 1 27 54
M  V30 59 1 28 55
M  V30 60 1 30 56
M  V30 61 1 32 57
M  V30 END BOND
M  V30 END CTAB
M  END
>  <Dataset>  (717) 
ChEMBL_Kinases

>  <Ligand_Instance>  (717) 
nan

>  <PDB_ID>  (717) 
nan

>  <Standardized_SMILES>  (717) 
Cc1noc(-c2ccc3nc(Nc4cc(CN5CCN(CC(F)F)CC5)ccn4)[nH]c3c2)n1

>  <Name>  (717) 
nan

>  <Pocket>  (717) 
nan

>  <ATP_Site>  (717) 
nan

>  <Peripheral>  (717) 
nan

>  <Num_H_Atoms_ProtBoundConf>  (717) 
nan

>  <Num_Resolved_Atoms>  (717) 
nan

>  <Num_Not_Resolved_Atoms>  (717) 
nan

$$$$
CHEMBL4282366
     RDKit          3D

  0  0  0  0  0  0  0  0  0  0999 V3000
M  V30 BEGIN CTAB
M  V30 COUNTS 44 47 0 0 0
M  V30 BEGIN ATOM
M  V30 1 O 2.145922 -0.741532 -0.175251 0
M  V30 2 C 3.204674 -0.143322 -0.480024 0
M  V30 3 C 4.240258 -0.942503 -1.158534 0
M  V30 4 C 3.762355 -2.344167 -1.331824 0
M  V30 5 C 3.086502 -2.592335 -2.505419 0
M  V30 6 C 2.593420 -3.868291 -2.774469 0
M  V30 7 C 2.807764 -4.856087 -1.830351 0
M  V30 8 C 3.484423 -4.625332 -0.645867 0
M  V30 9 C 3.968988 -3.350392 -0.392745 0
M  V30 10 N 3.336938 1.228480 -0.161614 0
M  V30 11 C 2.424033 2.096498 0.481554 0
M  V30 12 C 2.782149 3.408212 0.683105 0
M  V30 13 N 1.972346 4.291635 1.284947 0
M  V30 14 C 0.745210 3.996796 1.748172 0
M  V30 15 C 0.373595 2.685231 1.552672 0
M  V30 16 C -0.999148 2.268700 2.047318 0
M  V30 17 C -1.568964 1.090989 1.977068 0
M  V30 18 C -2.831060 0.937655 2.495173 0
M  V30 19 C -3.599552 -0.331585 2.487829 0
M  V30 20 C -4.497700 -0.633597 3.492644 0
M  V30 21 C -5.180209 -1.834527 3.422793 0
M  V30 22 C -4.986486 -2.736515 2.376353 0
M  V30 23 N -4.096254 -2.410750 1.403030 0
M  V30 24 C -3.422908 -1.245877 1.454847 0
M  V30 25 C -3.430271 2.077383 3.073869 0
M  V30 26 S -2.059156 3.360101 2.817243 0
M  V30 27 C 1.172935 1.776841 0.948585 0
M  V30 28 H 4.592214 -0.500064 -2.105176 0
M  V30 29 H 5.118922 -0.981685 -0.490412 0
M  V30 30 H 2.915905 -1.808201 -3.255578 0
M  V30 31 H 2.053788 -4.139696 -3.672257 0
M  V30 32 H 2.455755 -5.869507 -1.967263 0
M  V30 33 H 3.647396 -5.404744 0.087299 0
M  V30 34 H 4.502314 -3.107574 0.508096 0
M  V30 35 H 4.260046 1.603892 -0.467572 0
M  V30 36 H 3.743128 3.821469 0.370450 0
M  V30 37 H 0.115113 4.727740 2.228460 0
M  V30 38 H -1.046783 0.262166 1.517981 0
M  V30 39 H -4.654712 0.062638 4.310942 0
M  V30 40 H -5.888984 -2.092354 4.199117 0
M  V30 41 H -5.523589 -3.685620 2.317900 0
M  V30 42 H -2.726705 -1.051200 0.642153 0
M  V30 43 H -4.400703 2.151245 3.524778 0
M  V30 44 H 0.804976 0.778966 0.837567 0
M  V30 END ATOM
M  V30 BEGIN BOND
M  V30 1 2 1 2
M  V30 2 1 2 3
M  V30 3 1 3 4
M  V30 4 2 4 5
M  V30 5 1 5 6
M  V30 6 2 6 7
M  V30 7 1 7 8
M  V30 8 2 8 9
M  V30 9 1 2 10
M  V30 10 1 10 11
M  V30 11 2 11 12
M  V30 12 1 12 13
M  V30 13 2 13 14
M  V30 14 1 14 15
M  V30 15 1 15 16
M  V30 16 2 16 17
M  V30 17 1 17 18
M  V30 18 1 18 19
M  V30 19 2 19 20
M  V30 20 1 20 21
M  V30 21 2 21 22
M  V30 22 1 22 23
M  V30 23 2 23 24
M  V30 24 2 18 25
M  V30 25 1 25 26
M  V30 26 2 15 27
M  V30 27 1 9 4
M  V30 28 1 27 11
M  V30 29 1 26 16
M  V30 30 1 24 19
M  V30 31 1 3 28
M  V30 32 1 3 29
M  V30 33 1 5 30
M  V30 34 1 6 31
M  V30 35 1 7 32
M  V30 36 1 8 33
M  V30 37 1 9 34
M  V30 38 1 10 35
M  V30 39 1 12 36
M  V30 40 1 14 37
M  V30 41 1 17 38
M  V30 42 1 20 39
M  V30 43 1 21 40
M  V30 44 1 22 41
M  V30 45 1 24 42
M  V30 46 1 25 43
M  V30 47 1 27 44
M  V30 END BOND
M  V30 END CTAB
M  END
>  <Dataset>  (718) 
ChEMBL_Kinases

>  <Ligand_Instance>  (718) 
nan

>  <PDB_ID>  (718) 
nan

>  <Standardized_SMILES>  (718) 
O=C(Cc1ccccc1)Nc1cncc(-c2cc(-c3cccnc3)cs2)c1

>  <Name>  (718) 
nan

>  <Pocket>  (718) 
nan

>  <ATP_Site>  (718) 
nan

>  <Peripheral>  (718) 
nan

>  <Num_H_Atoms_ProtBoundConf>  (718) 
nan

>  <Num_Resolved_Atoms>  (718) 
nan

>  <Num_Not_Resolved_Atoms>  (718) 
nan

$$$$
CHEMBL4282338
     RDKit          3D

  0  0  0  0  0  0  0  0  0  0999 V3000
M  V30 BEGIN CTAB
M  V30 COUNTS 50 52 0 0 0
M  V30 BEGIN ATOM
M  V30 1 C -0.598381 -2.349546 1.959042 0
M  V30 2 C 0.576158 -2.358738 2.900034 0 CFG=1
M  V30 3 O 0.733328 -3.621401 3.476770 0
M  V30 4 C 1.859014 -1.975950 2.251396 0 CFG=1
M  V30 5 C 2.927704 -1.824963 3.316480 0
M  V30 6 O 2.276988 -2.889110 1.223375 0
M  V30 7 C 2.555770 -2.271461 -0.026659 0
M  V30 8 N 2.439313 -0.946614 -0.156191 0
M  V30 9 C 2.666762 -0.224125 -1.275524 0
M  V30 10 N 2.418280 1.125713 -0.879838 0
M  V30 11 C 1.026686 1.415080 -0.690540 0
M  V30 12 C 0.845267 2.529621 0.105846 0
M  V30 13 C -0.482682 2.885416 0.374709 0
M  V30 14 C -1.477989 2.128224 -0.153476 0
M  V30 15 S -3.148674 2.537098 0.215311 0 CFG=2 VAL=6
M  V30 16 N -4.061704 2.270481 -0.999357 0
M  V30 17 O -3.291534 3.965946 0.646115 0
M  V30 18 C -3.633775 1.427998 1.534872 0
M  V30 19 C -3.988110 0.017868 1.019783 0
M  V30 20 C -5.026141 0.918817 1.599870 0
M  V30 21 C -1.264013 1.023682 -0.944811 0
M  V30 22 C 0.012974 0.652256 -1.224122 0
M  V30 23 N 3.052961 -0.961871 -2.356604 0
M  V30 24 C 3.173977 -2.300613 -2.240058 0
M  V30 25 C 2.942765 -3.033632 -1.102950 0
M  V30 26 C 3.089095 -4.492438 -1.041059 0
M  V30 27 F 3.484220 -4.924203 -2.296673 0
M  V30 28 F 4.044872 -4.839934 -0.092632 0
M  V30 29 F 1.912500 -5.143601 -0.740148 0
M  V30 30 H -0.488445 -1.463582 1.281642 0
M  V30 31 H -0.669083 -3.283585 1.379633 0
M  V30 32 H -1.540662 -2.221368 2.567323 0
M  V30 33 H 0.403143 -1.646063 3.755940 0
M  V30 34 H 1.427771 -4.098497 2.950763 0
M  V30 35 H 1.743467 -0.942968 1.804370 0
M  V30 36 H 3.908505 -1.826544 2.794934 0
M  V30 37 H 2.837296 -2.665577 4.030350 0
M  V30 38 H 2.783781 -0.844042 3.829243 0
M  V30 39 H 3.219153 1.770047 -0.762504 0
M  V30 40 H 1.667492 3.117132 0.514334 0
M  V30 41 H -0.661463 3.763412 0.999879 0
M  V30 42 H -4.648626 2.978673 -1.447652 0
M  V30 43 H -3.037458 1.490216 2.461136 0
M  V30 44 H -4.046854 -0.136928 -0.079931 0
M  V30 45 H -3.599238 -0.855499 1.560862 0
M  V30 46 H -5.444240 0.605454 2.566569 0
M  V30 47 H -5.764587 1.404328 0.930530 0
M  V30 48 H -2.047344 0.420827 -1.365775 0
M  V30 49 H 0.310730 -0.197832 -1.835376 0
M  V30 50 H 3.482550 -2.749041 -3.169970 0
M  V30 END ATOM
M  V30 BEGIN BOND
M  V30 1 1 1 2
M  V30 2 1 2 3
M  V30 3 1 2 4
M  V30 4 1 4 5
M  V30 5 1 4 6
M  V30 6 1 6 7
M  V30 7 2 7 8
M  V30 8 1 8 9
M  V30 9 1 9 10
M  V30 10 1 10 11
M  V30 11 2 11 12
M  V30 12 1 12 13
M  V30 13 2 13 14
M  V30 14 1 14 15
M  V30 15 2 15 16
M  V30 16 2 15 17
M  V30 17 1 15 18 CFG=1
M  V30 18 1 18 19
M  V30 19 1 19 20
M  V30 20 1 14 21
M  V30 21 2 21 22
M  V30 22 2 9 23
M  V30 23 1 23 24
M  V30 24 2 24 25
M  V30 25 1 25 26
M  V30 26 1 26 27
M  V30 27 1 26 28
M  V30 28 1 26 29
M  V30 29 1 25 7
M  V30 30 1 22 11
M  V30 31 1 20 18
M  V30 32 1 1 30
M  V30 33 1 1 31
M  V30 34 1 1 32
M  V30 35 1 2 33 CFG=1
M  V30 36 1 3 34
M  V30 37 1 4 35 CFG=3
M  V30 38 1 5 36
M  V30 39 1 5 37
M  V30 40 1 5 38
M  V30 41 1 10 39
M  V30 42 1 12 40
M  V30 43 1 13 41
M  V30 44 1 16 42
M  V30 45 1 18 43
M  V30 46 1 19 44
M  V30 47 1 19 45
M  V30 48 1 20 46
M  V30 49 1 20 47
M  V30 50 1 21 48
M  V30 51 1 22 49
M  V30 52 1 24 50
M  V30 END BOND
M  V30 END CTAB
M  END
>  <Dataset>  (719) 
ChEMBL_Kinases

>  <Ligand_Instance>  (719) 
nan

>  <PDB_ID>  (719) 
nan

>  <Standardized_SMILES>  (719) 
C[C@@H](O)[C@@H](C)Oc1nc(Nc2ccc([S@](=N)(=O)C3CC3)cc2)ncc1C(F)(F)F

>  <Name>  (719) 
nan

>  <Pocket>  (719) 
nan

>  <ATP_Site>  (719) 
nan

>  <Peripheral>  (719) 
nan

>  <Num_H_Atoms_ProtBoundConf>  (719) 
nan

>  <Num_Resolved_Atoms>  (719) 
nan

>  <Num_Not_Resolved_Atoms>  (719) 
nan

$$$$
CHEMBL4282315
     RDKit          3D

  0  0  0  0  0  0  0  0  0  0999 V3000
M  V30 BEGIN CTAB
M  V30 COUNTS 57 60 0 0 0
M  V30 BEGIN ATOM
M  V30 1 C 0.204472 -3.873402 6.353150 0
M  V30 2 O -0.899751 -4.505667 5.688303 0
M  V30 3 C -1.084541 -4.135475 4.327815 0
M  V30 4 C -2.202524 -4.806574 3.704463 0
M  V30 5 C -2.103888 -4.272398 2.442424 0
M  V30 6 N -2.929109 -4.802692 1.547524 0
M  V30 7 C -3.062977 -4.607487 0.243061 0
M  V30 8 O -3.669766 -4.893479 -0.843020 0
M  V30 9 C -2.366075 -3.739691 -0.737053 0
M  V30 10 C -1.667690 -2.922176 -1.643796 0
M  V30 11 O -2.322493 -2.323741 -2.538025 0
M  V30 12 N -0.433251 -2.476851 -1.975866 0
M  V30 13 C 0.783972 -2.027575 -2.315607 0
M  V30 14 C 1.265766 -0.835478 -1.703058 0
M  V30 15 C 2.462032 -0.132054 -1.708803 0
M  V30 16 C 2.622273 1.117381 -0.970504 0
M  V30 17 O 3.505946 1.700205 -0.355219 0
M  V30 18 N 1.309742 1.840879 -1.035443 0
M  V30 19 C 0.851406 3.100509 -0.488842 0
M  V30 20 C -0.240951 2.675931 0.601651 0
M  V30 21 C 0.435049 1.766475 1.568198 0
M  V30 22 N -0.391635 1.254206 2.673506 0
M  V30 23 C 0.043823 3.909383 -1.362287 0
M  V30 24 C -0.897954 3.305361 -2.037664 0
M  V30 25 C -1.926969 3.610427 -3.001410 0
M  V30 26 S -1.431051 5.469140 -2.983566 0
M  V30 27 C -0.084186 5.313466 -1.789542 0
M  V30 28 C 3.213983 -0.884445 -2.513934 0
M  V30 29 C 3.137954 -2.013862 -3.245066 0
M  V30 30 C 1.868350 -2.518135 -3.081732 0
M  V30 31 Cl 1.189924 -3.971531 -3.847993 0
M  V30 32 C -1.396240 -3.115289 0.404211 0
M  V30 33 C -1.436874 -3.483144 1.754930 0
M  V30 34 C -0.361589 -2.890986 2.542430 0
M  V30 35 N -0.186630 -3.216920 3.813434 0
M  V30 36 H 0.820682 -3.246764 5.650054 0
M  V30 37 H -0.015511 -3.497008 7.301120 0
M  V30 38 H 0.895839 -4.805558 6.465174 0
M  V30 39 H -2.904286 -5.490958 4.081867 0
M  V30 40 H -3.745689 -5.502698 1.667564 0
M  V30 41 H 0.126194 -3.071562 -1.279884 0
M  V30 42 H 0.521914 -0.369260 -0.994682 0
M  V30 43 H 0.478498 1.486169 -1.547966 0
M  V30 44 H 1.639679 3.615726 0.014334 0
M  V30 45 H -1.118098 2.235251 0.168562 0
M  V30 46 H -0.496105 3.690464 1.021644 0
M  V30 47 H 0.908770 0.962379 0.999390 0
M  V30 48 H 1.283626 2.337853 2.076866 0
M  V30 49 H -0.720329 2.065680 3.256139 0
M  V30 50 H 0.252615 0.597262 3.238051 0
M  V30 51 H -1.211688 2.236559 -1.942418 0
M  V30 52 H -2.729032 3.100206 -3.606078 0
M  V30 53 H 0.585366 6.001551 -1.310167 0
M  V30 54 H 4.223619 -0.424794 -2.656564 0
M  V30 55 H 3.748834 -2.624018 -3.860892 0
M  V30 56 H -0.649315 -2.279776 0.288759 0
M  V30 57 H 0.367881 -2.144766 2.173546 0
M  V30 END ATOM
M  V30 BEGIN BOND
M  V30 1 1 1 2
M  V30 2 1 2 3
M  V30 3 2 3 4
M  V30 4 1 4 5
M  V30 5 1 5 6
M  V30 6 1 6 7
M  V30 7 2 7 8
M  V30 8 1 7 9
M  V30 9 1 9 10
M  V30 10 2 10 11
M  V30 11 1 10 12
M  V30 12 1 12 13
M  V30 13 2 13 14
M  V30 14 1 14 15
M  V30 15 1 15 16
M  V30 16 2 16 17
M  V30 17 1 16 18
M  V30 18 1 18 19
M  V30 19 1 19 20
M  V30 20 1 20 21
M  V30 21 1 21 22
M  V30 22 1 19 23
M  V30 23 1 23 24
M  V30 24 2 24 25
M  V30 25 1 25 26
M  V30 26 1 26 27
M  V30 27 2 15 28
M  V30 28 1 28 29
M  V30 29 2 29 30
M  V30 30 1 30 31
M  V30 31 2 9 32
M  V30 32 1 32 33
M  V30 33 1 33 34
M  V30 34 2 34 35
M  V30 35 1 35 3
M  V30 36 2 33 5
M  V30 37 1 30 13
M  V30 38 2 27 23
M  V30 39 1 1 36
M  V30 40 1 1 37
M  V30 41 1 1 38
M  V30 42 1 4 39
M  V30 43 1 6 40
M  V30 44 1 12 41
M  V30 45 1 14 42
M  V30 46 1 18 43
M  V30 47 1 19 44
M  V30 48 1 20 45
M  V30 49 1 20 46
M  V30 50 1 21 47
M  V30 51 1 21 48
M  V30 52 1 22 49
M  V30 53 1 22 50
M  V30 54 1 24 51
M  V30 55 1 25 52
M  V30 56 1 27 53
M  V30 57 1 28 54
M  V30 58 1 29 55
M  V30 59 1 32 56
M  V30 60 1 34 57
M  V30 END BOND
M  V30 END CTAB
M  END
>  <Dataset>  (720) 
ChEMBL_Kinases

>  <Ligand_Instance>  (720) 
nan

>  <PDB_ID>  (720) 
nan

>  <Standardized_SMILES>  (720) 
COc1cc2[nH]c(=O)c(C(=O)Nc3cc(C(=O)NC(CCN)c4ccsc4)ccc3Cl)cc2cn1

>  <Name>  (720) 
nan

>  <Pocket>  (720) 
nan

>  <ATP_Site>  (720) 
nan

>  <Peripheral>  (720) 
nan

>  <Num_H_Atoms_ProtBoundConf>  (720) 
nan

>  <Num_Resolved_Atoms>  (720) 
nan

>  <Num_Not_Resolved_Atoms>  (720) 
nan

$$$$
CHEMBL4588109
     RDKit          3D

  0  0  0  0  0  0  0  0  0  0999 V3000
M  V30 BEGIN CTAB
M  V30 COUNTS 62 65 0 0 0
M  V30 BEGIN ATOM
M  V30 1 C 4.308558 -2.502987 4.114066 0
M  V30 2 O 4.296561 -1.173792 4.574187 0
M  V30 3 C 3.989005 -0.075697 3.804634 0
M  V30 4 C 4.004904 1.189123 4.347812 0
M  V30 5 C 3.709229 2.327913 3.639499 0
M  V30 6 C 3.376394 2.242074 2.321802 0
M  V30 7 C 3.341225 1.006935 1.715164 0
M  V30 8 C 3.648882 -0.132460 2.468996 0
M  V30 9 C 2.997469 0.817256 0.293555 0
M  V30 10 C 1.947337 1.754009 -0.191950 0
M  V30 11 C 0.579059 1.170632 -0.111155 0
M  V30 12 O -0.164734 0.980859 -1.131935 0
M  V30 13 N -0.084865 0.748982 1.089409 0
M  V30 14 C -1.370228 0.250556 0.688000 0
M  V30 15 C -2.338045 1.243693 0.603913 0
M  V30 16 C -3.631628 0.929497 0.236424 0
M  V30 17 C -3.932040 -0.386840 -0.041853 0
M  V30 18 C -5.251255 -0.856594 -0.440588 0
M  V30 19 C -6.447068 -0.308929 -0.031495 0
M  V30 20 C -7.715366 -0.708584 -0.373441 0
M  V30 21 N -7.799280 -1.771769 -1.216629 0
M  V30 22 C -6.678480 -2.364706 -1.663089 0
M  V30 23 C -5.415618 -1.943430 -1.303862 0
M  V30 24 C -2.962811 -1.338379 0.049505 0
M  V30 25 C -1.674859 -1.090831 0.405078 0
M  V30 26 O -0.559863 -1.876633 0.559877 0
M  V30 27 C -0.386477 -3.224346 0.394533 0
M  V30 28 C -0.604423 -3.839344 -0.935506 0
M  V30 29 N 0.210320 -3.388580 -2.008965 0
M  V30 30 C 0.009756 -2.063423 -2.476449 0
M  V30 31 C 1.607336 -3.741768 -1.856738 0
M  V30 32 C 1.966001 3.078175 0.499642 0
M  V30 33 O 3.041855 3.235584 1.410666 0
M  V30 34 H 4.574222 -2.608583 3.050441 0
M  V30 35 H 5.073701 -3.053436 4.730046 0
M  V30 36 H 3.292941 -2.937436 4.235625 0
M  V30 37 H 4.264164 1.295765 5.389161 0
M  V30 38 H 3.712060 3.334720 4.029322 0
M  V30 39 H 3.628041 -1.133609 2.009557 0
M  V30 40 H 2.661668 -0.225415 0.083326 0
M  V30 41 H 3.930744 0.994928 -0.311792 0
M  V30 42 H 2.128302 1.900649 -1.287844 0
M  V30 43 H 0.448501 0.871436 1.979378 0
M  V30 44 H -2.145022 2.286462 0.812416 0
M  V30 45 H -4.422219 1.672805 0.156828 0
M  V30 46 H -6.400559 0.550901 0.649634 0
M  V30 47 H -8.586436 -0.209795 0.004941 0
M  V30 48 H -6.727721 -3.210495 -2.334837 0
M  V30 49 H -4.527085 -2.459745 -1.693747 0
M  V30 50 H -3.151270 -2.369779 -0.151205 0
M  V30 51 H 0.668074 -3.468271 0.732960 0
M  V30 52 H -1.008807 -3.842378 1.122304 0
M  V30 53 H -1.664362 -3.786842 -1.294501 0
M  V30 54 H -0.436623 -4.962065 -0.855006 0
M  V30 55 H 0.795211 -1.350851 -2.158282 0
M  V30 56 H -1.025584 -1.714241 -2.318256 0
M  V30 57 H 0.117453 -2.093198 -3.604837 0
M  V30 58 H 2.239208 -2.838096 -1.758663 0
M  V30 59 H 1.921575 -4.281985 -2.774059 0
M  V30 60 H 1.719656 -4.447247 -1.016575 0
M  V30 61 H 1.022109 3.198151 1.083722 0
M  V30 62 H 2.080026 3.879213 -0.259453 0
M  V30 END ATOM
M  V30 BEGIN BOND
M  V30 1 1 1 2
M  V30 2 1 2 3
M  V30 3 2 3 4
M  V30 4 1 4 5
M  V30 5 2 5 6
M  V30 6 1 6 7
M  V30 7 2 7 8
M  V30 8 1 7 9
M  V30 9 1 9 10
M  V30 10 1 10 11
M  V30 11 2 11 12
M  V30 12 1 11 13
M  V30 13 1 13 14
M  V30 14 2 14 15
M  V30 15 1 15 16
M  V30 16 2 16 17
M  V30 17 1 17 18
M  V30 18 2 18 19
M  V30 19 1 19 20
M  V30 20 2 20 21
M  V30 21 1 21 22
M  V30 22 2 22 23
M  V30 23 1 17 24
M  V30 24 2 24 25
M  V30 25 1 25 26
M  V30 26 1 26 27
M  V30 27 1 27 28
M  V30 28 1 28 29
M  V30 29 1 29 30
M  V30 30 1 29 31
M  V30 31 1 10 32
M  V30 32 1 32 33
M  V30 33 1 8 3
M  V30 34 1 25 14
M  V30 35 1 33 6
M  V30 36 1 23 18
M  V30 37 1 1 34
M  V30 38 1 1 35
M  V30 39 1 1 36
M  V30 40 1 4 37
M  V30 41 1 5 38
M  V30 42 1 8 39
M  V30 43 1 9 40
M  V30 44 1 9 41
M  V30 45 1 10 42
M  V30 46 1 13 43
M  V30 47 1 15 44
M  V30 48 1 16 45
M  V30 49 1 19 46
M  V30 50 1 20 47
M  V30 51 1 22 48
M  V30 52 1 23 49
M  V30 53 1 24 50
M  V30 54 1 27 51
M  V30 55 1 27 52
M  V30 56 1 28 53
M  V30 57 1 28 54
M  V30 58 1 30 55
M  V30 59 1 30 56
M  V30 60 1 30 57
M  V30 61 1 31 58
M  V30 62 1 31 59
M  V30 63 1 31 60
M  V30 64 1 32 61
M  V30 65 1 32 62
M  V30 END BOND
M  V30 END CTAB
M  END
>  <Dataset>  (721) 
ChEMBL_Kinases

>  <Ligand_Instance>  (721) 
nan

>  <PDB_ID>  (721) 
nan

>  <Standardized_SMILES>  (721) 
COc1ccc2c(c1)CC(C(=O)Nc1ccc(-c3ccncc3)cc1OCCN(C)C)CO2

>  <Name>  (721) 
nan

>  <Pocket>  (721) 
nan

>  <ATP_Site>  (721) 
nan

>  <Peripheral>  (721) 
nan

>  <Num_H_Atoms_ProtBoundConf>  (721) 
nan

>  <Num_Resolved_Atoms>  (721) 
nan

>  <Num_Not_Resolved_Atoms>  (721) 
nan

$$$$
CHEMBL4282268
     RDKit          3D

  0  0  0  0  0  0  0  0  0  0999 V3000
M  V30 BEGIN CTAB
M  V30 COUNTS 40 43 0 0 0
M  V30 BEGIN ATOM
M  V30 1 C 1.824714 -6.213486 2.347905 0
M  V30 2 C 1.507164 -4.795199 2.117897 0
M  V30 3 C 1.994184 -3.632959 2.641136 0
M  V30 4 C 1.363974 -2.531083 2.095134 0
M  V30 5 N 1.574092 -1.136182 2.386412 0
M  V30 6 C 0.776914 -0.249910 1.582665 0
M  V30 7 N 1.262459 0.496301 0.597688 0
M  V30 8 C 0.512881 1.312099 -0.165422 0
M  V30 9 C 1.086911 2.119157 -1.235726 0
M  V30 10 C 0.272770 2.947183 -1.973434 0
M  V30 11 C 0.816214 3.731423 -2.998214 0
M  V30 12 C 2.173520 3.604356 -3.191851 0
M  V30 13 C 3.048096 2.784348 -2.479780 0
M  V30 14 C 2.455435 2.028171 -1.473492 0
M  V30 15 N -0.803926 1.336010 0.127590 0
M  V30 16 C -1.357306 0.606294 1.109148 0
M  V30 17 C -2.703542 0.621180 1.402596 0
M  V30 18 N -3.525835 1.459441 0.609524 0 CHG=1 VAL=4
M  V30 19 O -4.716766 1.453578 0.247403 0
M  V30 20 O -3.270641 2.629560 -0.061369 0 CHG=-1 VAL=1
M  V30 21 C -3.284534 -0.121540 2.389820 0
M  V30 22 C -2.483968 -0.958558 3.165968 0
M  V30 23 C -1.120822 -0.986947 2.884409 0
M  V30 24 C -0.576872 -0.222461 1.880482 0
M  V30 25 N 0.486566 -3.091786 1.229159 0
M  V30 26 N 0.568226 -4.403660 1.242197 0
M  V30 27 H 2.725623 -6.528758 1.742404 0
M  V30 28 H 0.965761 -6.878529 2.043185 0
M  V30 29 H 2.120877 -6.413755 3.394299 0
M  V30 30 H 2.776058 -3.593475 3.385162 0
M  V30 31 H 2.281959 -0.940879 3.147132 0
M  V30 32 H -0.787785 3.046483 -1.823958 0
M  V30 33 H 0.248826 4.405554 -3.623271 0
M  V30 34 H 2.599726 4.208631 -3.984965 0
M  V30 35 H 4.096780 2.777693 -2.735650 0
M  V30 36 H 3.122879 1.392679 -0.917896 0
M  V30 37 H -4.353485 -0.068239 2.573609 0
M  V30 38 H -2.870754 -1.564969 3.949475 0
M  V30 39 H -0.500895 -1.641189 3.491447 0
M  V30 40 H -0.101998 -4.835026 0.587008 0
M  V30 END ATOM
M  V30 BEGIN BOND
M  V30 1 1 1 2
M  V30 2 2 2 3
M  V30 3 1 3 4
M  V30 4 1 4 5
M  V30 5 1 5 6
M  V30 6 2 6 7
M  V30 7 1 7 8
M  V30 8 1 8 9
M  V30 9 2 9 10
M  V30 10 1 10 11
M  V30 11 2 11 12
M  V30 12 1 12 13
M  V30 13 2 13 14
M  V30 14 2 8 15
M  V30 15 1 15 16
M  V30 16 2 16 17
M  V30 17 1 17 18
M  V30 18 2 18 19
M  V30 19 1 18 20
M  V30 20 1 17 21
M  V30 21 2 21 22
M  V30 22 1 22 23
M  V30 23 2 23 24
M  V30 24 2 4 25
M  V30 25 1 25 26
M  V30 26 1 26 2
M  V30 27 1 24 6
M  V30 28 1 14 9
M  V30 29 1 24 16
M  V30 30 1 1 27
M  V30 31 1 1 28
M  V30 32 1 1 29
M  V30 33 1 3 30
M  V30 34 1 5 31
M  V30 35 1 10 32
M  V30 36 1 11 33
M  V30 37 1 12 34
M  V30 38 1 13 35
M  V30 39 1 14 36
M  V30 40 1 21 37
M  V30 41 1 22 38
M  V30 42 1 23 39
M  V30 43 1 26 40
M  V30 END BOND
M  V30 END CTAB
M  END
>  <Dataset>  (722) 
ChEMBL_Kinases

>  <Ligand_Instance>  (722) 
nan

>  <PDB_ID>  (722) 
nan

>  <Standardized_SMILES>  (722) 
Cc1cc(Nc2nc(-c3ccccc3)nc3c([N+](=O)[O-])cccc23)n[nH]1

>  <Name>  (722) 
nan

>  <Pocket>  (722) 
nan

>  <ATP_Site>  (722) 
nan

>  <Peripheral>  (722) 
nan

>  <Num_H_Atoms_ProtBoundConf>  (722) 
nan

>  <Num_Resolved_Atoms>  (722) 
nan

>  <Num_Not_Resolved_Atoms>  (722) 
nan

$$$$
CHEMBL4588193
     RDKit          3D

  0  0  0  0  0  0  0  0  0  0999 V3000
M  V30 BEGIN CTAB
M  V30 COUNTS 51 53 0 0 0
M  V30 BEGIN ATOM
M  V30 1 C 1.379039 -4.587939 2.520296 0
M  V30 2 C 0.345291 -3.673496 1.877402 0
M  V30 3 C -0.926412 -3.878095 2.708362 0
M  V30 4 O 0.168032 -4.034098 0.544210 0
M  V30 5 C 0.359637 -3.257301 -0.570020 0
M  V30 6 C 0.772765 -1.940872 -0.576906 0
M  V30 7 C 0.956931 -1.184338 -1.711172 0
M  V30 8 C 1.392626 0.205048 -1.630578 0
M  V30 9 C 2.164653 0.878874 -2.555202 0
M  V30 10 N 2.498738 2.168841 -2.364743 0
M  V30 11 C 2.103666 2.859354 -1.278892 0
M  V30 12 C 1.332894 2.258759 -0.312871 0
M  V30 13 C 0.867191 2.949030 0.894920 0
M  V30 14 C 1.401534 3.952890 1.675887 0
M  V30 15 N 0.518972 4.173454 2.656010 0
M  V30 16 N -0.533153 3.405881 2.579261 0
M  V30 17 C -1.695483 3.367645 3.470607 0
M  V30 18 C -1.360627 2.603545 4.738826 0
M  V30 19 C -2.800590 2.571759 2.797584 0
M  V30 20 C -0.348392 2.631991 1.495249 0
M  V30 21 C 1.000693 0.936278 -0.525841 0
M  V30 22 C 0.701755 -1.817501 -2.916034 0
M  V30 23 C 0.281400 -3.147977 -2.970707 0
M  V30 24 C 0.127614 -3.813777 -1.791121 0
M  V30 25 C -0.312629 -5.207303 -1.814044 0
M  V30 26 N -0.577817 -5.863500 -3.039723 0
M  V30 27 O -0.481157 -5.899074 -0.776912 0
M  V30 28 H 2.382031 -4.459633 2.107463 0
M  V30 29 H 1.404944 -4.372661 3.628575 0
M  V30 30 H 1.029782 -5.652699 2.476112 0
M  V30 31 H 0.703026 -2.623557 2.023890 0
M  V30 32 H -1.830059 -3.852395 2.068267 0
M  V30 33 H -0.918874 -4.854226 3.233246 0
M  V30 34 H -0.978669 -3.075006 3.495169 0
M  V30 35 H 0.967334 -1.469729 0.376311 0
M  V30 36 H 2.471709 0.306438 -3.420933 0
M  V30 37 H 2.358745 3.903036 -1.095752 0
M  V30 38 H 2.356206 4.395603 1.435208 0
M  V30 39 H -1.999840 4.397779 3.734586 0
M  V30 40 H -0.751695 1.720010 4.422159 0
M  V30 41 H -0.770550 3.179373 5.449403 0
M  V30 42 H -2.338085 2.246413 5.155842 0
M  V30 43 H -3.150980 3.021547 1.868595 0
M  V30 44 H -3.624401 2.494074 3.564876 0
M  V30 45 H -2.414664 1.546032 2.695782 0
M  V30 46 H -1.076162 1.893315 1.189127 0
M  V30 47 H 0.387215 0.472573 0.247978 0
M  V30 48 H 0.834707 -1.257601 -3.839971 0
M  V30 49 H 0.086403 -3.621083 -3.928600 0
M  V30 50 H -1.546716 -5.754600 -3.361896 0
M  V30 51 H -0.670878 -6.367787 -3.924627 0
M  V30 END ATOM
M  V30 BEGIN BOND
M  V30 1 1 1 2
M  V30 2 1 2 3
M  V30 3 1 2 4
M  V30 4 1 4 5
M  V30 5 2 5 6
M  V30 6 1 6 7
M  V30 7 1 7 8
M  V30 8 2 8 9
M  V30 9 1 9 10
M  V30 10 2 10 11
M  V30 11 1 11 12
M  V30 12 1 12 13
M  V30 13 1 13 14
M  V30 14 2 14 15
M  V30 15 1 15 16
M  V30 16 1 16 17
M  V30 17 1 17 18
M  V30 18 1 17 19
M  V30 19 1 16 20
M  V30 20 2 12 21
M  V30 21 2 7 22
M  V30 22 1 22 23
M  V30 23 2 23 24
M  V30 24 1 24 25
M  V30 25 1 25 26
M  V30 26 2 25 27
M  V30 27 1 24 5
M  V30 28 1 21 8
M  V30 29 2 20 13
M  V30 30 1 1 28
M  V30 31 1 1 29
M  V30 32 1 1 30
M  V30 33 1 2 31
M  V30 34 1 3 32
M  V30 35 1 3 33
M  V30 36 1 3 34
M  V30 37 1 6 35
M  V30 38 1 9 36
M  V30 39 1 11 37
M  V30 40 1 14 38
M  V30 41 1 17 39
M  V30 42 1 18 40
M  V30 43 1 18 41
M  V30 44 1 18 42
M  V30 45 1 19 43
M  V30 46 1 19 44
M  V30 47 1 19 45
M  V30 48 1 20 46
M  V30 49 1 21 47
M  V30 50 1 22 48
M  V30 51 1 23 49
M  V30 52 1 26 50
M  V30 53 1 26 51
M  V30 END BOND
M  V30 END CTAB
M  END
>  <Dataset>  (723) 
ChEMBL_Kinases

>  <Ligand_Instance>  (723) 
nan

>  <PDB_ID>  (723) 
nan

>  <Standardized_SMILES>  (723) 
CC(C)Oc1cc(-c2cncc(-c3cnn(C(C)C)c3)c2)ccc1C(N)=O

>  <Name>  (723) 
nan

>  <Pocket>  (723) 
nan

>  <ATP_Site>  (723) 
nan

>  <Peripheral>  (723) 
nan

>  <Num_H_Atoms_ProtBoundConf>  (723) 
nan

>  <Num_Resolved_Atoms>  (723) 
nan

>  <Num_Not_Resolved_Atoms>  (723) 
nan

$$$$
CHEMBL4282473
     RDKit          3D

  0  0  0  0  0  0  0  0  0  0999 V3000
M  V30 BEGIN CTAB
M  V30 COUNTS 37 40 0 0 0
M  V30 BEGIN ATOM
M  V30 1 C 2.863252 -5.279913 3.799244 0
M  V30 2 S 3.642947 -4.130204 2.658719 0
M  V30 3 C 2.485517 -2.987409 1.958121 0
M  V30 4 N 1.150132 -2.982888 2.254470 0
M  V30 5 C 0.295893 -2.101983 1.701883 0
M  V30 6 C 0.873200 -1.216406 0.818836 0
M  V30 7 C 2.213846 -1.196177 0.508631 0
M  V30 8 N 3.059783 -2.103900 1.085213 0
M  V30 9 N 2.941127 -0.241580 -0.300258 0
M  V30 10 C 2.485490 1.137772 -0.310017 0
M  V30 11 N 3.368787 2.183811 -0.385163 0
M  V30 12 N 2.641960 3.308666 -0.344916 0
M  V30 13 C 1.307246 3.020043 -0.246040 0
M  V30 14 C 0.182021 3.953011 -0.174331 0
M  V30 15 C 1.181595 1.659223 -0.223643 0
M  V30 16 N 0.023714 0.840954 -0.183947 0
M  V30 17 C -0.157411 -0.376777 0.239855 0
M  V30 18 C -1.507950 -0.845638 0.047768 0
M  V30 19 C -2.461873 0.114883 -0.314317 0
M  V30 20 C -3.779043 -0.115657 -0.635902 0
M  V30 21 C -4.248259 -1.404827 -0.612404 0
M  V30 22 C -3.391149 -2.424072 -0.270921 0
M  V30 23 F -3.779852 -3.718564 -0.225891 0
M  V30 24 C -2.100471 -2.078215 0.029267 0
M  V30 25 H 2.630656 -4.777289 4.772738 0
M  V30 26 H 1.861523 -5.616955 3.425455 0
M  V30 27 H 3.535141 -6.154509 3.923282 0
M  V30 28 H -0.747191 -2.023913 1.951803 0
M  V30 29 H 3.769499 -0.559959 -0.822672 0
M  V30 30 H 3.096750 4.241634 -0.387915 0
M  V30 31 H -0.237200 3.945530 0.850980 0
M  V30 32 H -0.665381 3.670830 -0.843880 0
M  V30 33 H 0.466166 5.002592 -0.386299 0
M  V30 34 H -2.218300 1.189942 -0.372400 0
M  V30 35 H -4.476108 0.653263 -0.907559 0
M  V30 36 H -5.271430 -1.634362 -0.855275 0
M  V30 37 H -1.436980 -2.907379 0.220457 0
M  V30 END ATOM
M  V30 BEGIN BOND
M  V30 1 1 1 2
M  V30 2 1 2 3
M  V30 3 2 3 4
M  V30 4 1 4 5
M  V30 5 2 5 6
M  V30 6 1 6 7
M  V30 7 2 7 8
M  V30 8 1 7 9
M  V30 9 1 9 10
M  V30 10 2 10 11
M  V30 11 1 11 12
M  V30 12 1 12 13
M  V30 13 1 13 14
M  V30 14 2 13 15
M  V30 15 1 15 16
M  V30 16 2 16 17
M  V30 17 1 17 18
M  V30 18 2 18 19
M  V30 19 1 19 20
M  V30 20 2 20 21
M  V30 21 1 21 22
M  V30 22 1 22 23
M  V30 23 2 22 24
M  V30 24 1 8 3
M  V30 25 1 15 10
M  V30 26 1 24 18
M  V30 27 1 17 6
M  V30 28 1 1 25
M  V30 29 1 1 26
M  V30 30 1 1 27
M  V30 31 1 5 28
M  V30 32 1 9 29
M  V30 33 1 12 30
M  V30 34 1 14 31
M  V30 35 1 14 32
M  V30 36 1 14 33
M  V30 37 1 19 34
M  V30 38 1 20 35
M  V30 39 1 21 36
M  V30 40 1 24 37
M  V30 END BOND
M  V30 END CTAB
M  END
>  <Dataset>  (724) 
ChEMBL_Kinases

>  <Ligand_Instance>  (724) 
nan

>  <PDB_ID>  (724) 
nan

>  <Standardized_SMILES>  (724) 
CSc1ncc2c(n1)Nc1n[nH]c(C)c1N=C2c1cccc(F)c1

>  <Name>  (724) 
nan

>  <Pocket>  (724) 
nan

>  <ATP_Site>  (724) 
nan

>  <Peripheral>  (724) 
nan

>  <Num_H_Atoms_ProtBoundConf>  (724) 
nan

>  <Num_Resolved_Atoms>  (724) 
nan

>  <Num_Not_Resolved_Atoms>  (724) 
nan

$$$$
CHEMBL4283894
     RDKit          3D

  0  0  0  0  0  0  0  0  0  0999 V3000
M  V30 BEGIN CTAB
M  V30 COUNTS 32 34 0 0 0
M  V30 BEGIN ATOM
M  V30 1 O 1.037061 -1.096202 0.709638 0
M  V30 2 C 1.172383 -0.891409 1.960332 0
M  V30 3 N 1.951114 -1.868140 2.652276 0
M  V30 4 C 2.454433 -2.928301 1.804979 0
M  V30 5 C 3.696642 -2.775499 1.192509 0
M  V30 6 C 4.111560 -3.840735 0.391882 0
M  V30 7 C 3.318713 -4.948819 0.243194 0
M  V30 8 C 2.083999 -5.064655 0.871215 0
M  V30 9 O 1.312627 -6.205830 0.692856 0
M  V30 10 C 1.635076 -4.032336 1.673265 0
M  V30 11 N 0.578762 0.230451 2.571735 0
M  V30 12 C -0.196369 1.130286 1.664590 0
M  V30 13 N -1.335860 1.008308 1.438098 0
M  V30 14 C -2.119932 1.726522 0.667604 0
M  V30 15 C -3.462345 1.620382 0.371999 0
M  V30 16 C -4.057701 2.518816 -0.483598 0
M  V30 17 C -3.411305 3.566719 -1.105055 0
M  V30 18 O -3.947262 4.501159 -1.971559 0
M  V30 19 C -2.066425 3.733717 -0.855390 0
M  V30 20 C -1.481281 2.803481 0.021708 0
M  V30 21 S 0.259480 2.628448 0.644618 0
M  V30 22 H 2.056011 -1.689945 3.680480 0
M  V30 23 H 4.274584 -1.886203 1.344448 0
M  V30 24 H 5.075800 -3.732475 -0.089061 0
M  V30 25 H 3.682062 -5.757157 -0.391440 0
M  V30 26 H 0.636233 -6.337563 -0.052586 0
M  V30 27 H 0.684130 -4.076779 2.180860 0
M  V30 28 H 0.697635 0.379750 3.578046 0
M  V30 29 H -4.094362 0.846138 0.787799 0
M  V30 30 H -5.129738 2.436216 -0.721321 0
M  V30 31 H -4.356441 4.189967 -2.847148 0
M  V30 32 H -1.361397 4.467391 -1.219601 0
M  V30 END ATOM
M  V30 BEGIN BOND
M  V30 1 2 1 2
M  V30 2 1 2 3
M  V30 3 1 3 4
M  V30 4 2 4 5
M  V30 5 1 5 6
M  V30 6 2 6 7
M  V30 7 1 7 8
M  V30 8 1 8 9
M  V30 9 2 8 10
M  V30 10 1 2 11
M  V30 11 1 11 12
M  V30 12 2 12 13
M  V30 13 1 13 14
M  V30 14 2 14 15
M  V30 15 1 15 16
M  V30 16 2 16 17
M  V30 17 1 17 18
M  V30 18 1 17 19
M  V30 19 2 19 20
M  V30 20 1 20 21
M  V30 21 1 10 4
M  V30 22 1 21 12
M  V30 23 1 20 14
M  V30 24 1 3 22
M  V30 25 1 5 23
M  V30 26 1 6 24
M  V30 27 1 7 25
M  V30 28 1 9 26
M  V30 29 1 10 27
M  V30 30 1 11 28
M  V30 31 1 15 29
M  V30 32 1 16 30
M  V30 33 1 18 31
M  V30 34 1 19 32
M  V30 END BOND
M  V30 END CTAB
M  END
>  <Dataset>  (725) 
ChEMBL_Kinases

>  <Ligand_Instance>  (725) 
nan

>  <PDB_ID>  (725) 
nan

>  <Standardized_SMILES>  (725) 
O=C(Nc1cccc(O)c1)Nc1nc2ccc(O)cc2s1

>  <Name>  (725) 
nan

>  <Pocket>  (725) 
nan

>  <ATP_Site>  (725) 
nan

>  <Peripheral>  (725) 
nan

>  <Num_H_Atoms_ProtBoundConf>  (725) 
nan

>  <Num_Resolved_Atoms>  (725) 
nan

>  <Num_Not_Resolved_Atoms>  (725) 
nan

$$$$
CHEMBL3093144
     RDKit          3D

  0  0  0  0  0  0  0  0  0  0999 V3000
M  V30 BEGIN CTAB
M  V30 COUNTS 59 64 0 0 0
M  V30 BEGIN ATOM
M  V30 1 N 2.225798 -3.215276 4.921699 0
M  V30 2 C 2.311786 -1.963768 4.243813 0
M  V30 3 N 3.153233 -0.987612 4.631368 0
M  V30 4 C 3.226926 0.201787 3.978276 0
M  V30 5 C 2.412507 0.413383 2.883681 0
M  V30 6 C 2.420356 1.657795 2.117928 0
M  V30 7 C 2.679064 2.921672 2.631380 0
M  V30 8 N 2.589758 3.802466 1.601340 0
M  V30 9 N 2.292543 3.177181 0.476058 0
M  V30 10 C 2.117708 3.814764 -0.837960 0
M  V30 11 C 3.079977 4.917587 -1.085912 0
M  V30 12 C 2.576913 6.300909 -0.808408 0
M  V30 13 N 1.266917 6.495455 -1.399892 0
M  V30 14 C 0.359696 5.613095 -0.684003 0
M  V30 15 C 0.671789 4.185039 -1.044701 0
M  V30 16 C 2.184960 1.857103 0.776883 0
M  V30 17 C 1.546565 -0.593225 2.486114 0
M  V30 18 C 1.480204 -1.796424 3.156253 0
M  V30 19 C 0.549462 -2.821661 2.692287 0
M  V30 20 N -0.295290 -2.716091 1.628252 0
M  V30 21 C -0.997338 -3.858299 1.506951 0
M  V30 22 C -1.968014 -4.321152 0.646322 0
M  V30 23 C -2.556498 -5.563215 0.720684 0
M  V30 24 N -3.541811 -6.056561 -0.169931 0
M  V30 25 C -3.866229 -5.690341 -1.499654 0
M  V30 26 C -5.107942 -5.944583 -2.033630 0
M  V30 27 C -5.456404 -5.619543 -3.318553 0
M  V30 28 C -4.574390 -5.010076 -4.167628 0
M  V30 29 C -3.324596 -4.739900 -3.672298 0
M  V30 30 C -2.999365 -5.076514 -2.378121 0
M  V30 31 C -2.104460 -6.358980 1.749512 0
M  V30 32 C -1.136067 -5.929525 2.628334 0
M  V30 33 C -0.564481 -4.678179 2.527652 0
M  V30 34 O 0.349636 -4.015058 3.196738 0
M  V30 35 H 1.840172 -3.359528 5.888511 0
M  V30 36 H 2.583775 -4.037056 4.386136 0
M  V30 37 H 3.899470 0.999369 4.277171 0
M  V30 38 H 2.910381 3.144361 3.677065 0
M  V30 39 H 2.341726 3.014568 -1.586077 0
M  V30 40 H 3.467893 4.913709 -2.130675 0
M  V30 41 H 3.991585 4.785170 -0.443855 0
M  V30 42 H 3.254690 7.017227 -1.343824 0
M  V30 43 H 2.509656 6.529473 0.279745 0
M  V30 44 H 1.280738 6.220581 -2.402479 0
M  V30 45 H 0.405709 5.777331 0.393002 0
M  V30 46 H -0.666340 5.819569 -1.092532 0
M  V30 47 H 0.073743 3.557937 -0.340511 0
M  V30 48 H 0.306841 4.011964 -2.067934 0
M  V30 49 H 1.947402 1.077716 0.058928 0
M  V30 50 H 0.906742 -0.410721 1.615851 0
M  V30 51 H -2.259599 -3.625378 -0.110776 0
M  V30 52 H -4.148685 -6.835171 0.214531 0
M  V30 53 H -5.878679 -6.428468 -1.433712 0
M  V30 54 H -6.453195 -5.843340 -3.691408 0
M  V30 55 H -4.800423 -4.734514 -5.187025 0
M  V30 56 H -2.593963 -4.249201 -4.334504 0
M  V30 57 H -1.991654 -4.834145 -2.086798 0
M  V30 58 H -2.477053 -7.371012 1.937012 0
M  V30 59 H -0.784978 -6.557633 3.432873 0
M  V30 END ATOM
M  V30 BEGIN BOND
M  V30 1 1 1 2
M  V30 2 2 2 3
M  V30 3 1 3 4
M  V30 4 2 4 5
M  V30 5 1 5 6
M  V30 6 1 6 7
M  V30 7 2 7 8
M  V30 8 1 8 9
M  V30 9 1 9 10
M  V30 10 1 10 11
M  V30 11 1 11 12
M  V30 12 1 12 13
M  V30 13 1 13 14
M  V30 14 1 14 15
M  V30 15 1 9 16
M  V30 16 1 5 17
M  V30 17 2 17 18
M  V30 18 1 18 19
M  V30 19 2 19 20
M  V30 20 1 20 21
M  V30 21 2 21 22
M  V30 22 1 22 23
M  V30 23 1 23 24
M  V30 24 1 24 25
M  V30 25 2 25 26
M  V30 26 1 26 27
M  V30 27 2 27 28
M  V30 28 1 28 29
M  V30 29 2 29 30
M  V30 30 2 23 31
M  V30 31 1 31 32
M  V30 32 2 32 33
M  V30 33 1 33 34
M  V30 34 1 18 2
M  V30 35 1 34 19
M  V30 36 2 16 6
M  V30 37 1 33 21
M  V30 38 1 15 10
M  V30 39 1 30 25
M  V30 40 1 1 35
M  V30 41 1 1 36
M  V30 42 1 4 37
M  V30 43 1 7 38
M  V30 44 1 10 39
M  V30 45 1 11 40
M  V30 46 1 11 41
M  V30 47 1 12 42
M  V30 48 1 12 43
M  V30 49 1 13 44
M  V30 50 1 14 45
M  V30 51 1 14 46
M  V30 52 1 15 47
M  V30 53 1 15 48
M  V30 54 1 16 49
M  V30 55 1 17 50
M  V30 56 1 22 51
M  V30 57 1 24 52
M  V30 58 1 26 53
M  V30 59 1 27 54
M  V30 60 1 28 55
M  V30 61 1 29 56
M  V30 62 1 30 57
M  V30 63 1 31 58
M  V30 64 1 32 59
M  V30 END BOND
M  V30 END CTAB
M  END
>  <Dataset>  (726) 
ChEMBL_Kinases

>  <Ligand_Instance>  (726) 
nan

>  <PDB_ID>  (726) 
nan

>  <Standardized_SMILES>  (726) 
Nc1ncc(-c2cnn(C3CCNCC3)c2)cc1-c1nc2cc(Nc3ccccc3)ccc2o1

>  <Name>  (726) 
nan

>  <Pocket>  (726) 
nan

>  <ATP_Site>  (726) 
nan

>  <Peripheral>  (726) 
nan

>  <Num_H_Atoms_ProtBoundConf>  (726) 
nan

>  <Num_Resolved_Atoms>  (726) 
nan

>  <Num_Not_Resolved_Atoms>  (726) 
nan

$$$$
CHEMBL3093145
     RDKit          3D

  0  0  0  0  0  0  0  0  0  0999 V3000
M  V30 BEGIN CTAB
M  V30 COUNTS 61 65 0 0 0
M  V30 BEGIN ATOM
M  V30 1 C 6.740769 0.838649 6.805367 0
M  V30 2 C 7.185904 0.018247 5.628352 0
M  V30 3 C 6.636196 0.587951 4.323760 0
M  V30 4 C 7.144237 -0.309966 3.224730 0
M  V30 5 N 6.681978 0.126887 1.925733 0
M  V30 6 C 5.402669 0.140602 1.335051 0
M  V30 7 C 5.144855 0.651468 0.057025 0
M  V30 8 C 3.874323 0.612262 -0.451471 0
M  V30 9 C 2.794576 0.089630 0.224457 0
M  V30 10 O 1.527005 -0.035681 -0.087373 0
M  V30 11 C 0.911861 -0.605111 0.912254 0
M  V30 12 C -0.505956 -0.955602 1.039499 0
M  V30 13 C -1.392112 -0.689525 0.018359 0
M  V30 14 C -2.712394 -1.018510 0.140596 0
M  V30 15 C -3.752580 -0.792333 -0.864262 0
M  V30 16 C -3.805608 0.245197 -1.767860 0
M  V30 17 N -4.938803 0.056394 -2.501786 0
M  V30 18 N -5.555897 -1.031163 -2.083357 0
M  V30 19 C -6.776076 -1.677606 -2.506007 0
M  V30 20 C -7.481368 -0.976143 -3.620648 0
M  V30 21 C -6.721529 -1.037351 -4.909340 0
M  V30 22 N -6.253856 -2.331198 -5.285071 0
M  V30 23 C -5.700160 -3.128298 -4.238071 0
M  V30 24 C -6.520827 -3.102029 -2.969603 0
M  V30 25 C -4.867486 -1.600763 -1.069059 0
M  V30 26 C -3.111659 -1.628889 1.335147 0
M  V30 27 N -2.237491 -1.889949 2.339225 0
M  V30 28 C -0.920490 -1.558205 2.209271 0
M  V30 29 N -0.032378 -1.849941 3.289583 0
M  V30 30 N 1.813156 -0.845692 1.880040 0
M  V30 31 C 3.025293 -0.419639 1.485586 0
M  V30 32 C 4.313563 -0.379483 1.999853 0
M  V30 33 H 6.518882 1.886744 6.455516 0
M  V30 34 H 7.567005 0.902719 7.531118 0
M  V30 35 H 5.854118 0.437125 7.309382 0
M  V30 36 H 6.828185 -1.013268 5.773533 0
M  V30 37 H 8.278607 0.057188 5.532492 0
M  V30 38 H 7.058265 1.621253 4.238925 0
M  V30 39 H 5.558700 0.681709 4.295654 0
M  V30 40 H 6.649490 -1.312358 3.425188 0
M  V30 41 H 8.237527 -0.411120 3.230256 0
M  V30 42 H 7.426976 0.509222 1.291683 0
M  V30 43 H 5.984753 1.065679 -0.485837 0
M  V30 44 H 3.780421 1.035175 -1.452654 0
M  V30 45 H -1.085473 -0.217918 -0.905660 0
M  V30 46 H -3.106538 1.071021 -1.904102 0
M  V30 47 H -7.469131 -1.764302 -1.649727 0
M  V30 48 H -8.508706 -1.386618 -3.690081 0
M  V30 49 H -7.588155 0.096429 -3.358753 0
M  V30 50 H -5.952526 -0.240686 -4.903581 0
M  V30 51 H -7.443019 -0.713128 -5.714983 0
M  V30 52 H -5.507902 -2.217203 -6.008833 0
M  V30 53 H -5.671161 -4.186147 -4.581774 0
M  V30 54 H -4.654892 -2.865797 -3.961032 0
M  V30 55 H -5.884098 -3.581958 -2.178524 0
M  V30 56 H -7.476894 -3.614840 -3.116236 0
M  V30 57 H -5.047433 -2.491568 -0.470676 0
M  V30 58 H -4.144211 -1.911640 1.488093 0
M  V30 59 H -0.136460 -1.152379 4.054219 0
M  V30 60 H 0.656093 -2.627607 3.386351 0
M  V30 61 H 4.340047 -0.820558 2.985493 0
M  V30 END ATOM
M  V30 BEGIN BOND
M  V30 1 1 1 2
M  V30 2 1 2 3
M  V30 3 1 3 4
M  V30 4 1 4 5
M  V30 5 1 5 6
M  V30 6 2 6 7
M  V30 7 1 7 8
M  V30 8 2 8 9
M  V30 9 1 9 10
M  V30 10 1 10 11
M  V30 11 1 11 12
M  V30 12 2 12 13
M  V30 13 1 13 14
M  V30 14 1 14 15
M  V30 15 1 15 16
M  V30 16 2 16 17
M  V30 17 1 17 18
M  V30 18 1 18 19
M  V30 19 1 19 20
M  V30 20 1 20 21
M  V30 21 1 21 22
M  V30 22 1 22 23
M  V30 23 1 23 24
M  V30 24 1 18 25
M  V30 25 2 14 26
M  V30 26 1 26 27
M  V30 27 2 27 28
M  V30 28 1 28 29
M  V30 29 2 11 30
M  V30 30 1 30 31
M  V30 31 2 31 32
M  V30 32 1 32 6
M  V30 33 1 31 9
M  V30 34 1 28 12
M  V30 35 2 25 15
M  V30 36 1 24 19
M  V30 37 1 1 33
M  V30 38 1 1 34
M  V30 39 1 1 35
M  V30 40 1 2 36
M  V30 41 1 2 37
M  V30 42 1 3 38
M  V30 43 1 3 39
M  V30 44 1 4 40
M  V30 45 1 4 41
M  V30 46 1 5 42
M  V30 47 1 7 43
M  V30 48 1 8 44
M  V30 49 1 13 45
M  V30 50 1 16 46
M  V30 51 1 19 47
M  V30 52 1 20 48
M  V30 53 1 20 49
M  V30 54 1 21 50
M  V30 55 1 21 51
M  V30 56 1 22 52
M  V30 57 1 23 53
M  V30 58 1 23 54
M  V30 59 1 24 55
M  V30 60 1 24 56
M  V30 61 1 25 57
M  V30 62 1 26 58
M  V30 63 1 29 59
M  V30 64 1 29 60
M  V30 65 1 32 61
M  V30 END BOND
M  V30 END CTAB
M  END
>  <Dataset>  (727) 
ChEMBL_Kinases

>  <Ligand_Instance>  (727) 
nan

>  <PDB_ID>  (727) 
nan

>  <Standardized_SMILES>  (727) 
CCCCNc1ccc2oc(-c3cc(-c4cnn(C5CCNCC5)c4)cnc3N)nc2c1

>  <Name>  (727) 
nan

>  <Pocket>  (727) 
nan

>  <ATP_Site>  (727) 
nan

>  <Peripheral>  (727) 
nan

>  <Num_H_Atoms_ProtBoundConf>  (727) 
nan

>  <Num_Resolved_Atoms>  (727) 
nan

>  <Num_Not_Resolved_Atoms>  (727) 
nan

$$$$
CHEMBL3093146
     RDKit          3D

  0  0  0  0  0  0  0  0  0  0999 V3000
M  V30 BEGIN CTAB
M  V30 COUNTS 55 59 0 0 0
M  V30 BEGIN ATOM
M  V30 1 C 6.952338 -3.961246 4.161515 0
M  V30 2 N 5.773930 -3.117791 4.026886 0
M  V30 3 C 5.281353 -2.337325 5.134153 0
M  V30 4 C 5.107525 -3.075496 2.769859 0
M  V30 5 C 5.617572 -3.848950 1.719580 0
M  V30 6 C 4.971040 -3.808438 0.499477 0
M  V30 7 C 3.847014 -3.047139 0.253728 0
M  V30 8 O 3.024764 -2.787250 -0.731998 0
M  V30 9 C 2.086546 -1.945346 -0.376647 0
M  V30 10 C 1.000860 -1.432417 -1.217602 0
M  V30 11 C 0.093792 -0.544354 -0.672437 0
M  V30 12 C -0.956125 -0.008038 -1.374885 0
M  V30 13 C -1.860835 0.925624 -0.704211 0
M  V30 14 C -1.368572 1.761219 0.297528 0
M  V30 15 N -2.390883 2.512278 0.747064 0
M  V30 16 N -3.516434 2.197641 0.080571 0
M  V30 17 C -4.834602 2.767008 0.255264 0
M  V30 18 C -5.756808 1.938694 1.100748 0
M  V30 19 C -6.330616 0.757531 0.399742 0
M  V30 20 N -6.679105 0.929650 -0.955536 0
M  V30 21 C -6.282454 2.064073 -1.665561 0
M  V30 22 C -5.537896 3.141609 -0.994793 0
M  V30 23 C -3.204472 1.232661 -0.805330 0
M  V30 24 C -1.082459 -0.402748 -2.705130 0
M  V30 25 N -0.201873 -1.272233 -3.254570 0
M  V30 26 C 0.835515 -1.794608 -2.540103 0
M  V30 27 N 1.759187 -2.708853 -3.122118 0
M  V30 28 N 2.303320 -1.626198 0.935424 0
M  V30 29 C 3.409464 -2.309412 1.355978 0
M  V30 30 C 3.985773 -2.283881 2.610932 0
M  V30 31 H 7.668986 -3.720261 3.377055 0
M  V30 32 H 6.585923 -5.004076 3.954902 0
M  V30 33 H 7.339121 -3.924292 5.198931 0
M  V30 34 H 5.805512 -2.680586 6.050237 0
M  V30 35 H 4.199893 -2.567169 5.317381 0
M  V30 36 H 5.469183 -1.256670 5.034158 0
M  V30 37 H 6.503923 -4.476145 1.840508 0
M  V30 38 H 5.342516 -4.402422 -0.347843 0
M  V30 39 H 0.215195 -0.254330 0.363885 0
M  V30 40 H -0.339028 1.829531 0.684195 0
M  V30 41 H -4.676907 3.720141 0.843408 0
M  V30 42 H -5.217101 1.619492 2.016099 0
M  V30 43 H -6.575749 2.614807 1.435047 0
M  V30 44 H -7.219246 0.408429 0.966984 0
M  V30 45 H -5.589760 -0.072669 0.472434 0
M  V30 46 H -7.624045 0.548050 -1.180068 0
M  V30 47 H -7.206907 2.511901 -2.139852 0
M  V30 48 H -5.697343 1.716254 -2.567887 0
M  V30 49 H -6.242772 3.978097 -0.743137 0
M  V30 50 H -4.807079 3.600036 -1.723857 0
M  V30 51 H -3.796051 0.706295 -1.522135 0
M  V30 52 H -1.912328 0.026122 -3.246427 0
M  V30 53 H 1.597189 -3.694873 -2.795435 0
M  V30 54 H 2.502416 -2.397540 -3.795416 0
M  V30 55 H 3.572683 -1.685321 3.386555 0
M  V30 END ATOM
M  V30 BEGIN BOND
M  V30 1 1 1 2
M  V30 2 1 2 3
M  V30 3 1 2 4
M  V30 4 2 4 5
M  V30 5 1 5 6
M  V30 6 2 6 7
M  V30 7 1 7 8
M  V30 8 1 8 9
M  V30 9 1 9 10
M  V30 10 2 10 11
M  V30 11 1 11 12
M  V30 12 1 12 13
M  V30 13 1 13 14
M  V30 14 2 14 15
M  V30 15 1 15 16
M  V30 16 1 16 17
M  V30 17 1 17 18
M  V30 18 1 18 19
M  V30 19 1 19 20
M  V30 20 1 20 21
M  V30 21 1 21 22
M  V30 22 1 16 23
M  V30 23 2 12 24
M  V30 24 1 24 25
M  V30 25 2 25 26
M  V30 26 1 26 27
M  V30 27 2 9 28
M  V30 28 1 28 29
M  V30 29 2 29 30
M  V30 30 1 30 4
M  V30 31 1 29 7
M  V30 32 1 26 10
M  V30 33 2 23 13
M  V30 34 1 22 17
M  V30 35 1 1 31
M  V30 36 1 1 32
M  V30 37 1 1 33
M  V30 38 1 3 34
M  V30 39 1 3 35
M  V30 40 1 3 36
M  V30 41 1 5 37
M  V30 42 1 6 38
M  V30 43 1 11 39
M  V30 44 1 14 40
M  V30 45 1 17 41
M  V30 46 1 18 42
M  V30 47 1 18 43
M  V30 48 1 19 44
M  V30 49 1 19 45
M  V30 50 1 20 46
M  V30 51 1 21 47
M  V30 52 1 21 48
M  V30 53 1 22 49
M  V30 54 1 22 50
M  V30 55 1 23 51
M  V30 56 1 24 52
M  V30 57 1 27 53
M  V30 58 1 27 54
M  V30 59 1 30 55
M  V30 END BOND
M  V30 END CTAB
M  END
>  <Dataset>  (728) 
ChEMBL_Kinases

>  <Ligand_Instance>  (728) 
nan

>  <PDB_ID>  (728) 
nan

>  <Standardized_SMILES>  (728) 
CN(C)c1ccc2oc(-c3cc(-c4cnn(C5CCNCC5)c4)cnc3N)nc2c1

>  <Name>  (728) 
nan

>  <Pocket>  (728) 
nan

>  <ATP_Site>  (728) 
nan

>  <Peripheral>  (728) 
nan

>  <Num_H_Atoms_ProtBoundConf>  (728) 
nan

>  <Num_Resolved_Atoms>  (728) 
nan

>  <Num_Not_Resolved_Atoms>  (728) 
nan

$$$$
CHEMBL3681205
     RDKit          3D

  0  0  0  0  0  0  0  0  0  0999 V3000
M  V30 BEGIN CTAB
M  V30 COUNTS 52 55 0 0 0
M  V30 BEGIN ATOM
M  V30 1 C -2.991203 -3.581596 3.294540 0
M  V30 2 O -1.877186 -4.184176 3.404520 0
M  V30 3 C -0.796384 -4.856874 3.644042 0
M  V30 4 C -0.322144 -4.230769 2.387194 0
M  V30 5 C 0.959376 -4.361761 1.681970 0
M  V30 6 C 1.253393 -3.548752 0.477873 0
M  V30 7 C 1.076495 -2.166310 0.677718 0
M  V30 8 C 1.321444 -1.531033 -0.547159 0
M  V30 9 C 1.217662 -0.078242 -0.627099 0
M  V30 10 O 1.936919 0.798464 -1.170330 0
M  V30 11 N 0.078824 0.531157 0.044881 0
M  V30 12 C -0.402522 1.854851 0.256817 0 CFG=1
M  V30 13 C 0.683832 2.747314 0.873801 0
M  V30 14 C 0.219616 4.173050 0.810838 0
M  V30 15 C -1.280948 4.311367 0.825818 0 CFG=2
M  V30 16 C -1.849403 3.962185 2.143382 0
M  V30 17 O -1.231033 3.583734 3.194029 0
M  V30 18 O -2.948210 3.829742 2.918353 0
M  V30 19 C -1.939939 3.621621 -0.323446 0
M  V30 20 C -1.024120 2.542085 -0.918128 0
M  V30 21 C 1.623344 -2.570041 -1.386425 0
M  V30 22 C 1.938739 -2.540042 -2.718615 0
M  V30 23 N 1.975167 -1.295748 -3.405221 0
M  V30 24 N 2.192097 -3.714010 -3.323016 0
M  V30 25 C 2.150818 -4.884538 -2.701246 0
M  V30 26 N 1.836696 -4.884728 -1.392539 0
M  V30 27 N 1.584012 -3.753791 -0.769683 0
M  V30 28 C 1.962949 -5.206556 2.218274 0
M  V30 29 C 1.408432 -5.699385 3.345782 0
M  V30 30 N 0.257513 -5.497285 3.855474 0
M  V30 31 H -3.961768 -4.135723 3.556658 0
M  V30 32 H -3.257067 -3.125783 2.262508 0
M  V30 33 H -3.130335 -2.627696 3.947338 0
M  V30 34 H -0.817958 -3.508094 1.641976 0
M  V30 35 H 0.808971 -1.631147 1.582607 0
M  V30 36 H -0.568994 -0.199280 0.485818 0
M  V30 37 H -1.173936 1.855749 1.092010 0
M  V30 38 H 1.665545 2.604274 0.418687 0
M  V30 39 H 0.830904 2.479529 1.966094 0
M  V30 40 H 0.597138 4.740546 1.701833 0
M  V30 41 H 0.596612 4.669977 -0.097349 0
M  V30 42 H -1.479727 5.414869 0.694000 0
M  V30 43 H -3.605274 3.036484 2.844318 0
M  V30 44 H -2.235745 4.305356 -1.140427 0
M  V30 45 H -2.828821 3.051987 0.078216 0
M  V30 46 H -0.288208 2.994630 -1.592871 0
M  V30 47 H -1.714657 1.825388 -1.451647 0
M  V30 48 H 2.546483 -0.696619 -4.005343 0
M  V30 49 H 1.065295 -0.754011 -3.252567 0
M  V30 50 H 2.349858 -5.832951 -3.208474 0
M  V30 51 H 2.896059 -5.335603 1.761001 0
M  V30 52 H 2.055730 -6.398359 3.926903 0
M  V30 END ATOM
M  V30 BEGIN BOND
M  V30 1 1 1 2
M  V30 2 1 2 3
M  V30 3 2 3 4
M  V30 4 1 4 5
M  V30 5 1 5 6
M  V30 6 2 6 7
M  V30 7 1 7 8
M  V30 8 1 8 9
M  V30 9 2 9 10
M  V30 10 1 9 11
M  V30 11 1 11 12
M  V30 12 1 12 13
M  V30 13 1 13 14
M  V30 14 1 14 15
M  V30 15 1 15 16
M  V30 16 2 16 17
M  V30 17 1 16 18
M  V30 18 1 15 19
M  V30 19 1 19 20
M  V30 20 2 8 21
M  V30 21 1 21 22
M  V30 22 1 22 23
M  V30 23 2 22 24
M  V30 24 1 24 25
M  V30 25 2 25 26
M  V30 26 1 26 27
M  V30 27 2 5 28
M  V30 28 1 28 29
M  V30 29 2 29 30
M  V30 30 1 30 3
M  V30 31 1 27 6
M  V30 32 1 20 12
M  V30 33 1 27 21
M  V30 34 1 1 31
M  V30 35 1 1 32
M  V30 36 1 1 33
M  V30 37 1 4 34
M  V30 38 1 7 35
M  V30 39 1 11 36
M  V30 40 1 12 37 CFG=1
M  V30 41 1 13 38
M  V30 42 1 13 39
M  V30 43 1 14 40
M  V30 44 1 14 41
M  V30 45 1 15 42 CFG=3
M  V30 46 1 18 43
M  V30 47 1 19 44
M  V30 48 1 19 45
M  V30 49 1 20 46
M  V30 50 1 20 47
M  V30 51 1 23 48
M  V30 52 1 23 49
M  V30 53 1 25 50
M  V30 54 1 28 51
M  V30 55 1 29 52
M  V30 END BOND
M  V30 END CTAB
M  END
>  <Dataset>  (729) 
ChEMBL_Kinases

>  <Ligand_Instance>  (729) 
nan

>  <PDB_ID>  (729) 
nan

>  <Standardized_SMILES>  (729) 
COc1cc(-c2cc(C(=O)N[C@H]3CC[C@H](C(=O)O)CC3)c3c(N)ncnn23)ccn1

>  <Name>  (729) 
nan

>  <Pocket>  (729) 
nan

>  <ATP_Site>  (729) 
nan

>  <Peripheral>  (729) 
nan

>  <Num_H_Atoms_ProtBoundConf>  (729) 
nan

>  <Num_Resolved_Atoms>  (729) 
nan

>  <Num_Not_Resolved_Atoms>  (729) 
nan

$$$$
CHEMBL3093147
     RDKit          3D

  0  0  0  0  0  0  0  0  0  0999 V3000
M  V30 BEGIN CTAB
M  V30 COUNTS 58 62 0 0 0
M  V30 BEGIN ATOM
M  V30 1 C 3.398127 -1.415032 6.516806 0
M  V30 2 C 2.526874 -2.328234 5.674959 0
M  V30 3 C 3.329574 -3.451074 5.073250 0
M  V30 4 N 4.394251 -2.997112 4.214078 0
M  V30 5 C 4.398292 -2.357607 2.947629 0
M  V30 6 C 5.562513 -1.950466 2.283624 0
M  V30 7 C 5.471739 -1.352754 1.050396 0
M  V30 8 C 4.283903 -1.118740 0.402121 0
M  V30 9 O 3.983277 -0.571667 -0.757547 0
M  V30 10 C 2.674179 -0.584577 -0.919284 0
M  V30 11 C 1.943405 -0.069657 -2.074943 0
M  V30 12 C 0.566772 -0.160222 -2.088193 0
M  V30 13 C -0.233786 0.288890 -3.120194 0
M  V30 14 C -1.685276 0.137824 -3.019461 0
M  V30 15 C -2.659480 -0.055553 -3.993989 0
M  V30 16 N -3.862981 -0.131833 -3.355999 0
M  V30 17 N -3.684630 0.002592 -2.057051 0
M  V30 18 C -4.629955 -0.004050 -0.954112 0
M  V30 19 C -5.025120 1.406567 -0.560467 0
M  V30 20 C -6.339207 1.312679 0.177830 0
M  V30 21 N -6.449732 0.081295 0.898301 0
M  V30 22 C -6.638844 -1.029639 -0.017594 0
M  V30 23 C -5.843019 -0.846325 -1.284783 0
M  V30 24 C -2.356773 0.172490 -1.789696 0
M  V30 25 C 0.449749 0.854425 -4.176174 0
M  V30 26 N 1.791888 0.949656 -4.177444 0
M  V30 27 C 2.560667 0.508034 -3.165321 0
M  V30 28 N 3.979372 0.611449 -3.171407 0
M  V30 29 N 2.146010 -1.160230 0.179670 0
M  V30 30 C 3.122601 -1.511093 1.035951 0
M  V30 31 C 3.219433 -2.111678 2.275466 0
M  V30 32 H 3.009183 -0.367177 6.374024 0
M  V30 33 H 3.304867 -1.607055 7.605336 0
M  V30 34 H 4.460391 -1.477367 6.268543 0
M  V30 35 H 1.996254 -1.778815 4.887489 0
M  V30 36 H 1.816762 -2.799297 6.402060 0
M  V30 37 H 2.613458 -4.115178 4.530799 0
M  V30 38 H 3.769457 -4.022513 5.915001 0
M  V30 39 H 5.389987 -3.154874 4.565256 0
M  V30 40 H 6.524263 -2.128928 2.786169 0
M  V30 41 H 6.435270 -1.075453 0.622623 0
M  V30 42 H 0.072977 -0.613440 -1.234693 0
M  V30 43 H -2.427759 -0.122904 -5.046280 0
M  V30 44 H -4.189266 -0.468268 -0.042705 0
M  V30 45 H -4.241597 1.925941 -0.009510 0
M  V30 46 H -5.180292 2.006058 -1.502071 0
M  V30 47 H -6.376399 2.181188 0.859982 0
M  V30 48 H -7.146735 1.384676 -0.593430 0
M  V30 49 H -5.557993 -0.078352 1.431465 0
M  V30 50 H -7.722485 -1.185620 -0.252141 0
M  V30 51 H -6.305020 -1.964671 0.476608 0
M  V30 52 H -5.484790 -1.843407 -1.608859 0
M  V30 53 H -6.452020 -0.408994 -2.100963 0
M  V30 54 H -1.865493 0.312809 -0.814114 0
M  V30 55 H -0.156211 1.218482 -5.005800 0
M  V30 56 H 4.202286 1.614627 -2.982247 0
M  V30 57 H 4.621781 -0.211991 -3.341581 0
M  V30 58 H 2.239909 -2.375688 2.649880 0
M  V30 END ATOM
M  V30 BEGIN BOND
M  V30 1 1 1 2
M  V30 2 1 2 3
M  V30 3 1 3 4
M  V30 4 1 4 5
M  V30 5 2 5 6
M  V30 6 1 6 7
M  V30 7 2 7 8
M  V30 8 1 8 9
M  V30 9 1 9 10
M  V30 10 1 10 11
M  V30 11 2 11 12
M  V30 12 1 12 13
M  V30 13 1 13 14
M  V30 14 1 14 15
M  V30 15 2 15 16
M  V30 16 1 16 17
M  V30 17 1 17 18
M  V30 18 1 18 19
M  V30 19 1 19 20
M  V30 20 1 20 21
M  V30 21 1 21 22
M  V30 22 1 22 23
M  V30 23 1 17 24
M  V30 24 2 13 25
M  V30 25 1 25 26
M  V30 26 2 26 27
M  V30 27 1 27 28
M  V30 28 2 10 29
M  V30 29 1 29 30
M  V30 30 2 30 31
M  V30 31 1 31 5
M  V30 32 1 30 8
M  V30 33 1 27 11
M  V30 34 2 24 14
M  V30 35 1 23 18
M  V30 36 1 1 32
M  V30 37 1 1 33
M  V30 38 1 1 34
M  V30 39 1 2 35
M  V30 40 1 2 36
M  V30 41 1 3 37
M  V30 42 1 3 38
M  V30 43 1 4 39
M  V30 44 1 6 40
M  V30 45 1 7 41
M  V30 46 1 12 42
M  V30 47 1 15 43
M  V30 48 1 18 44
M  V30 49 1 19 45
M  V30 50 1 19 46
M  V30 51 1 20 47
M  V30 52 1 20 48
M  V30 53 1 21 49
M  V30 54 1 22 50
M  V30 55 1 22 51
M  V30 56 1 23 52
M  V30 57 1 23 53
M  V30 58 1 24 54
M  V30 59 1 25 55
M  V30 60 1 28 56
M  V30 61 1 28 57
M  V30 62 1 31 58
M  V30 END BOND
M  V30 END CTAB
M  END
>  <Dataset>  (730) 
ChEMBL_Kinases

>  <Ligand_Instance>  (730) 
nan

>  <PDB_ID>  (730) 
nan

>  <Standardized_SMILES>  (730) 
CCCNc1ccc2oc(-c3cc(-c4cnn(C5CCNCC5)c4)cnc3N)nc2c1

>  <Name>  (730) 
nan

>  <Pocket>  (730) 
nan

>  <ATP_Site>  (730) 
nan

>  <Peripheral>  (730) 
nan

>  <Num_H_Atoms_ProtBoundConf>  (730) 
nan

>  <Num_Resolved_Atoms>  (730) 
nan

>  <Num_Not_Resolved_Atoms>  (730) 
nan

$$$$
CHEMBL3093149
     RDKit          3D

  0  0  0  0  0  0  0  0  0  0999 V3000
M  V30 BEGIN CTAB
M  V30 COUNTS 62 67 0 0 0
M  V30 BEGIN ATOM
M  V30 1 N -0.607337 -3.244096 3.995683 0
M  V30 2 C 0.316011 -2.185376 3.850091 0
M  V30 3 N 1.152961 -1.764233 4.820354 0
M  V30 4 C 2.025952 -0.749789 4.654219 0
M  V30 5 C 2.086692 -0.092873 3.441806 0
M  V30 6 C 2.982418 1.023447 3.117328 0
M  V30 7 C 4.261995 1.260864 3.604505 0
M  V30 8 N 4.687028 2.407139 3.018274 0
M  V30 9 N 3.753036 2.880407 2.209476 0
M  V30 10 C 3.696022 4.052154 1.358372 0
M  V30 11 C 5.033710 4.756421 1.347593 0
M  V30 12 C 4.962711 6.062320 0.585003 0
M  V30 13 N 3.619516 6.331024 0.108500 0
M  V30 14 C 2.613740 6.255197 1.127983 0
M  V30 15 C 2.711103 5.017460 1.986014 0
M  V30 16 C 2.669339 2.050849 2.237388 0
M  V30 17 C 1.229867 -0.524588 2.449723 0
M  V30 18 C 0.331357 -1.567124 2.617312 0
M  V30 19 C -0.532371 -1.948802 1.505979 0
M  V30 20 N -0.559517 -1.373550 0.268069 0
M  V30 21 C -1.504048 -2.022766 -0.472595 0
M  V30 22 C -1.975048 -1.890636 -1.775862 0
M  V30 23 C -2.969421 -2.749256 -2.196809 0
M  V30 24 C -3.527112 -3.730049 -1.409774 0
M  V30 25 N -4.535349 -4.566683 -1.901253 0
M  V30 26 C -5.098795 -4.438378 -3.231884 0
M  V30 27 C -4.458516 -5.515375 -4.091349 0
M  V30 28 C -4.168994 -6.696835 -3.218361 0
M  V30 29 C -5.173886 -6.839315 -2.093174 0
M  V30 30 C -5.132139 -5.655549 -1.151478 0
M  V30 31 C -3.030120 -3.821320 -0.133274 0
M  V30 32 C -2.036571 -3.003372 0.368939 0
M  V30 33 O -1.423416 -2.911186 1.524162 0
M  V30 34 H -1.288548 -2.784512 4.655764 0
M  V30 35 H -0.733331 -4.217538 3.646342 0
M  V30 36 H 2.696691 -0.408429 5.423390 0
M  V30 37 H 4.785445 0.632616 4.312114 0
M  V30 38 H 3.370759 3.788642 0.338400 0
M  V30 39 H 5.298431 5.009842 2.385814 0
M  V30 40 H 5.777985 4.069208 0.925497 0
M  V30 41 H 5.343258 6.909039 1.157022 0
M  V30 42 H 5.580387 5.933498 -0.330742 0
M  V30 43 H 3.380510 5.838767 -0.759543 0
M  V30 44 H 1.627122 6.211521 0.601592 0
M  V30 45 H 2.579339 7.134765 1.784969 0
M  V30 46 H 1.744345 4.526264 2.092645 0
M  V30 47 H 3.082031 5.265920 3.018695 0
M  V30 48 H 1.724888 2.112917 1.711528 0
M  V30 49 H 1.248801 -0.029179 1.476196 0
M  V30 50 H -1.518572 -1.119248 -2.355083 0
M  V30 51 H -3.257822 -2.559672 -3.221066 0
M  V30 52 H -6.200971 -4.689157 -3.237457 0
M  V30 53 H -5.028493 -3.432354 -3.661872 0
M  V30 54 H -3.530798 -5.085691 -4.516207 0
M  V30 55 H -5.158526 -5.797130 -4.927804 0
M  V30 56 H -3.142600 -6.744726 -2.849122 0
M  V30 57 H -4.311222 -7.621982 -3.843469 0
M  V30 58 H -6.187062 -6.997809 -2.499421 0
M  V30 59 H -4.905605 -7.758483 -1.536754 0
M  V30 60 H -6.188370 -5.320542 -0.938456 0
M  V30 61 H -4.599889 -5.949566 -0.252349 0
M  V30 62 H -3.390182 -4.545355 0.562125 0
M  V30 END ATOM
M  V30 BEGIN BOND
M  V30 1 1 1 2
M  V30 2 2 2 3
M  V30 3 1 3 4
M  V30 4 2 4 5
M  V30 5 1 5 6
M  V30 6 1 6 7
M  V30 7 2 7 8
M  V30 8 1 8 9
M  V30 9 1 9 10
M  V30 10 1 10 11
M  V30 11 1 11 12
M  V30 12 1 12 13
M  V30 13 1 13 14
M  V30 14 1 14 15
M  V30 15 1 9 16
M  V30 16 1 5 17
M  V30 17 2 17 18
M  V30 18 1 18 19
M  V30 19 2 19 20
M  V30 20 1 20 21
M  V30 21 2 21 22
M  V30 22 1 22 23
M  V30 23 2 23 24
M  V30 24 1 24 25
M  V30 25 1 25 26
M  V30 26 1 26 27
M  V30 27 1 27 28
M  V30 28 1 28 29
M  V30 29 1 29 30
M  V30 30 1 24 31
M  V30 31 2 31 32
M  V30 32 1 32 33
M  V30 33 1 18 2
M  V30 34 1 33 19
M  V30 35 2 16 6
M  V30 36 1 32 21
M  V30 37 1 15 10
M  V30 38 1 30 25
M  V30 39 1 1 34
M  V30 40 1 1 35
M  V30 41 1 4 36
M  V30 42 1 7 37
M  V30 43 1 10 38
M  V30 44 1 11 39
M  V30 45 1 11 40
M  V30 46 1 12 41
M  V30 47 1 12 42
M  V30 48 1 13 43
M  V30 49 1 14 44
M  V30 50 1 14 45
M  V30 51 1 15 46
M  V30 52 1 15 47
M  V30 53 1 16 48
M  V30 54 1 17 49
M  V30 55 1 22 50
M  V30 56 1 23 51
M  V30 57 1 26 52
M  V30 58 1 26 53
M  V30 59 1 27 54
M  V30 60 1 27 55
M  V30 61 1 28 56
M  V30 62 1 28 57
M  V30 63 1 29 58
M  V30 64 1 29 59
M  V30 65 1 30 60
M  V30 66 1 30 61
M  V30 67 1 31 62
M  V30 END BOND
M  V30 END CTAB
M  END
>  <Dataset>  (731) 
ChEMBL_Kinases

>  <Ligand_Instance>  (731) 
nan

>  <PDB_ID>  (731) 
nan

>  <Standardized_SMILES>  (731) 
Nc1ncc(-c2cnn(C3CCNCC3)c2)cc1-c1nc2ccc(N3CCCCC3)cc2o1

>  <Name>  (731) 
nan

>  <Pocket>  (731) 
nan

>  <ATP_Site>  (731) 
nan

>  <Peripheral>  (731) 
nan

>  <Num_H_Atoms_ProtBoundConf>  (731) 
nan

>  <Num_Resolved_Atoms>  (731) 
nan

>  <Num_Not_Resolved_Atoms>  (731) 
nan

$$$$
CHEMBL3093150
     RDKit          3D

  0  0  0  0  0  0  0  0  0  0999 V3000
M  V30 BEGIN CTAB
M  V30 COUNTS 60 65 0 0 0
M  V30 BEGIN ATOM
M  V30 1 N 1.399134 -4.291902 1.960662 0
M  V30 2 C 1.976727 -3.002564 1.844722 0
M  V30 3 N 3.186909 -2.873030 2.416623 0
M  V30 4 C 3.853396 -1.700649 2.383829 0
M  V30 5 C 3.169841 -0.692125 1.719089 0
M  V30 6 C 3.840446 0.606891 1.649646 0
M  V30 7 C 5.209490 0.885283 1.585018 0
M  V30 8 N 5.365229 2.233002 1.537275 0
M  V30 9 N 4.172259 2.836386 1.567508 0
M  V30 10 C 3.902999 4.254982 1.535269 0
M  V30 11 C 3.559636 4.753649 0.160737 0
M  V30 12 C 3.480504 6.271330 0.267369 0
M  V30 13 N 2.498029 6.691026 1.234328 0
M  V30 14 C 2.735611 6.143202 2.546355 0
M  V30 15 C 2.743080 4.626363 2.441683 0
M  V30 16 C 3.258148 1.871210 1.634512 0
M  V30 17 C 1.930623 -0.779348 1.119059 0
M  V30 18 C 1.298886 -2.001823 1.185348 0
M  V30 19 C -0.013202 -2.227396 0.592159 0
M  V30 20 N -0.808269 -1.376052 -0.078899 0
M  V30 21 C -1.949273 -2.027043 -0.451504 0
M  V30 22 C -3.108997 -1.715262 -1.137141 0
M  V30 23 C -4.076144 -2.697804 -1.317059 0
M  V30 24 C -3.926950 -3.978752 -0.837615 0
M  V30 25 N -4.930964 -4.946960 -1.035598 0
M  V30 26 C -6.221602 -4.737621 -1.658833 0
M  V30 27 C -6.186341 -5.483277 -2.995634 0
M  V30 28 O -5.533407 -6.680580 -2.864294 0
M  V30 29 C -5.578443 -7.187886 -1.568547 0
M  V30 30 C -4.756103 -6.322068 -0.612072 0
M  V30 31 C -2.783368 -4.305916 -0.155288 0
M  V30 32 C -1.809593 -3.313562 0.024922 0
M  V30 33 O -0.648674 -3.373682 0.631827 0
M  V30 34 H 2.000737 -5.168729 1.946593 0
M  V30 35 H 0.931871 -5.190701 2.047518 0
M  V30 36 H 4.821008 -1.511291 2.814081 0
M  V30 37 H 5.976995 0.126881 1.576695 0
M  V30 38 H 4.779591 4.850639 1.888780 0
M  V30 39 H 4.364688 4.540500 -0.578986 0
M  V30 40 H 2.575544 4.381250 -0.158085 0
M  V30 41 H 4.473697 6.646183 0.565195 0
M  V30 42 H 3.158005 6.649175 -0.726643 0
M  V30 43 H 1.525407 6.598285 0.914793 0
M  V30 44 H 1.893888 6.500329 3.185173 0
M  V30 45 H 3.705241 6.545463 2.911082 0
M  V30 46 H 1.810944 4.351649 1.877681 0
M  V30 47 H 2.807360 4.138857 3.431107 0
M  V30 48 H 2.189373 1.985694 1.674451 0
M  V30 49 H 1.482005 0.055168 0.628818 0
M  V30 50 H -3.170076 -0.695833 -1.489448 0
M  V30 51 H -4.924298 -2.348008 -1.857770 0
M  V30 52 H -6.439978 -3.686059 -1.850817 0
M  V30 53 H -7.024922 -5.239965 -1.058984 0
M  V30 54 H -5.809131 -4.853321 -3.818127 0
M  V30 55 H -7.239795 -5.708798 -3.249338 0
M  V30 56 H -5.166861 -8.215634 -1.514083 0
M  V30 57 H -6.607175 -7.227812 -1.158626 0
M  V30 58 H -3.688714 -6.633385 -0.722847 0
M  V30 59 H -5.149391 -6.424346 0.402060 0
M  V30 60 H -2.568952 -5.269178 0.259140 0
M  V30 END ATOM
M  V30 BEGIN BOND
M  V30 1 1 1 2
M  V30 2 2 2 3
M  V30 3 1 3 4
M  V30 4 2 4 5
M  V30 5 1 5 6
M  V30 6 1 6 7
M  V30 7 2 7 8
M  V30 8 1 8 9
M  V30 9 1 9 10
M  V30 10 1 10 11
M  V30 11 1 11 12
M  V30 12 1 12 13
M  V30 13 1 13 14
M  V30 14 1 14 15
M  V30 15 1 9 16
M  V30 16 1 5 17
M  V30 17 2 17 18
M  V30 18 1 18 19
M  V30 19 2 19 20
M  V30 20 1 20 21
M  V30 21 2 21 22
M  V30 22 1 22 23
M  V30 23 2 23 24
M  V30 24 1 24 25
M  V30 25 1 25 26
M  V30 26 1 26 27
M  V30 27 1 27 28
M  V30 28 1 28 29
M  V30 29 1 29 30
M  V30 30 1 24 31
M  V30 31 2 31 32
M  V30 32 1 32 33
M  V30 33 1 18 2
M  V30 34 1 33 19
M  V30 35 2 16 6
M  V30 36 1 32 21
M  V30 37 1 15 10
M  V30 38 1 30 25
M  V30 39 1 1 34
M  V30 40 1 1 35
M  V30 41 1 4 36
M  V30 42 1 7 37
M  V30 43 1 10 38
M  V30 44 1 11 39
M  V30 45 1 11 40
M  V30 46 1 12 41
M  V30 47 1 12 42
M  V30 48 1 13 43
M  V30 49 1 14 44
M  V30 50 1 14 45
M  V30 51 1 15 46
M  V30 52 1 15 47
M  V30 53 1 16 48
M  V30 54 1 17 49
M  V30 55 1 22 50
M  V30 56 1 23 51
M  V30 57 1 26 52
M  V30 58 1 26 53
M  V30 59 1 27 54
M  V30 60 1 27 55
M  V30 61 1 29 56
M  V30 62 1 29 57
M  V30 63 1 30 58
M  V30 64 1 30 59
M  V30 65 1 31 60
M  V30 END BOND
M  V30 END CTAB
M  END
>  <Dataset>  (732) 
ChEMBL_Kinases

>  <Ligand_Instance>  (732) 
nan

>  <PDB_ID>  (732) 
nan

>  <Standardized_SMILES>  (732) 
Nc1ncc(-c2cnn(C3CCNCC3)c2)cc1-c1nc2ccc(N3CCOCC3)cc2o1

>  <Name>  (732) 
nan

>  <Pocket>  (732) 
nan

>  <ATP_Site>  (732) 
nan

>  <Peripheral>  (732) 
nan

>  <Num_H_Atoms_ProtBoundConf>  (732) 
nan

>  <Num_Resolved_Atoms>  (732) 
nan

>  <Num_Not_Resolved_Atoms>  (732) 
nan

$$$$
CHEMBL2152944
     RDKit          3D

  0  0  0  0  0  0  0  0  0  0999 V3000
M  V30 BEGIN CTAB
M  V30 COUNTS 52 55 0 0 0
M  V30 BEGIN ATOM
M  V30 1 O -0.719560 -2.071736 2.399598 0
M  V30 2 C -0.609277 -1.290703 1.422643 0
M  V30 3 C 0.458971 -0.268709 1.489406 0
M  V30 4 C 0.896120 -0.107039 2.788249 0
M  V30 5 C 1.892926 0.797842 3.092918 0
M  V30 6 C 2.418926 1.519996 2.041387 0
M  V30 7 N 3.447605 2.455475 2.345022 0
M  V30 8 C 4.181432 3.345269 1.508886 0
M  V30 9 C 5.547480 3.368180 1.314879 0
M  V30 10 C 6.128745 4.289894 0.472219 0
M  V30 11 C 5.352515 5.211052 -0.196158 0
M  V30 12 F 5.976246 6.110897 -1.026043 0
M  V30 13 C 3.986250 5.198541 -0.010781 0
M  V30 14 C 3.405540 4.271899 0.835922 0
M  V30 15 F 2.044602 4.427892 0.880662 0
M  V30 16 C 2.018999 1.397703 0.726141 0
M  V30 17 C 1.019382 0.482661 0.458350 0
M  V30 18 C 0.611595 0.375136 -0.968901 0
M  V30 19 C -0.867067 0.553697 -1.180848 0
M  V30 20 C -1.663269 -0.655119 -0.845124 0
M  V30 21 C -2.619882 -1.012553 -1.769819 0
M  V30 22 C -3.424512 -2.138867 -1.546086 0
M  V30 23 C -3.268619 -2.912185 -0.386731 0
M  V30 24 O -4.183447 -3.932424 -0.447028 0
M  V30 25 C -4.421417 -4.958004 0.443149 0
M  V30 26 C -3.300845 -5.904967 0.704705 0 CFG=2
M  V30 27 O -2.914138 -6.536555 -0.501834 0
M  V30 28 C -3.741789 -7.038829 1.635205 0
M  V30 29 O -4.153530 -6.592082 2.866103 0
M  V30 30 C -2.301200 -2.518360 0.509763 0
M  V30 31 C -1.521802 -1.425637 0.290658 0
M  V30 32 H 0.457297 -0.691668 3.577136 0
M  V30 33 H 2.261955 0.953880 4.092423 0
M  V30 34 H 3.813438 2.611853 3.287495 0
M  V30 35 H 6.093082 2.618679 1.869721 0
M  V30 36 H 7.219094 4.274038 0.345821 0
M  V30 37 H 3.457511 5.965077 -0.581972 0
M  V30 38 H 2.406825 1.940362 -0.101107 0
M  V30 39 H 0.834277 -0.697850 -1.241935 0
M  V30 40 H 1.228233 0.982607 -1.630635 0
M  V30 41 H -1.014247 0.774631 -2.267708 0
M  V30 42 H -1.260265 1.453424 -0.633829 0
M  V30 43 H -2.671333 -0.362698 -2.631123 0
M  V30 44 H -4.112864 -2.257569 -2.379454 0
M  V30 45 H -4.766734 -4.595590 1.456361 0
M  V30 46 H -5.307047 -5.555065 0.074191 0
M  V30 47 H -2.389960 -5.498399 1.129414 0
M  V30 48 H -3.128008 -5.886946 -1.244433 0
M  V30 49 H -4.617521 -7.572692 1.172009 0
M  V30 50 H -2.937348 -7.778574 1.764298 0
M  V30 51 H -3.609617 -5.853941 3.231819 0
M  V30 52 H -2.269403 -3.162470 1.348685 0
M  V30 END ATOM
M  V30 BEGIN BOND
M  V30 1 2 1 2
M  V30 2 1 2 3
M  V30 3 2 3 4
M  V30 4 1 4 5
M  V30 5 2 5 6
M  V30 6 1 6 7
M  V30 7 1 7 8
M  V30 8 2 8 9
M  V30 9 1 9 10
M  V30 10 2 10 11
M  V30 11 1 11 12
M  V30 12 1 11 13
M  V30 13 2 13 14
M  V30 14 1 14 15
M  V30 15 1 6 16
M  V30 16 2 16 17
M  V30 17 1 17 18
M  V30 18 1 18 19
M  V30 19 1 19 20
M  V30 20 2 20 21
M  V30 21 1 21 22
M  V30 22 2 22 23
M  V30 23 1 23 24
M  V30 24 1 24 25
M  V30 25 1 25 26
M  V30 26 1 26 27
M  V30 27 1 26 28
M  V30 28 1 28 29
M  V30 29 1 23 30
M  V30 30 2 30 31
M  V30 31 1 31 2
M  V30 32 1 17 3
M  V30 33 1 31 20
M  V30 34 1 14 8
M  V30 35 1 4 32
M  V30 36 1 5 33
M  V30 37 1 7 34
M  V30 38 1 9 35
M  V30 39 1 10 36
M  V30 40 1 13 37
M  V30 41 1 16 38
M  V30 42 1 18 39
M  V30 43 1 18 40
M  V30 44 1 19 41
M  V30 45 1 19 42
M  V30 46 1 21 43
M  V30 47 1 22 44
M  V30 48 1 25 45
M  V30 49 1 25 46
M  V30 50 1 26 47 CFG=1
M  V30 51 1 27 48
M  V30 52 1 28 49
M  V30 53 1 28 50
M  V30 54 1 29 51
M  V30 55 1 30 52
M  V30 END BOND
M  V30 END CTAB
M  END
>  <Dataset>  (733) 
ChEMBL_Kinases

>  <Ligand_Instance>  (733) 
nan

>  <PDB_ID>  (733) 
nan

>  <Standardized_SMILES>  (733) 
O=C1c2ccc(Nc3ccc(F)cc3F)cc2CCc2ccc(OC[C@H](O)CO)cc21

>  <Name>  (733) 
Skepinone-L

>  <Pocket>  (733) 
nan

>  <ATP_Site>  (733) 
nan

>  <Peripheral>  (733) 
nan

>  <Num_H_Atoms_ProtBoundConf>  (733) 
nan

>  <Num_Resolved_Atoms>  (733) 
nan

>  <Num_Not_Resolved_Atoms>  (733) 
nan

$$$$
CHEMBL2153264
     RDKit          3D

  0  0  0  0  0  0  0  0  0  0999 V3000
M  V30 BEGIN CTAB
M  V30 COUNTS 25 27 0 0 0
M  V30 BEGIN ATOM
M  V30 1 N -1.553600 -1.429229 3.823083 0
M  V30 2 C -0.437034 -0.725697 3.319095 0
M  V30 3 N -0.302968 -0.655950 2.031868 0
M  V30 4 C 0.785566 0.030627 1.520508 0
M  V30 5 C 1.417725 0.428791 0.198936 0
M  V30 6 C 0.426010 -0.218382 -0.604097 0
M  V30 7 C -0.604755 -1.052209 -0.618902 0
M  V30 8 C -1.245681 -1.374481 -1.782256 0
M  V30 9 C -0.848426 -0.847486 -2.993233 0
M  V30 10 C 0.224090 0.017424 -2.968673 0
M  V30 11 N 0.832123 0.309432 -1.778511 0
M  V30 12 N 2.269463 0.984615 0.888649 0
M  V30 13 C 3.004904 1.466671 1.748344 0
M  V30 14 C 2.443689 1.113819 2.950650 0
M  V30 15 C 1.270687 0.354650 2.796524 0
M  V30 16 N 0.568476 -0.079137 3.887321 0
M  V30 17 H -1.875314 -2.420616 3.709939 0
M  V30 18 H -1.827058 -2.448484 3.668746 0
M  V30 19 H -0.916528 -1.478813 0.281342 0
M  V30 20 H -2.072861 -2.058993 -1.690257 0
M  V30 21 H -1.430857 -1.174684 -3.848119 0
M  V30 22 H 0.407036 0.344071 -4.012825 0
M  V30 23 H 3.890611 2.036950 1.554226 0
M  V30 24 H 2.919373 1.429515 3.865264 0
M  V30 25 H 0.740777 0.042961 4.882342 0
M  V30 END ATOM
M  V30 BEGIN BOND
M  V30 1 1 1 2
M  V30 2 2 2 3
M  V30 3 1 3 4
M  V30 4 2 4 5
M  V30 5 1 5 6
M  V30 6 2 6 7
M  V30 7 1 7 8
M  V30 8 2 8 9
M  V30 9 1 9 10
M  V30 10 2 10 11
M  V30 11 1 5 12
M  V30 12 2 12 13
M  V30 13 1 13 14
M  V30 14 2 14 15
M  V30 15 1 15 16
M  V30 16 1 16 2
M  V30 17 1 15 4
M  V30 18 1 11 6
M  V30 19 1 1 17
M  V30 20 1 1 18
M  V30 21 1 7 19
M  V30 22 1 8 20
M  V30 23 1 9 21
M  V30 24 1 10 22
M  V30 25 1 13 23
M  V30 26 1 14 24
M  V30 27 1 16 25
M  V30 END BOND
M  V30 END CTAB
M  END
>  <Dataset>  (734) 
ChEMBL_Kinases

>  <Ligand_Instance>  (734) 
nan

>  <PDB_ID>  (734) 
nan

>  <Standardized_SMILES>  (734) 
Nc1nc2c(-c3ccccn3)nccc2[nH]1

>  <Name>  (734) 
nan

>  <Pocket>  (734) 
nan

>  <ATP_Site>  (734) 
nan

>  <Peripheral>  (734) 
nan

>  <Num_H_Atoms_ProtBoundConf>  (734) 
nan

>  <Num_Resolved_Atoms>  (734) 
nan

>  <Num_Not_Resolved_Atoms>  (734) 
nan

$$$$
CHEMBL3093153
     RDKit          3D

  0  0  0  0  0  0  0  0  0  0999 V3000
M  V30 BEGIN CTAB
M  V30 COUNTS 65 70 0 0 0
M  V30 BEGIN ATOM
M  V30 1 N 1.559921 -4.408833 2.899550 0
M  V30 2 C 2.387821 -3.889834 1.848673 0
M  V30 3 N 3.568559 -4.488669 1.575658 0
M  V30 4 C 4.382833 -4.028485 0.587684 0
M  V30 5 C 3.975395 -2.923011 -0.141270 0
M  V30 6 C 4.792542 -2.362492 -1.222836 0
M  V30 7 C 6.166843 -2.330007 -1.344012 0
M  V30 8 N 6.467301 -1.724331 -2.487341 0
M  V30 9 N 5.369038 -1.349125 -3.138596 0
M  V30 10 C 5.199678 -0.661417 -4.413425 0
M  V30 11 C 4.293783 -1.517200 -5.266541 0
M  V30 12 C 3.850150 -0.836499 -6.524057 0
M  V30 13 N 3.227798 0.434365 -6.259212 0
M  V30 14 C 4.007538 1.299205 -5.420670 0
M  V30 15 C 4.422702 0.631865 -4.133256 0
M  V30 16 C 4.321543 -1.738403 -2.366218 0
M  V30 17 C 2.752718 -2.300338 0.139211 0
M  V30 18 C 1.949208 -2.788170 1.145069 0
M  V30 19 C 0.667702 -2.146991 1.449530 0
M  V30 20 N 0.165890 -1.062376 0.805885 0
M  V30 21 C -1.010847 -0.740149 1.329937 0
M  V30 22 C -1.967422 0.226202 1.110812 0
M  V30 23 C -3.086237 0.211553 1.902775 0
M  V30 24 C -3.343673 -0.690233 2.908343 0
M  V30 25 N -4.488536 -0.699351 3.744018 0
M  V30 26 C -5.392333 0.333545 4.099492 0
M  V30 27 C -6.672594 0.061948 4.530972 0
M  V30 28 C -7.557612 1.049889 4.895315 0
M  V30 29 C -8.925985 0.683193 5.352736 0
M  V30 30 F -9.200380 -0.591271 4.897831 0
M  V30 31 F -9.832565 1.556550 4.781112 0
M  V30 32 F -9.041471 0.644601 6.727541 0
M  V30 33 C -7.183518 2.374810 4.839364 0
M  V30 34 C -5.927176 2.708654 4.420143 0
M  V30 35 C -5.507411 4.137966 4.354661 0
M  V30 36 F -4.599227 4.252412 3.296589 0
M  V30 37 F -4.782163 4.465910 5.494979 0
M  V30 38 F -6.576439 4.964944 4.203356 0
M  V30 39 C -5.063136 1.671391 4.060431 0
M  V30 40 C -2.364294 -1.640743 3.096339 0
M  V30 41 C -1.233901 -1.671135 2.337238 0
M  V30 42 O -0.192615 -2.482373 2.355157 0
M  V30 43 H 1.092385 -5.341441 2.705641 0
M  V30 44 H 1.493182 -3.811846 3.770287 0
M  V30 45 H 5.342579 -4.494744 0.347716 0
M  V30 46 H 6.866639 -2.734291 -0.620081 0
M  V30 47 H 6.158762 -0.436549 -4.876280 0
M  V30 48 H 3.372187 -1.712894 -4.663001 0
M  V30 49 H 4.832488 -2.451633 -5.527144 0
M  V30 50 H 4.654627 -0.770253 -7.280605 0
M  V30 51 H 3.063001 -1.488818 -6.978368 0
M  V30 52 H 2.234940 0.369853 -6.005747 0
M  V30 53 H 3.380834 2.162478 -5.137484 0
M  V30 54 H 4.867129 1.717430 -5.982678 0
M  V30 55 H 5.035729 1.338384 -3.551833 0
M  V30 56 H 3.494291 0.331145 -3.613498 0
M  V30 57 H 3.255514 -1.607073 -2.564531 0
M  V30 58 H 2.454684 -1.440118 -0.440826 0
M  V30 59 H -1.821504 0.964417 0.332752 0
M  V30 60 H -3.806119 0.980205 1.682252 0
M  V30 61 H -4.723140 -1.620329 4.182843 0
M  V30 62 H -7.027756 -0.968017 4.597007 0
M  V30 63 H -7.909119 3.145365 5.135529 0
M  V30 64 H -4.087799 2.016546 3.752192 0
M  V30 65 H -2.484029 -2.393195 3.867685 0
M  V30 END ATOM
M  V30 BEGIN BOND
M  V30 1 1 1 2
M  V30 2 2 2 3
M  V30 3 1 3 4
M  V30 4 2 4 5
M  V30 5 1 5 6
M  V30 6 1 6 7
M  V30 7 2 7 8
M  V30 8 1 8 9
M  V30 9 1 9 10
M  V30 10 1 10 11
M  V30 11 1 11 12
M  V30 12 1 12 13
M  V30 13 1 13 14
M  V30 14 1 14 15
M  V30 15 1 9 16
M  V30 16 1 5 17
M  V30 17 2 17 18
M  V30 18 1 18 19
M  V30 19 2 19 20
M  V30 20 1 20 21
M  V30 21 2 21 22
M  V30 22 1 22 23
M  V30 23 2 23 24
M  V30 24 1 24 25
M  V30 25 1 25 26
M  V30 26 2 26 27
M  V30 27 1 27 28
M  V30 28 1 28 29
M  V30 29 1 29 30
M  V30 30 1 29 31
M  V30 31 1 29 32
M  V30 32 2 28 33
M  V30 33 1 33 34
M  V30 34 1 34 35
M  V30 35 1 35 36
M  V30 36 1 35 37
M  V30 37 1 35 38
M  V30 38 2 34 39
M  V30 39 1 24 40
M  V30 40 2 40 41
M  V30 41 1 41 42
M  V30 42 1 18 2
M  V30 43 1 42 19
M  V30 44 2 16 6
M  V30 45 1 41 21
M  V30 46 1 15 10
M  V30 47 1 39 26
M  V30 48 1 1 43
M  V30 49 1 1 44
M  V30 50 1 4 45
M  V30 51 1 7 46
M  V30 52 1 10 47
M  V30 53 1 11 48
M  V30 54 1 11 49
M  V30 55 1 12 50
M  V30 56 1 12 51
M  V30 57 1 13 52
M  V30 58 1 14 53
M  V30 59 1 14 54
M  V30 60 1 15 55
M  V30 61 1 15 56
M  V30 62 1 16 57
M  V30 63 1 17 58
M  V30 64 1 22 59
M  V30 65 1 23 60
M  V30 66 1 25 61
M  V30 67 1 27 62
M  V30 68 1 33 63
M  V30 69 1 39 64
M  V30 70 1 40 65
M  V30 END BOND
M  V30 END CTAB
M  END
>  <Dataset>  (735) 
ChEMBL_Kinases

>  <Ligand_Instance>  (735) 
nan

>  <PDB_ID>  (735) 
nan

>  <Standardized_SMILES>  (735) 
Nc1ncc(-c2cnn(C3CCNCC3)c2)cc1-c1nc2ccc(Nc3cc(C(F)(F)F)cc(C(F)(F)F)c3)cc2o1

>  <Name>  (735) 
nan

>  <Pocket>  (735) 
nan

>  <ATP_Site>  (735) 
nan

>  <Peripheral>  (735) 
nan

>  <Num_H_Atoms_ProtBoundConf>  (735) 
nan

>  <Num_Resolved_Atoms>  (735) 
nan

>  <Num_Not_Resolved_Atoms>  (735) 
nan

$$$$
CHEMBL3093155
     RDKit          3D

  0  0  0  0  0  0  0  0  0  0999 V3000
M  V30 BEGIN CTAB
M  V30 COUNTS 59 64 0 0 0
M  V30 BEGIN ATOM
M  V30 1 N 1.800696 -3.928784 2.095483 0
M  V30 2 C 2.051020 -2.538546 1.917295 0
M  V30 3 N 3.215014 -1.981454 2.327765 0
M  V30 4 C 3.418558 -0.645897 2.139884 0
M  V30 5 C 2.472339 0.159059 1.542436 0
M  V30 6 C 2.743136 1.583682 1.366539 0
M  V30 7 C 1.890845 2.667248 1.356492 0
M  V30 8 N 2.620856 3.777858 1.158650 0
M  V30 9 N 3.908225 3.510569 1.035143 0
M  V30 10 C 5.045628 4.395106 0.812057 0
M  V30 11 C 4.812184 5.712992 1.472616 0
M  V30 12 C 3.734813 6.486976 0.772407 0
M  V30 13 N 3.809380 6.435540 -0.651205 0
M  V30 14 C 5.018898 5.897143 -1.188121 0
M  V30 15 C 5.331316 4.514319 -0.656652 0
M  V30 16 C 3.983048 2.153099 1.163858 0
M  V30 17 C 1.264502 -0.402866 1.113091 0
M  V30 18 C 1.084788 -1.756523 1.315557 0
M  V30 19 C -0.167447 -2.373768 0.877705 0
M  V30 20 N -1.222038 -1.753931 0.269867 0
M  V30 21 C -2.189611 -2.656158 0.020733 0
M  V30 22 C -3.446549 -2.650505 -0.550288 0
M  V30 23 C -4.125506 -3.848529 -0.606709 0
M  V30 24 C -3.652978 -5.054978 -0.138834 0
M  V30 25 N -4.373573 -6.275091 -0.187355 0
M  V30 26 C -5.756506 -6.531846 -0.275084 0
M  V30 27 C -6.221501 -7.755662 -0.768290 0
M  V30 28 C -7.553975 -8.054388 -0.857523 0
M  V30 29 F -7.913185 -9.274430 -1.352029 0
M  V30 30 C -8.523779 -7.157926 -0.462717 0
M  V30 31 C -8.102706 -5.943913 0.027876 0
M  V30 32 F -9.052565 -5.050462 0.421012 0
M  V30 33 C -6.769614 -5.678427 0.103574 0
M  V30 34 C -2.395278 -5.025022 0.424653 0
M  V30 35 C -1.686613 -3.847966 0.498671 0
M  V30 36 O -0.495233 -3.643196 0.995488 0
M  V30 37 H 1.325644 -4.126870 3.023301 0
M  V30 38 H 2.106725 -4.528311 1.322069 0
M  V30 39 H 4.362174 -0.194622 2.472719 0
M  V30 40 H 0.814066 2.596384 1.489604 0
M  V30 41 H 5.920825 3.882451 1.280317 0
M  V30 42 H 5.784501 6.278321 1.489223 0
M  V30 43 H 4.485244 5.590547 2.526109 0
M  V30 44 H 3.889661 7.561107 1.062322 0
M  V30 45 H 2.747701 6.142839 1.138266 0
M  V30 46 H 3.597490 7.333548 -1.102759 0
M  V30 47 H 5.908890 6.520570 -1.085436 0
M  V30 48 H 4.832343 5.756873 -2.291364 0
M  V30 49 H 4.763808 3.755232 -1.256772 0
M  V30 50 H 6.406021 4.334386 -0.858320 0
M  V30 51 H 4.922749 1.612819 1.108654 0
M  V30 52 H 0.501610 0.223093 0.636249 0
M  V30 53 H -3.846786 -1.719341 -0.927125 0
M  V30 54 H -5.095468 -3.776968 -1.074645 0
M  V30 55 H -3.777585 -7.142375 -0.152184 0
M  V30 56 H -5.479969 -8.483335 -1.087663 0
M  V30 57 H -9.555838 -7.433127 -0.550143 0
M  V30 58 H -6.527986 -4.721070 0.505198 0
M  V30 59 H -1.973539 -5.940408 0.807883 0
M  V30 END ATOM
M  V30 BEGIN BOND
M  V30 1 1 1 2
M  V30 2 2 2 3
M  V30 3 1 3 4
M  V30 4 2 4 5
M  V30 5 1 5 6
M  V30 6 1 6 7
M  V30 7 2 7 8
M  V30 8 1 8 9
M  V30 9 1 9 10
M  V30 10 1 10 11
M  V30 11 1 11 12
M  V30 12 1 12 13
M  V30 13 1 13 14
M  V30 14 1 14 15
M  V30 15 1 9 16
M  V30 16 1 5 17
M  V30 17 2 17 18
M  V30 18 1 18 19
M  V30 19 2 19 20
M  V30 20 1 20 21
M  V30 21 2 21 22
M  V30 22 1 22 23
M  V30 23 2 23 24
M  V30 24 1 24 25
M  V30 25 1 25 26
M  V30 26 2 26 27
M  V30 27 1 27 28
M  V30 28 1 28 29
M  V30 29 2 28 30
M  V30 30 1 30 31
M  V30 31 1 31 32
M  V30 32 2 31 33
M  V30 33 1 24 34
M  V30 34 2 34 35
M  V30 35 1 35 36
M  V30 36 1 18 2
M  V30 37 1 36 19
M  V30 38 2 16 6
M  V30 39 1 35 21
M  V30 40 1 15 10
M  V30 41 1 33 26
M  V30 42 1 1 37
M  V30 43 1 1 38
M  V30 44 1 4 39
M  V30 45 1 7 40
M  V30 46 1 10 41
M  V30 47 1 11 42
M  V30 48 1 11 43
M  V30 49 1 12 44
M  V30 50 1 12 45
M  V30 51 1 13 46
M  V30 52 1 14 47
M  V30 53 1 14 48
M  V30 54 1 15 49
M  V30 55 1 15 50
M  V30 56 1 16 51
M  V30 57 1 17 52
M  V30 58 1 22 53
M  V30 59 1 23 54
M  V30 60 1 25 55
M  V30 61 1 27 56
M  V30 62 1 30 57
M  V30 63 1 33 58
M  V30 64 1 34 59
M  V30 END BOND
M  V30 END CTAB
M  END
>  <Dataset>  (736) 
ChEMBL_Kinases

>  <Ligand_Instance>  (736) 
nan

>  <PDB_ID>  (736) 
nan

>  <Standardized_SMILES>  (736) 
Nc1ncc(-c2cnn(C3CCNCC3)c2)cc1-c1nc2ccc(Nc3cc(F)cc(F)c3)cc2o1

>  <Name>  (736) 
nan

>  <Pocket>  (736) 
nan

>  <ATP_Site>  (736) 
nan

>  <Peripheral>  (736) 
nan

>  <Num_H_Atoms_ProtBoundConf>  (736) 
nan

>  <Num_Resolved_Atoms>  (736) 
nan

>  <Num_Not_Resolved_Atoms>  (736) 
nan

$$$$
CHEMBL3681204
     RDKit          3D

  0  0  0  0  0  0  0  0  0  0999 V3000
M  V30 BEGIN CTAB
M  V30 COUNTS 53 56 0 0 0
M  V30 BEGIN ATOM
M  V30 1 C -0.735361 -5.115425 4.948397 0
M  V30 2 O -0.675579 -4.265498 3.832869 0
M  V30 3 C -0.440204 -4.807870 2.577815 0
M  V30 4 C -0.388446 -3.941091 1.504468 0
M  V30 5 C -0.153474 -4.403245 0.200084 0
M  V30 6 C -0.122538 -3.325213 -0.781349 0
M  V30 7 C 0.543452 -2.135296 -0.585036 0
M  V30 8 C 0.376927 -1.322683 -1.715418 0
M  V30 9 C 1.016795 0.012160 -1.695994 0
M  V30 10 O 1.752523 0.554241 -2.534446 0
M  V30 11 N 0.759389 0.816012 -0.532172 0
M  V30 12 C 1.275518 2.148317 -0.267077 0
M  V30 13 C 0.767377 2.613400 1.061109 0 CFG=1
M  V30 14 C 1.239090 3.976486 1.453131 0
M  V30 15 C 0.909650 4.273896 2.887550 0
M  V30 16 C -0.361795 3.727505 3.407644 0 CFG=2
M  V30 17 O -0.088904 3.110163 4.655890 0
M  V30 18 C -1.109246 2.760841 2.581420 0
M  V30 19 C -0.750426 2.691083 1.127694 0
M  V30 20 C -0.400685 -2.057351 -2.584150 0
M  V30 21 C -0.810663 -1.645601 -3.820286 0
M  V30 22 N -0.467435 -0.382189 -4.362213 0
M  V30 23 N -1.573968 -2.526392 -4.514791 0
M  V30 24 C -1.857186 -3.694642 -3.953287 0
M  V30 25 N -1.421120 -4.059704 -2.710080 0
M  V30 26 N -0.673865 -3.231559 -1.995522 0
M  V30 27 C 0.029452 -5.747497 -0.030915 0
M  V30 28 C -0.036231 -6.566217 1.104290 0
M  V30 29 N -0.259221 -6.140238 2.362349 0
M  V30 30 H -0.028776 -4.783694 5.750064 0
M  V30 31 H -1.745257 -5.085002 5.438810 0
M  V30 32 H -0.553427 -6.154610 4.641177 0
M  V30 33 H -0.539901 -2.869606 1.720896 0
M  V30 34 H 1.093084 -1.910671 0.321261 0
M  V30 35 H 0.125900 0.385468 0.205543 0
M  V30 36 H 2.364515 2.222258 -0.275625 0
M  V30 37 H 0.828091 2.803950 -1.049536 0
M  V30 38 H 1.048716 1.895426 1.878988 0
M  V30 39 H 2.343639 4.064674 1.348056 0
M  V30 40 H 0.756990 4.732437 0.802591 0
M  V30 41 H 1.791407 3.967226 3.522773 0
M  V30 42 H 0.881418 5.381956 2.964575 0
M  V30 43 H -1.066679 4.563226 3.706406 0
M  V30 44 H 0.038130 2.127939 4.462080 0
M  V30 45 H -2.208002 2.949091 2.673367 0
M  V30 46 H -0.961166 1.728001 2.985673 0
M  V30 47 H -1.046834 3.652897 0.656440 0
M  V30 48 H -1.254442 1.816526 0.699342 0
M  V30 49 H -0.756627 0.608479 -4.239421 0
M  V30 50 H 0.283539 -0.373468 -5.097514 0
M  V30 51 H -2.468465 -4.389976 -4.521570 0
M  V30 52 H 0.205516 -6.037828 -1.051186 0
M  V30 53 H 0.110868 -7.625077 0.902437 0
M  V30 END ATOM
M  V30 BEGIN BOND
M  V30 1 1 1 2
M  V30 2 1 2 3
M  V30 3 2 3 4
M  V30 4 1 4 5
M  V30 5 1 5 6
M  V30 6 2 6 7
M  V30 7 1 7 8
M  V30 8 1 8 9
M  V30 9 2 9 10
M  V30 10 1 9 11
M  V30 11 1 11 12
M  V30 12 1 12 13
M  V30 13 1 13 14
M  V30 14 1 14 15
M  V30 15 1 15 16
M  V30 16 1 16 17
M  V30 17 1 16 18
M  V30 18 1 18 19
M  V30 19 2 8 20
M  V30 20 1 20 21
M  V30 21 1 21 22
M  V30 22 2 21 23
M  V30 23 1 23 24
M  V30 24 2 24 25
M  V30 25 1 25 26
M  V30 26 2 5 27
M  V30 27 1 27 28
M  V30 28 2 28 29
M  V30 29 1 29 3
M  V30 30 1 26 6
M  V30 31 1 19 13
M  V30 32 1 26 20
M  V30 33 1 1 30
M  V30 34 1 1 31
M  V30 35 1 1 32
M  V30 36 1 4 33
M  V30 37 1 7 34
M  V30 38 1 11 35
M  V30 39 1 12 36
M  V30 40 1 12 37
M  V30 41 1 13 38 CFG=1
M  V30 42 1 14 39
M  V30 43 1 14 40
M  V30 44 1 15 41
M  V30 45 1 15 42
M  V30 46 1 16 43 CFG=1
M  V30 47 1 17 44
M  V30 48 1 18 45
M  V30 49 1 18 46
M  V30 50 1 19 47
M  V30 51 1 19 48
M  V30 52 1 22 49
M  V30 53 1 22 50
M  V30 54 1 24 51
M  V30 55 1 27 52
M  V30 56 1 28 53
M  V30 END BOND
M  V30 END CTAB
M  END
>  <Dataset>  (737) 
ChEMBL_Kinases

>  <Ligand_Instance>  (737) 
nan

>  <PDB_ID>  (737) 
nan

>  <Standardized_SMILES>  (737) 
COc1cc(-c2cc(C(=O)NC[C@H]3CC[C@H](O)CC3)c3c(N)ncnn23)ccn1

>  <Name>  (737) 
nan

>  <Pocket>  (737) 
nan

>  <ATP_Site>  (737) 
nan

>  <Peripheral>  (737) 
nan

>  <Num_H_Atoms_ProtBoundConf>  (737) 
nan

>  <Num_Resolved_Atoms>  (737) 
nan

>  <Num_Not_Resolved_Atoms>  (737) 
nan

$$$$
CHEMBL3093156
     RDKit          3D

  0  0  0  0  0  0  0  0  0  0999 V3000
M  V30 BEGIN CTAB
M  V30 COUNTS 54 59 0 0 0
M  V30 BEGIN ATOM
M  V30 1 N -2.000212 -4.073717 2.160815 0
M  V30 2 C -1.219712 -2.921956 2.513521 0
M  V30 3 N -1.078703 -2.556417 3.797725 0
M  V30 4 C -0.331021 -1.460223 4.080475 0
M  V30 5 C 0.299750 -0.693862 3.092990 0
M  V30 6 C 1.072091 0.458081 3.539680 0
M  V30 7 C 1.727006 0.452829 4.760849 0
M  V30 8 N 2.350521 1.637707 4.906170 0
M  V30 9 N 2.128397 2.412755 3.830975 0
M  V30 10 C 2.621191 3.771588 3.590829 0
M  V30 11 C 3.170216 3.977147 2.219988 0
M  V30 12 C 2.226301 4.563129 1.223759 0
M  V30 13 N 1.467698 5.664873 1.780720 0
M  V30 14 C 0.686098 5.257205 2.927898 0
M  V30 15 C 1.613887 4.801780 4.018209 0
M  V30 16 C 1.351137 1.696627 2.999415 0
M  V30 17 C 0.125604 -1.110907 1.776111 0
M  V30 18 C -0.630604 -2.222039 1.471670 0
M  V30 19 C -0.785942 -2.618623 0.077240 0
M  V30 20 N -0.298341 -2.073951 -1.050554 0
M  V30 21 C -0.709670 -2.790747 -2.121447 0
M  V30 22 C -0.580506 -2.784338 -3.494852 0
M  V30 23 C -1.183384 -3.737483 -4.292994 0
M  V30 24 C -1.945393 -4.738021 -3.707438 0
M  V30 25 C -2.609907 -5.777235 -4.493403 0
M  V30 26 C -3.767415 -6.520311 -4.358559 0
M  V30 27 N -3.888798 -7.354359 -5.409310 0
M  V30 28 N -2.852569 -7.175879 -6.214726 0
M  V30 29 C -2.049456 -6.218502 -5.686470 0
M  V30 30 C -2.109020 -4.791799 -2.324034 0
M  V30 31 C -1.476689 -3.805237 -1.587243 0
M  V30 32 O -1.496513 -3.668457 -0.292288 0
M  V30 33 H -1.625701 -5.025543 2.287987 0
M  V30 34 H -2.956967 -4.001076 1.770332 0
M  V30 35 H -0.286591 -1.260428 5.147876 0
M  V30 36 H 1.803731 -0.284670 5.535482 0
M  V30 37 H 3.487137 3.884065 4.311555 0
M  V30 38 H 4.033545 4.702945 2.293347 0
M  V30 39 H 3.592100 3.030628 1.836797 0
M  V30 40 H 2.849741 5.035171 0.408599 0
M  V30 41 H 1.600429 3.828498 0.679760 0
M  V30 42 H 0.797573 5.999025 1.053533 0
M  V30 43 H -0.121067 4.548534 2.689206 0
M  V30 44 H 0.187489 6.188545 3.308193 0
M  V30 45 H 2.158822 5.699727 4.372918 0
M  V30 46 H 1.057023 4.401197 4.882353 0
M  V30 47 H 0.952620 1.963709 2.031976 0
M  V30 48 H 0.629917 -0.493528 1.022276 0
M  V30 49 H 0.025982 -1.982322 -3.903003 0
M  V30 50 H -1.066986 -3.710664 -5.375154 0
M  V30 51 H -4.393504 -6.344816 -3.472362 0
M  V30 52 H -2.814463 -7.759231 -7.075485 0
M  V30 53 H -1.147185 -5.977210 -6.267256 0
M  V30 54 H -2.698728 -5.565669 -1.865954 0
M  V30 END ATOM
M  V30 BEGIN BOND
M  V30 1 1 1 2
M  V30 2 2 2 3
M  V30 3 1 3 4
M  V30 4 2 4 5
M  V30 5 1 5 6
M  V30 6 1 6 7
M  V30 7 2 7 8
M  V30 8 1 8 9
M  V30 9 1 9 10
M  V30 10 1 10 11
M  V30 11 1 11 12
M  V30 12 1 12 13
M  V30 13 1 13 14
M  V30 14 1 14 15
M  V30 15 1 9 16
M  V30 16 1 5 17
M  V30 17 2 17 18
M  V30 18 1 18 19
M  V30 19 2 19 20
M  V30 20 1 20 21
M  V30 21 2 21 22
M  V30 22 1 22 23
M  V30 23 2 23 24
M  V30 24 1 24 25
M  V30 25 1 25 26
M  V30 26 2 26 27
M  V30 27 1 27 28
M  V30 28 1 28 29
M  V30 29 1 24 30
M  V30 30 2 30 31
M  V30 31 1 31 32
M  V30 32 1 18 2
M  V30 33 1 32 19
M  V30 34 2 16 6
M  V30 35 1 31 21
M  V30 36 1 15 10
M  V30 37 2 29 25
M  V30 38 1 1 33
M  V30 39 1 1 34
M  V30 40 1 4 35
M  V30 41 1 7 36
M  V30 42 1 10 37
M  V30 43 1 11 38
M  V30 44 1 11 39
M  V30 45 1 12 40
M  V30 46 1 12 41
M  V30 47 1 13 42
M  V30 48 1 14 43
M  V30 49 1 14 44
M  V30 50 1 15 45
M  V30 51 1 15 46
M  V30 52 1 16 47
M  V30 53 1 17 48
M  V30 54 1 22 49
M  V30 55 1 23 50
M  V30 56 1 26 51
M  V30 57 1 28 52
M  V30 58 1 29 53
M  V30 59 1 30 54
M  V30 END BOND
M  V30 END CTAB
M  END
>  <Dataset>  (738) 
ChEMBL_Kinases

>  <Ligand_Instance>  (738) 
nan

>  <PDB_ID>  (738) 
nan

>  <Standardized_SMILES>  (738) 
Nc1ncc(-c2cnn(C3CCNCC3)c2)cc1-c1nc2ccc(-c3cn[nH]c3)cc2o1

>  <Name>  (738) 
nan

>  <Pocket>  (738) 
nan

>  <ATP_Site>  (738) 
nan

>  <Peripheral>  (738) 
nan

>  <Num_H_Atoms_ProtBoundConf>  (738) 
nan

>  <Num_Resolved_Atoms>  (738) 
nan

>  <Num_Not_Resolved_Atoms>  (738) 
nan

$$$$
CHEMBL3093159
     RDKit          3D

  0  0  0  0  0  0  0  0  0  0999 V3000
M  V30 BEGIN CTAB
M  V30 COUNTS 60 66 0 0 0
M  V30 BEGIN ATOM
M  V30 1 N -1.438061 -0.609704 6.068783 0
M  V30 2 C -0.573498 0.015899 5.180265 0
M  V30 3 N 0.152905 1.034660 5.737188 0
M  V30 4 C 1.007150 1.705926 4.992193 0
M  V30 5 C 1.541105 1.871322 3.852916 0
M  V30 6 C 2.154387 2.061012 2.543557 0
M  V30 7 C 2.420013 3.448437 2.697012 0
M  V30 8 N 3.030933 3.848305 1.529255 0
M  V30 9 N 3.124363 2.791968 0.738777 0
M  V30 10 C 3.640611 2.533214 -0.588505 0
M  V30 11 C 3.711830 3.877019 -1.276303 0
M  V30 12 C 2.362601 4.523177 -1.244986 0
M  V30 13 N 1.254222 3.580146 -1.303346 0
M  V30 14 C 1.646497 2.455709 -2.131872 0
M  V30 15 C 2.718101 1.679826 -1.434836 0
M  V30 16 C 2.604201 1.702530 1.326645 0
M  V30 17 C 0.737138 0.743240 3.234940 0
M  V30 18 C -0.213775 -0.075982 3.873823 0
M  V30 19 C -0.958913 -1.177799 3.251368 0
M  V30 20 N -1.851807 -2.001105 3.772646 0
M  V30 21 C -2.256925 -2.858688 2.779508 0
M  V30 22 C -3.119169 -3.907111 2.641974 0
M  V30 23 C -3.272366 -4.561367 1.438774 0
M  V30 24 C -2.580847 -4.213562 0.306240 0
M  V30 25 C -2.618537 -4.821274 -1.015246 0
M  V30 26 C -2.414726 -3.980254 -2.119714 0
M  V30 27 C -2.405084 -4.435495 -3.436697 0
M  V30 28 C -2.606735 -5.775542 -3.637967 0
M  V30 29 N -2.637886 -6.443914 -4.826518 0
M  V30 30 N -2.859440 -7.706358 -4.508701 0
M  V30 31 C -2.970670 -7.877823 -3.184321 0
M  V30 32 C -2.814141 -6.656261 -2.583096 0
M  V30 33 C -2.815599 -6.159270 -1.294777 0
M  V30 34 C -1.699403 -3.144197 0.437064 0
M  V30 35 C -1.560540 -2.503655 1.646246 0
M  V30 36 O -0.810153 -1.504008 1.989638 0
M  V30 37 H -1.242693 -1.634669 6.057005 0
M  V30 38 H -2.113080 0.008184 6.586646 0
M  V30 39 H 1.659997 2.569288 5.368877 0
M  V30 40 H 2.409100 4.412289 3.256003 0
M  V30 41 H 4.625493 2.019700 -0.560108 0
M  V30 42 H 4.123811 3.783123 -2.301925 0
M  V30 43 H 4.410223 4.496363 -0.698254 0
M  V30 44 H 2.234088 5.282684 -2.061199 0
M  V30 45 H 2.249253 5.094535 -0.313176 0
M  V30 46 H 0.448754 4.079428 -1.725039 0
M  V30 47 H 0.778339 1.808260 -2.315083 0
M  V30 48 H 1.954445 2.908869 -3.100399 0
M  V30 49 H 2.221063 0.920912 -0.808415 0
M  V30 50 H 3.306500 1.175312 -2.258231 0
M  V30 51 H 2.412144 0.649195 1.194304 0
M  V30 52 H 0.689711 0.302564 2.193026 0
M  V30 53 H -3.643565 -4.153131 3.548784 0
M  V30 54 H -3.954431 -5.380565 1.342462 0
M  V30 55 H -2.247570 -2.899056 -2.055435 0
M  V30 56 H -2.243528 -3.765025 -4.264446 0
M  V30 57 H -2.515662 -6.072453 -5.792469 0
M  V30 58 H -3.151415 -8.794333 -2.632094 0
M  V30 59 H -2.975299 -6.822248 -0.452503 0
M  V30 60 H -1.106787 -2.793206 -0.395388 0
M  V30 END ATOM
M  V30 BEGIN BOND
M  V30 1 1 1 2
M  V30 2 2 2 3
M  V30 3 1 3 4
M  V30 4 2 4 5
M  V30 5 1 5 6
M  V30 6 1 6 7
M  V30 7 2 7 8
M  V30 8 1 8 9
M  V30 9 1 9 10
M  V30 10 1 10 11
M  V30 11 1 11 12
M  V30 12 1 12 13
M  V30 13 1 13 14
M  V30 14 1 14 15
M  V30 15 1 9 16
M  V30 16 1 5 17
M  V30 17 2 17 18
M  V30 18 1 18 19
M  V30 19 2 19 20
M  V30 20 1 20 21
M  V30 21 2 21 22
M  V30 22 1 22 23
M  V30 23 2 23 24
M  V30 24 1 24 25
M  V30 25 2 25 26
M  V30 26 1 26 27
M  V30 27 2 27 28
M  V30 28 1 28 29
M  V30 29 1 29 30
M  V30 30 2 30 31
M  V30 31 1 31 32
M  V30 32 2 32 33
M  V30 33 1 24 34
M  V30 34 2 34 35
M  V30 35 1 35 36
M  V30 36 1 18 2
M  V30 37 1 36 19
M  V30 38 2 16 6
M  V30 39 1 35 21
M  V30 40 1 15 10
M  V30 41 1 33 25
M  V30 42 1 32 28
M  V30 43 1 1 37
M  V30 44 1 1 38
M  V30 45 1 4 39
M  V30 46 1 7 40
M  V30 47 1 10 41
M  V30 48 1 11 42
M  V30 49 1 11 43
M  V30 50 1 12 44
M  V30 51 1 12 45
M  V30 52 1 13 46
M  V30 53 1 14 47
M  V30 54 1 14 48
M  V30 55 1 15 49
M  V30 56 1 15 50
M  V30 57 1 16 51
M  V30 58 1 17 52
M  V30 59 1 22 53
M  V30 60 1 23 54
M  V30 61 1 26 55
M  V30 62 1 27 56
M  V30 63 1 29 57
M  V30 64 1 31 58
M  V30 65 1 33 59
M  V30 66 1 34 60
M  V30 END BOND
M  V30 END CTAB
M  END
>  <Dataset>  (739) 
ChEMBL_Kinases

>  <Ligand_Instance>  (739) 
nan

>  <PDB_ID>  (739) 
nan

>  <Standardized_SMILES>  (739) 
Nc1ncc(-c2cnn(C3CCNCC3)c2)cc1-c1nc2ccc(-c3ccc4[nH]ncc4c3)cc2o1

>  <Name>  (739) 
nan

>  <Pocket>  (739) 
nan

>  <ATP_Site>  (739) 
nan

>  <Peripheral>  (739) 
nan

>  <Num_H_Atoms_ProtBoundConf>  (739) 
nan

>  <Num_Resolved_Atoms>  (739) 
nan

>  <Num_Not_Resolved_Atoms>  (739) 
nan

$$$$
CHEMBL3681203
     RDKit          3D

  0  0  0  0  0  0  0  0  0  0999 V3000
M  V30 BEGIN CTAB
M  V30 COUNTS 53 56 0 0 0
M  V30 BEGIN ATOM
M  V30 1 C -1.232310 -5.743345 4.705897 0
M  V30 2 O -1.007107 -4.793645 3.692094 0
M  V30 3 C -1.002246 -5.115056 2.346285 0
M  V30 4 C -0.774876 -4.126227 1.380429 0
M  V30 5 C -0.761595 -4.417983 0.023336 0
M  V30 6 C -0.509591 -3.236853 -0.795723 0
M  V30 7 C 0.438855 -2.263552 -0.464823 0
M  V30 8 C 0.422782 -1.284827 -1.466379 0
M  V30 9 C 1.343026 -0.134362 -1.319248 0
M  V30 10 O 2.375286 0.188435 -1.966040 0
M  V30 11 N 0.924890 0.713386 -0.234366 0
M  V30 12 C 1.376148 1.957040 0.418875 0 CFG=1
M  V30 13 C 0.330620 3.027722 0.332532 0
M  V30 14 C 0.822590 4.231644 1.104198 0
M  V30 15 C 1.050265 3.923640 2.559919 0 CFG=1
M  V30 16 C -0.220387 3.773786 3.337916 0
M  V30 17 O -1.056506 2.755500 2.885424 0
M  V30 18 C 1.991005 2.770470 2.699781 0
M  V30 19 C 1.598318 1.594629 1.862354 0
M  V30 20 C -0.526750 -1.683112 -2.376815 0
M  V30 21 C -0.867194 -1.009304 -3.529301 0
M  V30 22 N -0.253394 0.215295 -3.912994 0
M  V30 23 N -1.840465 -1.624210 -4.260364 0
M  V30 24 C -2.404260 -2.792801 -3.864247 0
M  V30 25 N -1.998071 -3.384280 -2.703874 0
M  V30 26 N -1.059836 -2.838370 -1.952579 0
M  V30 27 C -0.975581 -5.695626 -0.383185 0
M  V30 28 C -1.198789 -6.667117 0.567818 0
M  V30 29 N -1.205459 -6.355400 1.894646 0
M  V30 30 H -0.756003 -5.454503 5.668890 0
M  V30 31 H -2.310471 -5.888915 4.958707 0
M  V30 32 H -0.814525 -6.712030 4.377504 0
M  V30 33 H -0.611457 -3.125030 1.800843 0
M  V30 34 H 1.056965 -2.312997 0.436937 0
M  V30 35 H 0.051791 0.491169 0.331398 0
M  V30 36 H 2.293978 2.328253 -0.082663 0
M  V30 37 H -0.683947 2.710036 0.565799 0
M  V30 38 H 0.306497 3.362939 -0.743298 0
M  V30 39 H 0.197352 5.107404 0.947950 0
M  V30 40 H 1.847964 4.462018 0.689392 0
M  V30 41 H 1.568631 4.811004 2.981324 0
M  V30 42 H -0.787848 4.723660 3.424296 0
M  V30 43 H 0.074727 3.503534 4.395046 0
M  V30 44 H -1.987738 2.909385 3.166030 0
M  V30 45 H 1.964246 2.392561 3.772107 0
M  V30 46 H 3.034492 3.087073 2.477005 0
M  V30 47 H 2.349288 0.785064 1.987166 0
M  V30 48 H 0.596828 1.211953 2.222563 0
M  V30 49 H -0.773255 1.092032 -3.644765 0
M  V30 50 H 0.670019 0.195308 -4.438742 0
M  V30 51 H -3.164544 -3.175160 -4.533065 0
M  V30 52 H -0.950391 -5.840322 -1.464427 0
M  V30 53 H -1.365903 -7.663896 0.190034 0
M  V30 END ATOM
M  V30 BEGIN BOND
M  V30 1 1 1 2
M  V30 2 1 2 3
M  V30 3 2 3 4
M  V30 4 1 4 5
M  V30 5 1 5 6
M  V30 6 2 6 7
M  V30 7 1 7 8
M  V30 8 1 8 9
M  V30 9 2 9 10
M  V30 10 1 9 11
M  V30 11 1 11 12
M  V30 12 1 12 13
M  V30 13 1 13 14
M  V30 14 1 14 15
M  V30 15 1 15 16
M  V30 16 1 16 17
M  V30 17 1 15 18
M  V30 18 1 18 19
M  V30 19 2 8 20
M  V30 20 1 20 21
M  V30 21 1 21 22
M  V30 22 2 21 23
M  V30 23 1 23 24
M  V30 24 2 24 25
M  V30 25 1 25 26
M  V30 26 2 5 27
M  V30 27 1 27 28
M  V30 28 2 28 29
M  V30 29 1 29 3
M  V30 30 1 26 6
M  V30 31 1 19 12
M  V30 32 1 26 20
M  V30 33 1 1 30
M  V30 34 1 1 31
M  V30 35 1 1 32
M  V30 36 1 4 33
M  V30 37 1 7 34
M  V30 38 1 11 35
M  V30 39 1 12 36 CFG=3
M  V30 40 1 13 37
M  V30 41 1 13 38
M  V30 42 1 14 39
M  V30 43 1 14 40
M  V30 44 1 15 41 CFG=1
M  V30 45 1 16 42
M  V30 46 1 16 43
M  V30 47 1 17 44
M  V30 48 1 18 45
M  V30 49 1 18 46
M  V30 50 1 19 47
M  V30 51 1 19 48
M  V30 52 1 22 49
M  V30 53 1 22 50
M  V30 54 1 24 51
M  V30 55 1 27 52
M  V30 56 1 28 53
M  V30 END BOND
M  V30 END CTAB
M  END
>  <Dataset>  (740) 
ChEMBL_Kinases

>  <Ligand_Instance>  (740) 
nan

>  <PDB_ID>  (740) 
nan

>  <Standardized_SMILES>  (740) 
COc1cc(-c2cc(C(=O)N[C@H]3CC[C@@H](CO)CC3)c3c(N)ncnn23)ccn1

>  <Name>  (740) 
nan

>  <Pocket>  (740) 
nan

>  <ATP_Site>  (740) 
nan

>  <Peripheral>  (740) 
nan

>  <Num_H_Atoms_ProtBoundConf>  (740) 
nan

>  <Num_Resolved_Atoms>  (740) 
nan

>  <Num_Not_Resolved_Atoms>  (740) 
nan

$$$$
CHEMBL4283652
     RDKit          3D

  0  0  0  0  0  0  0  0  0  0999 V3000
M  V30 BEGIN CTAB
M  V30 COUNTS 65 68 0 0 0
M  V30 BEGIN ATOM
M  V30 1 C 4.387832 1.160562 6.200483 0
M  V30 2 C 3.779332 0.490775 5.005514 0
M  V30 3 C 2.487150 1.161988 4.571212 0
M  V30 4 N 1.909077 0.495441 3.405557 0
M  V30 5 C 2.244573 0.893303 2.082251 0
M  V30 6 O 1.770264 0.346835 1.035172 0
M  V30 7 N 3.138275 1.935401 1.789905 0
M  V30 8 C 3.519017 2.385774 0.498813 0
M  V30 9 C 4.624499 1.819118 -0.140644 0
M  V30 10 C 4.914907 2.319893 -1.386539 0
M  V30 11 C 4.227495 3.308739 -2.045022 0
M  V30 12 C 3.145007 3.822919 -1.351330 0
M  V30 13 C 2.306528 4.892714 -1.928310 0
M  V30 14 O 1.302242 5.404751 -1.343007 0
M  V30 15 O 2.517384 5.457599 -3.166786 0
M  V30 16 C 2.760382 3.392286 -0.087184 0
M  V30 17 C 0.968949 -0.599602 3.546829 0
M  V30 18 C -0.357384 -0.078180 3.043375 0
M  V30 19 C -1.320467 -1.236007 2.920805 0
M  V30 20 C -0.868094 -2.118471 1.785328 0
M  V30 21 N -1.666622 -2.605911 0.842879 0
M  V30 22 C -0.985526 -3.384922 -0.069209 0
M  V30 23 N -1.493114 -4.082167 -1.224692 0
M  V30 24 C -2.868068 -3.910927 -1.396715 0
M  V30 25 O -3.622468 -3.242974 -0.666783 0
M  V30 26 N -3.415853 -4.594829 -2.545378 0
M  V30 27 C -4.808342 -4.501914 -2.835322 0
M  V30 28 C -5.708639 -5.409525 -2.316236 0
M  V30 29 C -7.043030 -5.259603 -2.638521 0
M  V30 30 C -7.510296 -4.247401 -3.452096 0
M  V30 31 C -6.553319 -3.356316 -3.950076 0
M  V30 32 C -6.915414 -2.226884 -4.832582 0
M  V30 33 O -6.072875 -1.391320 -5.308088 0
M  V30 34 O -8.209607 -1.941876 -5.247451 0
M  V30 35 C -5.207742 -3.456934 -3.661992 0
M  V30 36 S 0.765566 -3.375871 0.475224 0
M  V30 37 C 0.486388 -2.338529 1.880058 0
M  V30 38 C 1.409801 -1.842430 2.863382 0
M  V30 39 H 3.921961 0.842735 7.161079 0
M  V30 40 H 4.350122 2.278977 6.103453 0
M  V30 41 H 5.464209 0.904278 6.275735 0
M  V30 42 H 3.514532 -0.547103 5.299989 0
M  V30 43 H 4.511665 0.471652 4.191390 0
M  V30 44 H 1.734050 1.111611 5.381271 0
M  V30 45 H 2.620731 2.232375 4.333199 0
M  V30 46 H 3.602475 2.471572 2.561542 0
M  V30 47 H 5.189527 1.043533 0.338939 0
M  V30 48 H 5.773181 1.874169 -1.873359 0
M  V30 49 H 4.483476 3.675965 -3.020152 0
M  V30 50 H 2.342134 6.456900 -3.324703 0
M  V30 51 H 1.918139 3.804944 0.431670 0
M  V30 52 H 0.824126 -0.774551 4.642011 0
M  V30 53 H -0.307568 0.465673 2.098322 0
M  V30 54 H -0.762214 0.600315 3.815905 0
M  V30 55 H -1.318442 -1.801610 3.874519 0
M  V30 56 H -2.310411 -0.805754 2.780687 0
M  V30 57 H -0.782686 -4.610659 -1.767691 0
M  V30 58 H -2.810759 -5.177125 -3.197642 0
M  V30 59 H -5.365021 -6.205761 -1.680081 0
M  V30 60 H -7.796204 -5.923935 -2.273612 0
M  V30 61 H -8.546934 -4.099997 -3.725006 0
M  V30 62 H -8.530239 -0.978422 -5.178183 0
M  V30 63 H -4.485349 -2.768218 -4.049613 0
M  V30 64 H 1.616762 -2.621429 3.625357 0
M  V30 65 H 2.429864 -1.613447 2.426940 0
M  V30 END ATOM
M  V30 BEGIN BOND
M  V30 1 1 1 2
M  V30 2 1 2 3
M  V30 3 1 3 4
M  V30 4 1 4 5
M  V30 5 2 5 6
M  V30 6 1 5 7
M  V30 7 1 7 8
M  V30 8 2 8 9
M  V30 9 1 9 10
M  V30 10 2 10 11
M  V30 11 1 11 12
M  V30 12 1 12 13
M  V30 13 2 13 14
M  V30 14 1 13 15
M  V30 15 2 12 16
M  V30 16 1 4 17
M  V30 17 1 17 18
M  V30 18 1 18 19
M  V30 19 1 19 20
M  V30 20 1 20 21
M  V30 21 2 21 22
M  V30 22 1 22 23
M  V30 23 1 23 24
M  V30 24 2 24 25
M  V30 25 1 24 26
M  V30 26 1 26 27
M  V30 27 2 27 28
M  V30 28 1 28 29
M  V30 29 2 29 30
M  V30 30 1 30 31
M  V30 31 1 31 32
M  V30 32 2 32 33
M  V30 33 1 32 34
M  V30 34 2 31 35
M  V30 35 1 22 36
M  V30 36 1 36 37
M  V30 37 1 37 38
M  V30 38 1 16 8
M  V30 39 1 38 17
M  V30 40 2 37 20
M  V30 41 1 35 27
M  V30 42 1 1 39
M  V30 43 1 1 40
M  V30 44 1 1 41
M  V30 45 1 2 42
M  V30 46 1 2 43
M  V30 47 1 3 44
M  V30 48 1 3 45
M  V30 49 1 7 46
M  V30 50 1 9 47
M  V30 51 1 10 48
M  V30 52 1 11 49
M  V30 53 1 15 50
M  V30 54 1 16 51
M  V30 55 1 17 52
M  V30 56 1 18 53
M  V30 57 1 18 54
M  V30 58 1 19 55
M  V30 59 1 19 56
M  V30 60 1 23 57
M  V30 61 1 26 58
M  V30 62 1 28 59
M  V30 63 1 29 60
M  V30 64 1 30 61
M  V30 65 1 34 62
M  V30 66 1 35 63
M  V30 67 1 38 64
M  V30 68 1 38 65
M  V30 END BOND
M  V30 END CTAB
M  END
>  <Dataset>  (741) 
ChEMBL_Kinases

>  <Ligand_Instance>  (741) 
nan

>  <PDB_ID>  (741) 
nan

>  <Standardized_SMILES>  (741) 
CCCN(C(=O)Nc1cccc(C(=O)O)c1)C1CCc2nc(NC(=O)Nc3cccc(C(=O)O)c3)sc2C1

>  <Name>  (741) 
nan

>  <Pocket>  (741) 
nan

>  <ATP_Site>  (741) 
nan

>  <Peripheral>  (741) 
nan

>  <Num_H_Atoms_ProtBoundConf>  (741) 
nan

>  <Num_Resolved_Atoms>  (741) 
nan

>  <Num_Not_Resolved_Atoms>  (741) 
nan

$$$$
CHEMBL3093163
     RDKit          3D

  0  0  0  0  0  0  0  0  0  0999 V3000
M  V30 BEGIN CTAB
M  V30 COUNTS 58 63 0 0 0
M  V30 BEGIN ATOM
M  V30 1 N -2.786125 -4.824835 4.088137 0
M  V30 2 C -3.667026 -4.196202 3.679407 0
M  V30 3 C -4.742140 -3.400930 3.164774 0
M  V30 4 C -5.726928 -3.026818 4.052096 0
M  V30 5 C -6.751532 -2.259402 3.524375 0
M  V30 6 N -6.746684 -1.922415 2.219980 0
M  V30 7 C -5.777716 -2.295630 1.366419 0
M  V30 8 O -5.817507 -1.921589 0.024795 0
M  V30 9 C -4.808106 -2.313385 -0.851038 0
M  V30 10 C -4.827404 -3.482811 -1.586897 0
M  V30 11 C -3.784866 -3.797505 -2.433899 0
M  V30 12 C -2.692772 -2.979844 -2.587541 0
M  V30 13 N -1.526135 -2.939858 -3.284758 0
M  V30 14 C -0.868725 -1.812499 -2.971170 0
M  V30 15 C 0.424257 -1.389084 -3.501510 0
M  V30 16 C 0.997340 -0.201189 -3.097588 0
M  V30 17 C 2.213187 0.250887 -3.562323 0
M  V30 18 C 2.714583 1.528640 -3.057191 0
M  V30 19 C 3.491129 2.470609 -3.647378 0
M  V30 20 N 3.686623 3.488754 -2.764486 0
M  V30 21 N 3.057496 3.216531 -1.637923 0
M  V30 22 C 2.987656 4.015228 -0.419250 0
M  V30 23 C 3.935222 3.567896 0.645723 0
M  V30 24 C 3.236679 3.758201 1.979431 0
M  V30 25 N 2.493953 5.026898 1.950628 0
M  V30 26 C 1.329987 4.934492 1.110780 0
M  V30 27 C 1.572463 3.843213 0.096796 0
M  V30 28 C 2.449703 2.016647 -1.786962 0
M  V30 29 C 2.858822 -0.554096 -4.476942 0
M  V30 30 N 2.304645 -1.721697 -4.879600 0
M  V30 31 C 1.116755 -2.152043 -4.418341 0
M  V30 32 N 0.574535 -3.401028 -4.880177 0
M  V30 33 O -1.580452 -1.140697 -2.100573 0
M  V30 34 C -2.701050 -1.808315 -1.833280 0
M  V30 35 C -3.730758 -1.451161 -0.967018 0
M  V30 36 C -4.727574 -3.062078 1.830146 0
M  V30 37 H -5.716118 -3.304103 5.090811 0
M  V30 38 H -7.569739 -1.915162 4.132470 0
M  V30 39 H -5.680373 -4.136552 -1.476995 0
M  V30 40 H -3.784994 -4.706206 -3.014741 0
M  V30 41 H 0.451834 0.400015 -2.375110 0
M  V30 42 H 3.882309 2.397049 -4.668059 0
M  V30 43 H 3.142020 5.056119 -0.712490 0
M  V30 44 H 4.274045 2.523607 0.544465 0
M  V30 45 H 4.800020 4.273529 0.674152 0
M  V30 46 H 3.953185 3.876909 2.813825 0
M  V30 47 H 2.563519 2.912834 2.216071 0
M  V30 48 H 2.276667 5.346199 2.907262 0
M  V30 49 H 0.387438 4.743080 1.662766 0
M  V30 50 H 1.204296 5.903444 0.573450 0
M  V30 51 H 0.876471 3.924283 -0.774391 0
M  V30 52 H 1.388490 2.867196 0.550618 0
M  V30 53 H 1.842273 1.503797 -1.030341 0
M  V30 54 H 3.814987 -0.180984 -4.831436 0
M  V30 55 H 0.882580 -4.063090 -4.135478 0
M  V30 56 H 0.096608 -3.126456 -5.770895 0
M  V30 57 H -3.641267 -0.501723 -0.416086 0
M  V30 58 H -3.912988 -3.401484 1.212238 0
M  V30 END ATOM
M  V30 BEGIN BOND
M  V30 1 3 1 2
M  V30 2 1 2 3
M  V30 3 2 3 4
M  V30 4 1 4 5
M  V30 5 2 5 6
M  V30 6 1 6 7
M  V30 7 1 7 8
M  V30 8 1 8 9
M  V30 9 2 9 10
M  V30 10 1 10 11
M  V30 11 2 11 12
M  V30 12 1 12 13
M  V30 13 2 13 14
M  V30 14 1 14 15
M  V30 15 2 15 16
M  V30 16 1 16 17
M  V30 17 1 17 18
M  V30 18 1 18 19
M  V30 19 2 19 20
M  V30 20 1 20 21
M  V30 21 1 21 22
M  V30 22 1 22 23
M  V30 23 1 23 24
M  V30 24 1 24 25
M  V30 25 1 25 26
M  V30 26 1 26 27
M  V30 27 1 21 28
M  V30 28 2 17 29
M  V30 29 1 29 30
M  V30 30 2 30 31
M  V30 31 1 31 32
M  V30 32 1 14 33
M  V30 33 1 33 34
M  V30 34 2 34 35
M  V30 35 2 7 36
M  V30 36 1 36 3
M  V30 37 1 35 9
M  V30 38 1 34 12
M  V30 39 1 31 15
M  V30 40 2 28 18
M  V30 41 1 27 22
M  V30 42 1 4 37
M  V30 43 1 5 38
M  V30 44 1 10 39
M  V30 45 1 11 40
M  V30 46 1 16 41
M  V30 47 1 19 42
M  V30 48 1 22 43
M  V30 49 1 23 44
M  V30 50 1 23 45
M  V30 51 1 24 46
M  V30 52 1 24 47
M  V30 53 1 25 48
M  V30 54 1 26 49
M  V30 55 1 26 50
M  V30 56 1 27 51
M  V30 57 1 27 52
M  V30 58 1 28 53
M  V30 59 1 29 54
M  V30 60 1 32 55
M  V30 61 1 32 56
M  V30 62 1 35 57
M  V30 63 1 36 58
M  V30 END BOND
M  V30 END CTAB
M  END
>  <Dataset>  (742) 
ChEMBL_Kinases

>  <Ligand_Instance>  (742) 
nan

>  <PDB_ID>  (742) 
nan

>  <Standardized_SMILES>  (742) 
N#Cc1ccnc(Oc2ccc3nc(-c4cc(-c5cnn(C6CCNCC6)c5)cnc4N)oc3c2)c1

>  <Name>  (742) 
nan

>  <Pocket>  (742) 
nan

>  <ATP_Site>  (742) 
nan

>  <Peripheral>  (742) 
nan

>  <Num_H_Atoms_ProtBoundConf>  (742) 
nan

>  <Num_Resolved_Atoms>  (742) 
nan

>  <Num_Not_Resolved_Atoms>  (742) 
nan

$$$$
CHEMBL3093151
     RDKit          3D

  0  0  0  0  0  0  0  0  0  0999 V3000
M  V30 BEGIN CTAB
M  V30 COUNTS 59 64 0 0 0
M  V30 BEGIN ATOM
M  V30 1 N 0.343420 -3.791035 2.939871 0
M  V30 2 C 0.645035 -2.405389 2.958488 0
M  V30 3 N 1.102197 -1.700602 4.021242 0
M  V30 4 C 1.355727 -0.379709 3.921157 0
M  V30 5 C 1.172853 0.339108 2.754162 0
M  V30 6 C 1.449877 1.768082 2.655728 0
M  V30 7 C 1.879733 2.436036 1.527706 0
M  V30 8 N 2.015235 3.732698 1.855163 0
M  V30 9 N 1.696437 3.928858 3.126637 0
M  V30 10 C 1.676855 5.123624 3.948386 0
M  V30 11 C 2.625580 6.120854 3.334858 0
M  V30 12 C 2.026110 6.872384 2.169593 0
M  V30 13 N 0.835897 6.186972 1.704158 0
M  V30 14 C -0.173525 6.324045 2.740490 0
M  V30 15 C 0.253966 5.634598 4.000098 0
M  V30 16 C 1.342199 2.726415 3.646216 0
M  V30 17 C 0.712799 -0.335473 1.658995 0
M  V30 18 C 0.459716 -1.689970 1.785534 0
M  V30 19 C -0.036806 -2.379808 0.575233 0
M  V30 20 N -0.279780 -1.858273 -0.653735 0
M  V30 21 C -0.723345 -2.832180 -1.469940 0
M  V30 22 C -1.111709 -2.837003 -2.812909 0
M  V30 23 C -1.530720 -4.019533 -3.389375 0
M  V30 24 C -1.555396 -5.167248 -2.624364 0
M  V30 25 N -1.987249 -6.350670 -3.244671 0
M  V30 26 C -2.418131 -6.513062 -4.618123 0
M  V30 27 C -1.957680 -7.891756 -5.046187 0
M  V30 28 C -1.570485 -8.610856 -3.772318 0
M  V30 29 C -2.117146 -7.702887 -2.693180 0
M  V30 30 C -1.172118 -5.162874 -1.298660 0
M  V30 31 C -0.747299 -3.994644 -0.691494 0
M  V30 32 O -0.332580 -3.655693 0.495273 0
M  V30 33 H 1.047039 -4.521085 2.691540 0
M  V30 34 H -0.624643 -4.078185 3.186437 0
M  V30 35 H 1.720292 0.155073 4.788883 0
M  V30 36 H 2.071290 1.998570 0.562719 0
M  V30 37 H 2.009241 4.933509 4.977194 0
M  V30 38 H 3.006114 6.807259 4.115364 0
M  V30 39 H 3.496448 5.532291 2.936841 0
M  V30 40 H 1.676270 7.851307 2.592396 0
M  V30 41 H 2.772353 7.044508 1.356163 0
M  V30 42 H 0.482859 6.723194 0.865612 0
M  V30 43 H -1.139293 5.954001 2.346757 0
M  V30 44 H -0.280561 7.423260 2.932620 0
M  V30 45 H 0.089102 6.307653 4.885549 0
M  V30 46 H -0.424497 4.766498 4.162139 0
M  V30 47 H 1.023463 2.494034 4.647988 0
M  V30 48 H 0.555937 0.191724 0.724251 0
M  V30 49 H -1.054668 -1.895313 -3.313066 0
M  V30 50 H -1.813131 -3.937154 -4.429567 0
M  V30 51 H -3.521805 -6.544577 -4.634858 0
M  V30 52 H -1.971772 -5.770994 -5.308453 0
M  V30 53 H -2.760490 -8.465259 -5.573718 0
M  V30 54 H -1.087492 -7.871382 -5.725789 0
M  V30 55 H -0.487601 -8.752244 -3.690799 0
M  V30 56 H -2.064186 -9.597099 -3.652477 0
M  V30 57 H -1.564124 -7.759463 -1.750887 0
M  V30 58 H -3.178698 -7.862818 -2.495596 0
M  V30 59 H -1.188247 -6.057250 -0.691724 0
M  V30 END ATOM
M  V30 BEGIN BOND
M  V30 1 1 1 2
M  V30 2 2 2 3
M  V30 3 1 3 4
M  V30 4 2 4 5
M  V30 5 1 5 6
M  V30 6 1 6 7
M  V30 7 2 7 8
M  V30 8 1 8 9
M  V30 9 1 9 10
M  V30 10 1 10 11
M  V30 11 1 11 12
M  V30 12 1 12 13
M  V30 13 1 13 14
M  V30 14 1 14 15
M  V30 15 1 9 16
M  V30 16 1 5 17
M  V30 17 2 17 18
M  V30 18 1 18 19
M  V30 19 2 19 20
M  V30 20 1 20 21
M  V30 21 2 21 22
M  V30 22 1 22 23
M  V30 23 2 23 24
M  V30 24 1 24 25
M  V30 25 1 25 26
M  V30 26 1 26 27
M  V30 27 1 27 28
M  V30 28 1 28 29
M  V30 29 1 24 30
M  V30 30 2 30 31
M  V30 31 1 31 32
M  V30 32 1 18 2
M  V30 33 1 32 19
M  V30 34 2 16 6
M  V30 35 1 31 21
M  V30 36 1 15 10
M  V30 37 1 29 25
M  V30 38 1 1 33
M  V30 39 1 1 34
M  V30 40 1 4 35
M  V30 41 1 7 36
M  V30 42 1 10 37
M  V30 43 1 11 38
M  V30 44 1 11 39
M  V30 45 1 12 40
M  V30 46 1 12 41
M  V30 47 1 13 42
M  V30 48 1 14 43
M  V30 49 1 14 44
M  V30 50 1 15 45
M  V30 51 1 15 46
M  V30 52 1 16 47
M  V30 53 1 17 48
M  V30 54 1 22 49
M  V30 55 1 23 50
M  V30 56 1 26 51
M  V30 57 1 26 52
M  V30 58 1 27 53
M  V30 59 1 27 54
M  V30 60 1 28 55
M  V30 61 1 28 56
M  V30 62 1 29 57
M  V30 63 1 29 58
M  V30 64 1 30 59
M  V30 END BOND
M  V30 END CTAB
M  END
>  <Dataset>  (743) 
ChEMBL_Kinases

>  <Ligand_Instance>  (743) 
nan

>  <PDB_ID>  (743) 
nan

>  <Standardized_SMILES>  (743) 
Nc1ncc(-c2cnn(C3CCNCC3)c2)cc1-c1nc2ccc(N3CCCC3)cc2o1

>  <Name>  (743) 
nan

>  <Pocket>  (743) 
nan

>  <ATP_Site>  (743) 
nan

>  <Peripheral>  (743) 
nan

>  <Num_H_Atoms_ProtBoundConf>  (743) 
nan

>  <Num_Resolved_Atoms>  (743) 
nan

>  <Num_Not_Resolved_Atoms>  (743) 
nan

$$$$
CHEMBL3681217
     RDKit          3D

  0  0  0  0  0  0  0  0  0  0999 V3000
M  V30 BEGIN CTAB
M  V30 COUNTS 51 54 0 0 0
M  V30 BEGIN ATOM
M  V30 1 N 3.246227 -4.315420 3.739527 0
M  V30 2 C 4.433698 -3.706713 3.299565 0
M  V30 3 O 5.532489 -3.726761 3.918482 0
M  V30 4 C 4.349944 -2.998509 2.003208 0
M  V30 5 C 5.502381 -2.493744 1.404849 0
M  V30 6 C 5.432091 -1.850625 0.183542 0
M  V30 7 C 4.225450 -1.696761 -0.464257 0
M  V30 8 C 3.050675 -2.172729 0.072935 0
M  V30 9 C 1.700481 -2.168774 -0.470942 0
M  V30 10 C 0.752670 -1.509583 0.321873 0
M  V30 11 C -0.482813 -1.640507 -0.329271 0
M  V30 12 C -1.763625 -1.039182 0.084869 0
M  V30 13 O -2.914823 -1.505894 0.109276 0
M  V30 14 N -1.519938 0.336327 0.520688 0
M  V30 15 C -2.526379 1.283462 0.986741 0 CFG=1
M  V30 16 C -2.475671 1.411471 2.488022 0
M  V30 17 C -2.569349 2.748409 3.078357 0
M  V30 18 C -3.132279 3.863512 2.275646 0 CFG=2
M  V30 19 O -4.422117 4.191992 2.689103 0
M  V30 20 C -3.203420 3.612271 0.798498 0
M  V30 21 C -2.199538 2.604393 0.366865 0
M  V30 22 C -0.269634 -2.380874 -1.500691 0
M  V30 23 C -1.081961 -2.854999 -2.533131 0
M  V30 24 N -2.490878 -2.544321 -2.449764 0
M  V30 25 N -0.500691 -3.571286 -3.509435 0
M  V30 26 C 0.799453 -3.815253 -3.490241 0
M  V30 27 N 1.557915 -3.355371 -2.497829 0
M  V30 28 N 1.042288 -2.656460 -1.521231 0
M  V30 29 C 3.185214 -2.815434 1.315037 0
M  V30 30 H 2.888078 -5.110986 3.139422 0
M  V30 31 H 2.452453 -4.414529 4.398951 0
M  V30 32 H 6.410231 -2.654655 1.979414 0
M  V30 33 H 6.325938 -1.468396 -0.254600 0
M  V30 34 H 4.098359 -1.199915 -1.411193 0
M  V30 35 H 0.758395 -0.966552 1.246821 0
M  V30 36 H -0.543824 0.773081 0.523785 0
M  V30 37 H -3.526263 0.952468 0.662921 0
M  V30 38 H -3.287036 0.712568 2.875394 0
M  V30 39 H -1.538495 0.897912 2.826045 0
M  V30 40 H -3.229952 2.645965 3.997503 0
M  V30 41 H -1.593611 3.082539 3.541539 0
M  V30 42 H -2.510283 4.774109 2.421032 0
M  V30 43 H -4.546906 5.179429 2.513218 0
M  V30 44 H -3.040969 4.555393 0.201525 0
M  V30 45 H -4.203302 3.266598 0.485914 0
M  V30 46 H -2.260905 2.546348 -0.758945 0
M  V30 47 H -1.147550 2.866702 0.626904 0
M  V30 48 H -2.786395 -3.364914 -1.837423 0
M  V30 49 H -3.179595 -1.834612 -2.796229 0
M  V30 50 H 1.159066 -4.393147 -4.327145 0
M  V30 51 H 2.292410 -3.204753 1.779511 0
M  V30 END ATOM
M  V30 BEGIN BOND
M  V30 1 1 1 2
M  V30 2 2 2 3
M  V30 3 1 2 4
M  V30 4 2 4 5
M  V30 5 1 5 6
M  V30 6 2 6 7
M  V30 7 1 7 8
M  V30 8 1 8 9
M  V30 9 2 9 10
M  V30 10 1 10 11
M  V30 11 1 11 12
M  V30 12 2 12 13
M  V30 13 1 12 14
M  V30 14 1 14 15
M  V30 15 1 15 16
M  V30 16 1 16 17
M  V30 17 1 17 18
M  V30 18 1 18 19
M  V30 19 1 18 20
M  V30 20 1 20 21
M  V30 21 2 11 22
M  V30 22 1 22 23
M  V30 23 1 23 24
M  V30 24 2 23 25
M  V30 25 1 25 26
M  V30 26 2 26 27
M  V30 27 1 27 28
M  V30 28 2 8 29
M  V30 29 1 29 4
M  V30 30 1 28 9
M  V30 31 1 21 15
M  V30 32 1 28 22
M  V30 33 1 1 30
M  V30 34 1 1 31
M  V30 35 1 5 32
M  V30 36 1 6 33
M  V30 37 1 7 34
M  V30 38 1 10 35
M  V30 39 1 14 36
M  V30 40 1 15 37 CFG=1
M  V30 41 1 16 38
M  V30 42 1 16 39
M  V30 43 1 17 40
M  V30 44 1 17 41
M  V30 45 1 18 42 CFG=3
M  V30 46 1 19 43
M  V30 47 1 20 44
M  V30 48 1 20 45
M  V30 49 1 21 46
M  V30 50 1 21 47
M  V30 51 1 24 48
M  V30 52 1 24 49
M  V30 53 1 26 50
M  V30 54 1 29 51
M  V30 END BOND
M  V30 END CTAB
M  END
>  <Dataset>  (744) 
ChEMBL_Kinases

>  <Ligand_Instance>  (744) 
nan

>  <PDB_ID>  (744) 
nan

>  <Standardized_SMILES>  (744) 
NC(=O)c1cccc(-c2cc(C(=O)N[C@H]3CC[C@H](O)CC3)c3c(N)ncnn23)c1

>  <Name>  (744) 
nan

>  <Pocket>  (744) 
nan

>  <ATP_Site>  (744) 
nan

>  <Peripheral>  (744) 
nan

>  <Num_H_Atoms_ProtBoundConf>  (744) 
nan

>  <Num_Resolved_Atoms>  (744) 
nan

>  <Num_Not_Resolved_Atoms>  (744) 
nan

$$$$
CHEMBL4285513
     RDKit          3D

  0  0  0  0  0  0  0  0  0  0999 V3000
M  V30 BEGIN CTAB
M  V30 COUNTS 31 33 0 0 0
M  V30 BEGIN ATOM
M  V30 1 O 0.436898 -1.729961 1.125837 0
M  V30 2 C 1.396583 -1.724581 0.283139 0
M  V30 3 N 2.337248 -2.762707 0.488309 0
M  V30 4 C 2.036728 -3.608977 1.586894 0
M  V30 5 C 2.418810 -3.485034 2.905722 0
M  V30 6 C 2.035202 -4.403504 3.846527 0
M  V30 7 C 1.241533 -5.473009 3.423317 0
M  V30 8 C 0.838311 -5.637815 2.128511 0
M  V30 9 C 1.243157 -4.687714 1.190448 0
M  V30 10 N 1.471467 -0.755306 -0.740110 0
M  V30 11 C 0.414547 0.267526 -0.828733 0
M  V30 12 N 0.446099 1.326550 -0.275020 0
M  V30 13 C -0.468741 2.272697 -0.320970 0
M  V30 14 C -0.519915 3.515019 0.278031 0
M  V30 15 C -1.581244 4.337239 0.085429 0
M  V30 16 C -2.678713 4.051004 -0.688524 0
M  V30 17 O -3.798424 4.824700 -0.939142 0
M  V30 18 C -2.722213 2.837165 -1.327397 0
M  V30 19 C -1.606413 1.988679 -1.116850 0
M  V30 20 S -1.182121 0.279514 -1.738046 0
M  V30 21 H 3.149133 -2.804794 -0.178521 0
M  V30 22 H 3.038989 -2.600905 3.098331 0
M  V30 23 H 2.365290 -4.250324 4.854386 0
M  V30 24 H 0.952835 -6.184807 4.190026 0
M  V30 25 H 0.224803 -6.484665 1.858758 0
M  V30 26 H 0.881404 -4.890556 0.185654 0
M  V30 27 H 2.295683 -0.847210 -1.368460 0
M  V30 28 H 0.288085 3.873054 0.922343 0
M  V30 29 H -1.625878 5.329467 0.561688 0
M  V30 30 H -4.717961 4.530464 -0.593707 0
M  V30 31 H -3.456546 2.374479 -1.982408 0
M  V30 END ATOM
M  V30 BEGIN BOND
M  V30 1 2 1 2
M  V30 2 1 2 3
M  V30 3 1 3 4
M  V30 4 2 4 5
M  V30 5 1 5 6
M  V30 6 2 6 7
M  V30 7 1 7 8
M  V30 8 2 8 9
M  V30 9 1 2 10
M  V30 10 1 10 11
M  V30 11 2 11 12
M  V30 12 1 12 13
M  V30 13 2 13 14
M  V30 14 1 14 15
M  V30 15 2 15 16
M  V30 16 1 16 17
M  V30 17 1 16 18
M  V30 18 2 18 19
M  V30 19 1 19 20
M  V30 20 1 9 4
M  V30 21 1 20 11
M  V30 22 1 19 13
M  V30 23 1 3 21
M  V30 24 1 5 22
M  V30 25 1 6 23
M  V30 26 1 7 24
M  V30 27 1 8 25
M  V30 28 1 9 26
M  V30 29 1 10 27
M  V30 30 1 14 28
M  V30 31 1 15 29
M  V30 32 1 17 30
M  V30 33 1 18 31
M  V30 END BOND
M  V30 END CTAB
M  END
>  <Dataset>  (745) 
ChEMBL_Kinases

>  <Ligand_Instance>  (745) 
nan

>  <PDB_ID>  (745) 
nan

>  <Standardized_SMILES>  (745) 
O=C(Nc1ccccc1)Nc1nc2ccc(O)cc2s1

>  <Name>  (745) 
nan

>  <Pocket>  (745) 
nan

>  <ATP_Site>  (745) 
nan

>  <Peripheral>  (745) 
nan

>  <Num_H_Atoms_ProtBoundConf>  (745) 
nan

>  <Num_Resolved_Atoms>  (745) 
nan

>  <Num_Not_Resolved_Atoms>  (745) 
nan

$$$$
CHEMBL3681216
     RDKit          3D

  0  0  0  0  0  0  0  0  0  0999 V3000
M  V30 BEGIN CTAB
M  V30 COUNTS 55 58 0 0 0
M  V30 BEGIN ATOM
M  V30 1 C -1.144007 -4.975702 4.613242 0
M  V30 2 O -1.788285 -5.680913 3.577474 0
M  V30 3 C -1.743638 -5.309089 2.245092 0
M  V30 4 C -1.050749 -4.193671 1.820023 0
M  V30 5 C -1.049517 -3.878736 0.459108 0
M  V30 6 C -0.328042 -2.700539 -0.020171 0
M  V30 7 C -0.434897 -1.474477 0.642163 0
M  V30 8 C 0.350137 -0.529905 -0.019527 0
M  V30 9 C 0.566873 0.881077 0.279313 0
M  V30 10 O 1.015519 1.007289 1.427147 0
M  V30 11 N 0.335647 2.021796 -0.538085 0
M  V30 12 C 0.611655 3.352165 -0.056688 0 CFG=1
M  V30 13 C 1.694004 4.068362 -0.834625 0
M  V30 14 C 2.089575 5.298100 -0.058525 0
M  V30 15 C 1.156707 5.684340 1.039564 0 CFG=2
M  V30 16 O 1.532473 5.123320 2.284428 0
M  V30 17 C -0.291649 5.465700 0.748097 0
M  V30 18 C -0.583262 4.255087 -0.070002 0
M  V30 19 C 0.890860 -1.257685 -1.057580 0
M  V30 20 C 1.747204 -0.959685 -2.088935 0
M  V30 21 N 2.264378 0.337492 -2.236040 0
M  V30 22 N 2.177643 -1.806890 -3.029230 0
M  V30 23 C 1.736653 -3.096460 -2.978508 0
M  V30 24 N 0.902488 -3.395162 -1.977133 0
M  V30 25 N 0.501261 -2.544194 -1.074811 0
M  V30 26 C -1.737885 -4.681664 -0.446514 0
M  V30 27 C -2.441778 -5.812728 -0.024248 0
M  V30 28 C -2.415319 -6.084234 1.327046 0
M  V30 29 C -3.177406 -7.283518 1.684833 0
M  V30 30 N -3.220865 -7.659227 3.075644 0
M  V30 31 O -3.811847 -8.040398 0.906450 0
M  V30 32 H -1.139894 -5.540212 5.549326 0
M  V30 33 H -0.057244 -4.919661 4.302819 0
M  V30 34 H -1.463329 -3.916044 4.705758 0
M  V30 35 H -0.529277 -3.597407 2.548629 0
M  V30 36 H -1.030524 -1.264556 1.535173 0
M  V30 37 H -0.040172 1.780221 -1.479122 0
M  V30 38 H 0.978996 3.250600 0.985819 0
M  V30 39 H 1.227401 4.413834 -1.780558 0
M  V30 40 H 2.544222 3.381609 -1.001675 0
M  V30 41 H 3.079343 5.060709 0.402146 0
M  V30 42 H 2.289518 6.147399 -0.743844 0
M  V30 43 H 1.282367 6.787301 1.199297 0
M  V30 44 H 2.515264 5.078676 2.334374 0
M  V30 45 H -0.762863 6.388373 0.299645 0
M  V30 46 H -0.825336 5.353519 1.726005 0
M  V30 47 H -1.531102 3.748934 0.227213 0
M  V30 48 H -0.769630 4.627615 -1.119185 0
M  V30 49 H 2.412003 1.361107 -2.280909 0
M  V30 50 H 2.438910 1.358074 -2.288380 0
M  V30 51 H 2.001090 -3.884763 -3.669551 0
M  V30 52 H -1.699135 -4.391065 -1.469442 0
M  V30 53 H -2.949604 -6.392015 -0.757883 0
M  V30 54 H -3.469336 -7.248833 4.002586 0
M  V30 55 H -2.910515 -8.654202 3.260008 0
M  V30 END ATOM
M  V30 BEGIN BOND
M  V30 1 1 1 2
M  V30 2 1 2 3
M  V30 3 2 3 4
M  V30 4 1 4 5
M  V30 5 1 5 6
M  V30 6 2 6 7
M  V30 7 1 7 8
M  V30 8 1 8 9
M  V30 9 2 9 10
M  V30 10 1 9 11
M  V30 11 1 11 12
M  V30 12 1 12 13
M  V30 13 1 13 14
M  V30 14 1 14 15
M  V30 15 1 15 16
M  V30 16 1 15 17
M  V30 17 1 17 18
M  V30 18 2 8 19
M  V30 19 1 19 20
M  V30 20 1 20 21
M  V30 21 2 20 22
M  V30 22 1 22 23
M  V30 23 2 23 24
M  V30 24 1 24 25
M  V30 25 2 5 26
M  V30 26 1 26 27
M  V30 27 2 27 28
M  V30 28 1 28 29
M  V30 29 1 29 30
M  V30 30 2 29 31
M  V30 31 1 28 3
M  V30 32 1 25 6
M  V30 33 1 18 12
M  V30 34 1 25 19
M  V30 35 1 1 32
M  V30 36 1 1 33
M  V30 37 1 1 34
M  V30 38 1 4 35
M  V30 39 1 7 36
M  V30 40 1 11 37
M  V30 41 1 12 38 CFG=1
M  V30 42 1 13 39
M  V30 43 1 13 40
M  V30 44 1 14 41
M  V30 45 1 14 42
M  V30 46 1 15 43 CFG=1
M  V30 47 1 16 44
M  V30 48 1 17 45
M  V30 49 1 17 46
M  V30 50 1 18 47
M  V30 51 1 18 48
M  V30 52 1 21 49
M  V30 53 1 21 50
M  V30 54 1 23 51
M  V30 55 1 26 52
M  V30 56 1 27 53
M  V30 57 1 30 54
M  V30 58 1 30 55
M  V30 END BOND
M  V30 END CTAB
M  END
>  <Dataset>  (746) 
ChEMBL_Kinases

>  <Ligand_Instance>  (746) 
nan

>  <PDB_ID>  (746) 
nan

>  <Standardized_SMILES>  (746) 
COc1cc(-c2cc(C(=O)N[C@H]3CC[C@H](O)CC3)c3c(N)ncnn23)ccc1C(N)=O

>  <Name>  (746) 
nan

>  <Pocket>  (746) 
nan

>  <ATP_Site>  (746) 
nan

>  <Peripheral>  (746) 
nan

>  <Num_H_Atoms_ProtBoundConf>  (746) 
nan

>  <Num_Resolved_Atoms>  (746) 
nan

>  <Num_Not_Resolved_Atoms>  (746) 
nan

$$$$
CHEMBL4284757
     RDKit          3D

  0  0  0  0  0  0  0  0  0  0999 V3000
M  V30 BEGIN CTAB
M  V30 COUNTS 45 49 0 0 0
M  V30 BEGIN ATOM
M  V30 1 N -2.272449 -6.082846 2.286341 0
M  V30 2 C -1.790398 -4.791680 1.933734 0
M  V30 3 N -0.515858 -4.645535 1.479628 0
M  V30 4 C -0.087781 -3.403873 1.152605 0
M  V30 5 O 1.133897 -3.204839 0.708710 0
M  V30 6 C 1.601809 -2.024007 0.377069 0
M  V30 7 C 2.892960 -1.866974 -0.084263 0
M  V30 8 C 3.335918 -0.579873 -0.422923 0
M  V30 9 C 2.524423 0.558807 -0.313967 0
M  V30 10 C 3.084672 1.861676 -0.698072 0
M  V30 11 C 2.344848 2.660277 -1.686279 0
M  V30 12 C 2.250944 4.129288 -1.292256 0
M  V30 13 C 1.357746 4.123059 -0.045538 0
M  V30 14 C 2.166188 3.456564 1.028256 0
M  V30 15 C 3.353885 2.690567 0.537140 0
M  V30 16 C 1.269657 0.316485 0.147386 0
M  V30 17 C 0.774355 -0.922975 0.496893 0
M  V30 18 C -0.513063 -1.074359 0.956133 0
M  V30 19 O -1.231655 -0.071418 1.053348 0
M  V30 20 C -0.966064 -2.346581 1.296084 0
M  V30 21 C -2.264990 -2.447273 1.751817 0
M  V30 22 C -2.655350 -3.730425 2.072106 0
M  V30 23 C -4.009615 -3.956920 2.565039 0
M  V30 24 N -4.559173 -5.131671 2.923521 0
M  V30 25 N -5.808640 -4.966712 3.323594 0
M  V30 26 N -6.049875 -3.671171 3.215927 0
M  V30 27 N -4.966832 -3.037039 2.755425 0
M  V30 28 H -2.400446 -6.060477 3.338577 0
M  V30 29 H -2.552033 -7.035078 1.957043 0
M  V30 30 H 3.548157 -2.711347 -0.183202 0
M  V30 31 H 4.367966 -0.535244 -0.779844 0
M  V30 32 H 4.118261 1.629332 -1.103864 0
M  V30 33 H 2.875187 2.669462 -2.667962 0
M  V30 34 H 1.293756 2.360814 -1.854684 0
M  V30 35 H 3.225152 4.583360 -1.091415 0
M  V30 36 H 1.722490 4.696544 -2.074022 0
M  V30 37 H 0.501614 3.464286 -0.297246 0
M  V30 38 H 1.028015 5.146192 0.210731 0
M  V30 39 H 1.550117 2.784573 1.690123 0
M  V30 40 H 2.551590 4.233103 1.729311 0
M  V30 41 H 4.263200 3.315928 0.432101 0
M  V30 42 H 3.607253 1.934382 1.337666 0
M  V30 43 H 0.599891 1.132362 0.253078 0
M  V30 44 H -2.913903 -1.607148 1.849196 0
M  V30 45 H -6.956993 -3.214601 3.457100 0
M  V30 END ATOM
M  V30 BEGIN BOND
M  V30 1 1 1 2
M  V30 2 2 2 3
M  V30 3 1 3 4
M  V30 4 1 4 5
M  V30 5 1 5 6
M  V30 6 2 6 7
M  V30 7 1 7 8
M  V30 8 2 8 9
M  V30 9 1 9 10
M  V30 10 1 10 11
M  V30 11 1 11 12
M  V30 12 1 12 13
M  V30 13 1 13 14
M  V30 14 1 14 15
M  V30 15 1 9 16
M  V30 16 2 16 17
M  V30 17 1 17 18
M  V30 18 2 18 19
M  V30 19 1 18 20
M  V30 20 1 20 21
M  V30 21 2 21 22
M  V30 22 1 22 23
M  V30 23 1 23 24
M  V30 24 2 24 25
M  V30 25 1 25 26
M  V30 26 1 26 27
M  V30 27 1 22 2
M  V30 28 2 27 23
M  V30 29 2 20 4
M  V30 30 1 17 6
M  V30 31 1 15 10
M  V30 32 1 1 28
M  V30 33 1 1 29
M  V30 34 1 7 30
M  V30 35 1 8 31
M  V30 36 1 10 32
M  V30 37 1 11 33
M  V30 38 1 11 34
M  V30 39 1 12 35
M  V30 40 1 12 36
M  V30 41 1 13 37
M  V30 42 1 13 38
M  V30 43 1 14 39
M  V30 44 1 14 40
M  V30 45 1 15 41
M  V30 46 1 15 42
M  V30 47 1 16 43
M  V30 48 1 21 44
M  V30 49 1 26 45
M  V30 END BOND
M  V30 END CTAB
M  END
>  <Dataset>  (747) 
ChEMBL_Kinases

>  <Ligand_Instance>  (747) 
nan

>  <PDB_ID>  (747) 
nan

>  <Standardized_SMILES>  (747) 
Nc1nc2oc3ccc(C4CCCCC4)cc3c(=O)c2cc1-c1nn[nH]n1

>  <Name>  (747) 
nan

>  <Pocket>  (747) 
nan

>  <ATP_Site>  (747) 
nan

>  <Peripheral>  (747) 
nan

>  <Num_H_Atoms_ProtBoundConf>  (747) 
nan

>  <Num_Resolved_Atoms>  (747) 
nan

>  <Num_Not_Resolved_Atoms>  (747) 
nan

$$$$
CHEMBL3681215
     RDKit          3D

  0  0  0  0  0  0  0  0  0  0999 V3000
M  V30 BEGIN CTAB
M  V30 COUNTS 43 45 0 0 0
M  V30 BEGIN ATOM
M  V30 1 C 1.284611 -4.461691 -0.391781 0
M  V30 2 N 1.065276 -3.210842 0.318589 0
M  V30 3 C 1.254586 -3.057971 1.747601 0
M  V30 4 C 0.008880 -3.348123 2.550473 0
M  V30 5 C 0.251024 -3.176043 4.037265 0
M  V30 6 N 0.666549 -1.808587 4.340833 0
M  V30 7 C 0.647192 -2.166534 -0.550145 0
M  V30 8 O 0.618763 -2.727761 -1.659465 0
M  V30 9 C 0.308067 -0.771514 -0.344807 0
M  V30 10 C 1.288473 0.218558 -0.426164 0
M  V30 11 C 0.649107 1.439007 -0.182226 0
M  V30 12 C 1.341063 2.745344 -0.177539 0
M  V30 13 C 0.873725 3.874107 -0.786491 0
M  V30 14 C 1.593953 5.049897 -0.726235 0
M  V30 15 N 2.765057 5.080308 -0.061486 0
M  V30 16 C 3.246467 3.995985 0.542182 0
M  V30 17 C 2.556898 2.805200 0.504079 0
M  V30 18 N -0.665161 1.210500 0.039223 0
M  V30 19 N -1.685735 2.008826 0.310905 0
M  V30 20 C -2.926707 1.498149 0.489719 0
M  V30 21 N -3.168612 0.157409 0.397601 0
M  V30 22 C -2.129128 -0.672362 0.119188 0
M  V30 23 N -2.350500 -2.074613 0.016693 0
M  V30 24 C -0.875793 -0.125134 -0.058167 0
M  V30 25 H 2.075865 -5.075160 0.122950 0
M  V30 26 H 1.676948 -4.317864 -1.416904 0
M  V30 27 H 0.338409 -4.998083 -0.451893 0
M  V30 28 H 2.005997 -3.823852 2.100717 0
M  V30 29 H 1.712142 -2.089460 2.033347 0
M  V30 30 H -0.823586 -2.703193 2.276915 0
M  V30 31 H -0.306053 -4.403844 2.423827 0
M  V30 32 H 0.983109 -3.911688 4.429601 0
M  V30 33 H -0.691821 -3.334380 4.598771 0
M  V30 34 H 0.461013 -1.657348 5.353125 0
M  V30 35 H 0.027462 -1.177561 3.807691 0
M  V30 36 H 2.342983 0.112603 -0.633431 0
M  V30 37 H -0.066623 3.770309 -1.296326 0
M  V30 38 H 1.127436 5.888910 -1.247435 0
M  V30 39 H 4.188371 4.162018 1.034164 0
M  V30 40 H 2.993504 1.958706 1.010344 0
M  V30 41 H -3.771662 2.141593 0.712859 0
M  V30 42 H -2.113042 -2.724417 -0.780294 0
M  V30 43 H -2.803541 -2.678789 0.760918 0
M  V30 END ATOM
M  V30 BEGIN BOND
M  V30 1 1 1 2
M  V30 2 1 2 3
M  V30 3 1 3 4
M  V30 4 1 4 5
M  V30 5 1 5 6
M  V30 6 1 2 7
M  V30 7 2 7 8
M  V30 8 1 7 9
M  V30 9 1 9 10
M  V30 10 2 10 11
M  V30 11 1 11 12
M  V30 12 2 12 13
M  V30 13 1 13 14
M  V30 14 2 14 15
M  V30 15 1 15 16
M  V30 16 2 16 17
M  V30 17 1 11 18
M  V30 18 1 18 19
M  V30 19 2 19 20
M  V30 20 1 20 21
M  V30 21 2 21 22
M  V30 22 1 22 23
M  V30 23 1 22 24
M  V30 24 2 24 9
M  V30 25 1 17 12
M  V30 26 1 24 18
M  V30 27 1 1 25
M  V30 28 1 1 26
M  V30 29 1 1 27
M  V30 30 1 3 28
M  V30 31 1 3 29
M  V30 32 1 4 30
M  V30 33 1 4 31
M  V30 34 1 5 32
M  V30 35 1 5 33
M  V30 36 1 6 34
M  V30 37 1 6 35
M  V30 38 1 10 36
M  V30 39 1 13 37
M  V30 40 1 14 38
M  V30 41 1 16 39
M  V30 42 1 17 40
M  V30 43 1 20 41
M  V30 44 1 23 42
M  V30 45 1 23 43
M  V30 END BOND
M  V30 END CTAB
M  END
>  <Dataset>  (748) 
ChEMBL_Kinases

>  <Ligand_Instance>  (748) 
nan

>  <PDB_ID>  (748) 
nan

>  <Standardized_SMILES>  (748) 
CN(CCCN)C(=O)c1cc(-c2ccncc2)n2ncnc(N)c12

>  <Name>  (748) 
nan

>  <Pocket>  (748) 
nan

>  <ATP_Site>  (748) 
nan

>  <Peripheral>  (748) 
nan

>  <Num_H_Atoms_ProtBoundConf>  (748) 
nan

>  <Num_Resolved_Atoms>  (748) 
nan

>  <Num_Not_Resolved_Atoms>  (748) 
nan

$$$$
CHEMBL3681214
     RDKit          3D

  0  0  0  0  0  0  0  0  0  0999 V3000
M  V30 BEGIN CTAB
M  V30 COUNTS 62 65 0 0 0
M  V30 BEGIN ATOM
M  V30 1 C 4.027381 1.849927 4.930701 0
M  V30 2 C 3.655816 1.509138 3.510942 0
M  V30 3 C 4.631146 0.437348 3.067866 0
M  V30 4 C 3.876793 2.785188 2.702099 0
M  V30 5 N 2.283448 1.046523 3.387621 0
M  V30 6 C 1.591145 -0.118112 2.944578 0
M  V30 7 C 1.151637 -0.206187 1.541375 0
M  V30 8 C 0.195883 0.860467 1.079600 0
M  V30 9 C -0.578786 0.283277 -0.088320 0
M  V30 10 N 0.309688 -0.535925 -0.929433 0
M  V30 11 C -0.037644 -1.657650 -1.730538 0
M  V30 12 O 0.748333 -2.338433 -2.440685 0
M  V30 13 C -1.401264 -2.161566 -1.819526 0
M  V30 14 C -2.446572 -1.858840 -2.668302 0
M  V30 15 C -3.555705 -2.632748 -2.327588 0
M  V30 16 C -4.810335 -2.524658 -3.056944 0
M  V30 17 C -5.566448 -3.601756 -3.480216 0
M  V30 18 C -6.751538 -3.474441 -4.169127 0
M  V30 19 N -7.191471 -2.227463 -4.441665 0
M  V30 20 C -6.501484 -1.123047 -4.057081 0
M  V30 21 C -5.300014 -1.254426 -3.358627 0
M  V30 22 N -3.209079 -3.419509 -1.268208 0
M  V30 23 N -3.924082 -4.306051 -0.609483 0
M  V30 24 C -3.436697 -5.006573 0.419875 0
M  V30 25 N -2.160220 -4.771255 0.770626 0
M  V30 26 C -1.457678 -3.859403 0.077288 0
M  V30 27 N -0.130835 -3.698251 0.536744 0
M  V30 28 C -1.928897 -3.122048 -0.986083 0
M  V30 29 C 1.693428 -0.104658 -0.901523 0
M  V30 30 C 2.210375 -0.408506 0.505633 0
M  V30 31 C 1.534425 2.151523 3.890952 0
M  V30 32 O 2.022571 3.229308 4.315934 0
M  V30 33 O 0.196767 2.449237 4.088630 0
M  V30 34 H 3.351861 1.377855 5.671802 0
M  V30 35 H 4.177576 2.932461 5.117179 0
M  V30 36 H 5.018517 1.403216 5.136261 0
M  V30 37 H 5.006399 0.611026 2.043090 0
M  V30 38 H 4.155152 -0.549174 3.229183 0
M  V30 39 H 5.536182 0.459568 3.708170 0
M  V30 40 H 2.939329 2.995021 2.177843 0
M  V30 41 H 4.100318 3.656039 3.348202 0
M  V30 42 H 4.749327 2.685579 2.027365 0
M  V30 43 H 0.680916 -0.268211 3.588281 0
M  V30 44 H 2.179448 -1.064993 3.141746 0
M  V30 45 H 0.530920 -1.156097 1.493131 0
M  V30 46 H 0.712187 1.801154 0.796953 0
M  V30 47 H -0.557020 1.018588 1.877510 0
M  V30 48 H -1.079901 1.078189 -0.685148 0
M  V30 49 H -1.379884 -0.355377 0.335488 0
M  V30 50 H -2.361696 -1.119428 -3.465001 0
M  V30 51 H -5.202832 -4.575823 -3.255724 0
M  V30 52 H -7.320153 -4.351882 -4.486550 0
M  V30 53 H -6.869073 -0.126667 -4.283897 0
M  V30 54 H -4.724625 -0.384153 -3.037004 0
M  V30 55 H -4.148094 -5.691670 0.852427 0
M  V30 56 H 0.782535 -3.994115 0.119443 0
M  V30 57 H 0.790891 -3.542819 0.934350 0
M  V30 58 H 1.662206 0.989369 -1.081298 0
M  V30 59 H 2.322083 -0.637984 -1.619515 0
M  V30 60 H 2.554810 -1.479291 0.454818 0
M  V30 61 H 3.125527 0.174335 0.630907 0
M  V30 62 H -0.274171 3.102614 3.476579 0
M  V30 END ATOM
M  V30 BEGIN BOND
M  V30 1 1 1 2
M  V30 2 1 2 3
M  V30 3 1 2 4
M  V30 4 1 2 5
M  V30 5 1 5 6
M  V30 6 1 6 7
M  V30 7 1 7 8
M  V30 8 1 8 9
M  V30 9 1 9 10
M  V30 10 1 10 11
M  V30 11 2 11 12
M  V30 12 1 11 13
M  V30 13 1 13 14
M  V30 14 2 14 15
M  V30 15 1 15 16
M  V30 16 2 16 17
M  V30 17 1 17 18
M  V30 18 2 18 19
M  V30 19 1 19 20
M  V30 20 2 20 21
M  V30 21 1 15 22
M  V30 22 1 22 23
M  V30 23 2 23 24
M  V30 24 1 24 25
M  V30 25 2 25 26
M  V30 26 1 26 27
M  V30 27 1 26 28
M  V30 28 1 10 29
M  V30 29 1 29 30
M  V30 30 1 5 31
M  V30 31 2 31 32
M  V30 32 1 31 33
M  V30 33 1 30 7
M  V30 34 2 28 13
M  V30 35 1 21 16
M  V30 36 1 28 22
M  V30 37 1 1 34
M  V30 38 1 1 35
M  V30 39 1 1 36
M  V30 40 1 3 37
M  V30 41 1 3 38
M  V30 42 1 3 39
M  V30 43 1 4 40
M  V30 44 1 4 41
M  V30 45 1 4 42
M  V30 46 1 6 43
M  V30 47 1 6 44
M  V30 48 1 7 45
M  V30 49 1 8 46
M  V30 50 1 8 47
M  V30 51 1 9 48
M  V30 52 1 9 49
M  V30 53 1 14 50
M  V30 54 1 17 51
M  V30 55 1 18 52
M  V30 56 1 20 53
M  V30 57 1 21 54
M  V30 58 1 24 55
M  V30 59 1 27 56
M  V30 60 1 27 57
M  V30 61 1 29 58
M  V30 62 1 29 59
M  V30 63 1 30 60
M  V30 64 1 30 61
M  V30 65 1 33 62
M  V30 END BOND
M  V30 END CTAB
M  END
>  <Dataset>  (749) 
ChEMBL_Kinases

>  <Ligand_Instance>  (749) 
nan

>  <PDB_ID>  (749) 
nan

>  <Standardized_SMILES>  (749) 
CC(C)(C)N(CC1CCN(C(=O)c2cc(-c3ccncc3)n3ncnc(N)c23)CC1)C(=O)O

>  <Name>  (749) 
nan

>  <Pocket>  (749) 
nan

>  <ATP_Site>  (749) 
nan

>  <Peripheral>  (749) 
nan

>  <Num_H_Atoms_ProtBoundConf>  (749) 
nan

>  <Num_Resolved_Atoms>  (749) 
nan

>  <Num_Not_Resolved_Atoms>  (749) 
nan

$$$$
CHEMBL4284572
     RDKit          3D

  0  0  0  0  0  0  0  0  0  0999 V3000
M  V30 BEGIN CTAB
M  V30 COUNTS 62 66 0 0 0
M  V30 BEGIN ATOM
M  V30 1 N 2.766813 -1.266329 6.146357 0
M  V30 2 C 2.109321 -0.038482 5.690297 0
M  V30 3 C 1.220033 -0.383130 4.508979 0
M  V30 4 N 1.965471 -0.939611 3.418784 0
M  V30 5 C 2.976274 -0.439750 2.556286 0
M  V30 6 N 4.281701 -0.223622 2.788513 0
M  V30 7 C 5.122483 0.247903 1.852151 0
M  V30 8 C 4.634778 0.530922 0.572014 0
M  V30 9 C 3.300008 0.317491 0.309160 0
M  V30 10 C 2.719857 0.581349 -1.003732 0
M  V30 11 N 3.232937 1.043297 -2.146406 0
M  V30 12 N 2.277716 1.107197 -3.087157 0
M  V30 13 C 1.077857 0.680818 -2.586616 0
M  V30 14 N -0.160563 0.553859 -3.101635 0
M  V30 15 C -1.153706 0.092570 -2.315617 0
M  V30 16 N -2.498959 -0.061293 -2.808476 0
M  V30 17 C -3.525796 -0.534605 -1.949705 0
M  V30 18 C -3.381786 -1.906205 -1.378486 0
M  V30 19 N -3.354649 -2.987289 -2.280209 0
M  V30 20 C -3.247344 -4.282561 -1.597603 0
M  V30 21 C -3.805151 -5.290691 -2.605428 0
M  V30 22 O -3.107314 -5.251836 -3.795010 0
M  V30 23 C -3.013136 -4.011137 -4.370561 0
M  V30 24 C -2.421661 -3.018730 -3.338287 0
M  V30 25 N -0.926122 -0.241965 -1.029324 0
M  V30 26 C 0.314630 -0.103418 -0.553212 0
M  V30 27 C 1.388238 0.358527 -1.277750 0
M  V30 28 N 2.606458 -0.147193 1.333313 0
M  V30 29 C 0.384234 0.778313 4.180275 0
M  V30 30 C -0.530687 0.855437 3.158089 0
M  V30 31 C -1.320560 1.913978 2.803943 0
M  V30 32 C -1.149421 3.038003 3.601004 0
M  V30 33 C -0.268289 3.094723 4.654517 0
M  V30 34 C 0.476707 1.963793 4.918859 0
M  V30 35 H 2.318296 -2.083990 5.692193 0
M  V30 36 H 3.791497 -1.227206 6.098985 0
M  V30 37 H 2.793015 0.779159 5.484077 0
M  V30 38 H 1.440042 0.250204 6.549482 0
M  V30 39 H 0.530991 -1.170229 4.886141 0
M  V30 40 H 1.812744 -1.940436 3.093210 0
M  V30 41 H 6.160706 0.400285 2.108356 0
M  V30 42 H 5.297762 0.908486 -0.190483 0
M  V30 43 H 2.452168 1.442555 -4.063122 0
M  V30 44 H -2.673660 0.200448 -3.822199 0
M  V30 45 H -3.682212 0.195078 -1.115730 0
M  V30 46 H -4.489431 -0.545199 -2.538883 0
M  V30 47 H -4.288209 -2.040661 -0.701812 0
M  V30 48 H -2.530577 -1.911418 -0.645025 0
M  V30 49 H -2.189022 -4.570012 -1.425776 0
M  V30 50 H -3.838421 -4.347876 -0.684305 0
M  V30 51 H -3.771358 -6.308374 -2.214508 0
M  V30 52 H -4.889408 -5.044873 -2.741793 0
M  V30 53 H -2.397960 -4.070800 -5.267934 0
M  V30 54 H -4.029746 -3.576167 -4.574013 0
M  V30 55 H -2.161936 -2.104050 -3.849248 0
M  V30 56 H -1.434908 -3.491840 -3.042911 0
M  V30 57 H 0.421206 -0.397394 0.478309 0
M  V30 58 H -0.630320 -0.065581 2.564862 0
M  V30 59 H -2.003069 1.863049 1.986971 0
M  V30 60 H -1.764556 3.917805 3.355445 0
M  V30 61 H -0.181888 4.001001 5.236825 0
M  V30 62 H 1.146702 2.085468 5.759265 0
M  V30 END ATOM
M  V30 BEGIN BOND
M  V30 1 1 1 2
M  V30 2 1 2 3
M  V30 3 1 3 4
M  V30 4 1 4 5
M  V30 5 2 5 6
M  V30 6 1 6 7
M  V30 7 2 7 8
M  V30 8 1 8 9
M  V30 9 1 9 10
M  V30 10 2 10 11
M  V30 11 1 11 12
M  V30 12 1 12 13
M  V30 13 2 13 14
M  V30 14 1 14 15
M  V30 15 1 15 16
M  V30 16 1 16 17
M  V30 17 1 17 18
M  V30 18 1 18 19
M  V30 19 1 19 20
M  V30 20 1 20 21
M  V30 21 1 21 22
M  V30 22 1 22 23
M  V30 23 1 23 24
M  V30 24 2 15 25
M  V30 25 1 25 26
M  V30 26 2 26 27
M  V30 27 2 9 28
M  V30 28 1 3 29
M  V30 29 2 29 30
M  V30 30 1 30 31
M  V30 31 2 31 32
M  V30 32 1 32 33
M  V30 33 2 33 34
M  V30 34 1 28 5
M  V30 35 1 34 29
M  V30 36 1 27 10
M  V30 37 1 27 13
M  V30 38 1 24 19
M  V30 39 1 1 35
M  V30 40 1 1 36
M  V30 41 1 2 37
M  V30 42 1 2 38
M  V30 43 1 3 39
M  V30 44 1 4 40
M  V30 45 1 7 41
M  V30 46 1 8 42
M  V30 47 1 12 43
M  V30 48 1 16 44
M  V30 49 1 17 45
M  V30 50 1 17 46
M  V30 51 1 18 47
M  V30 52 1 18 48
M  V30 53 1 20 49
M  V30 54 1 20 50
M  V30 55 1 21 51
M  V30 56 1 21 52
M  V30 57 1 23 53
M  V30 58 1 23 54
M  V30 59 1 24 55
M  V30 60 1 24 56
M  V30 61 1 26 57
M  V30 62 1 30 58
M  V30 63 1 31 59
M  V30 64 1 32 60
M  V30 65 1 33 61
M  V30 66 1 34 62
M  V30 END BOND
M  V30 END CTAB
M  END
>  <Dataset>  (750) 
ChEMBL_Kinases

>  <Ligand_Instance>  (750) 
nan

>  <PDB_ID>  (750) 
nan

>  <Standardized_SMILES>  (750) 
NCC(Nc1nccc(-c2n[nH]c3nc(NCCN4CCOCC4)ncc23)n1)c1ccccc1

>  <Name>  (750) 
nan

>  <Pocket>  (750) 
nan

>  <ATP_Site>  (750) 
nan

>  <Peripheral>  (750) 
nan

>  <Num_H_Atoms_ProtBoundConf>  (750) 
nan

>  <Num_Resolved_Atoms>  (750) 
nan

>  <Num_Not_Resolved_Atoms>  (750) 
nan

$$$$
CHEMBL3681212
     RDKit          3D

  0  0  0  0  0  0  0  0  0  0999 V3000
M  V30 BEGIN CTAB
M  V30 COUNTS 47 50 0 0 0
M  V30 BEGIN ATOM
M  V30 1 C 1.558130 -5.981831 4.944898 0
M  V30 2 O 1.427752 -4.837407 4.129413 0
M  V30 3 C 0.351907 -4.753625 3.254731 0
M  V30 4 C 0.226285 -3.630666 2.456299 0
M  V30 5 C -0.806381 -3.422084 1.536556 0
M  V30 6 C -0.814041 -2.187217 0.758270 0
M  V30 7 C 0.343804 -1.717093 0.168690 0
M  V30 8 C 0.039149 -0.554213 -0.489072 0
M  V30 9 C 0.863571 0.375324 -1.284658 0
M  V30 10 O 1.165104 0.457442 -2.500196 0
M  V30 11 N 1.501108 1.461238 -0.583710 0
M  V30 12 C 2.318239 2.392191 -1.337742 0
M  V30 13 C 2.721011 3.526764 -0.427239 0
M  V30 14 C 1.509101 4.073698 0.256351 0
M  V30 15 O 0.588543 4.498877 -0.705606 0
M  V30 16 C 0.887598 3.053745 1.149307 0
M  V30 17 C 1.351534 1.653663 0.855329 0
M  V30 18 C -1.311835 -0.345173 -0.279805 0
M  V30 19 C -2.214858 0.625403 -0.664878 0
M  V30 20 N -1.800309 1.713621 -1.457190 0
M  V30 21 N -3.516059 0.598970 -0.319408 0
M  V30 22 C -3.952612 -0.424469 0.437529 0
M  V30 23 N -3.096785 -1.391908 0.832539 0
M  V30 24 N -1.823754 -1.333029 0.473689 0
M  V30 25 C -1.739805 -4.437406 1.458226 0
M  V30 26 C -1.620557 -5.559597 2.251307 0
M  V30 27 N -0.599771 -5.724535 3.134670 0
M  V30 28 H 2.619528 -6.352747 4.902328 0
M  V30 29 H 0.891905 -6.813778 4.651915 0
M  V30 30 H 1.361873 -5.746686 6.019078 0
M  V30 31 H 0.973462 -2.855557 2.542541 0
M  V30 32 H 1.335418 -2.134802 0.182060 0
M  V30 33 H 3.246145 1.848084 -1.616078 0
M  V30 34 H 1.811399 2.800356 -2.230851 0
M  V30 35 H 3.466351 3.169964 0.314657 0
M  V30 36 H 3.230596 4.337080 -0.995818 0
M  V30 37 H 1.837179 4.948852 0.874504 0
M  V30 38 H -0.286429 4.695728 -0.286722 0
M  V30 39 H 1.154564 3.271686 2.217947 0
M  V30 40 H -0.230653 3.078903 1.086169 0
M  V30 41 H 2.305896 1.503319 1.398583 0
M  V30 42 H 0.620093 0.935127 1.264629 0
M  V30 43 H -2.144070 1.746798 -2.462729 0
M  V30 44 H -1.239364 2.571971 -1.437892 0
M  V30 45 H -5.017378 -0.436687 0.714291 0
M  V30 46 H -2.544595 -4.291344 0.751762 0
M  V30 47 H -2.357901 -6.351216 2.182923 0
M  V30 END ATOM
M  V30 BEGIN BOND
M  V30 1 1 1 2
M  V30 2 1 2 3
M  V30 3 2 3 4
M  V30 4 1 4 5
M  V30 5 1 5 6
M  V30 6 2 6 7
M  V30 7 1 7 8
M  V30 8 1 8 9
M  V30 9 2 9 10
M  V30 10 1 9 11
M  V30 11 1 11 12
M  V30 12 1 12 13
M  V30 13 1 13 14
M  V30 14 1 14 15
M  V30 15 1 14 16
M  V30 16 1 16 17
M  V30 17 2 8 18
M  V30 18 1 18 19
M  V30 19 1 19 20
M  V30 20 2 19 21
M  V30 21 1 21 22
M  V30 22 2 22 23
M  V30 23 1 23 24
M  V30 24 2 5 25
M  V30 25 1 25 26
M  V30 26 2 26 27
M  V30 27 1 27 3
M  V30 28 1 24 6
M  V30 29 1 17 11
M  V30 30 1 24 18
M  V30 31 1 1 28
M  V30 32 1 1 29
M  V30 33 1 1 30
M  V30 34 1 4 31
M  V30 35 1 7 32
M  V30 36 1 12 33
M  V30 37 1 12 34
M  V30 38 1 13 35
M  V30 39 1 13 36
M  V30 40 1 14 37
M  V30 41 1 15 38
M  V30 42 1 16 39
M  V30 43 1 16 40
M  V30 44 1 17 41
M  V30 45 1 17 42
M  V30 46 1 20 43
M  V30 47 1 20 44
M  V30 48 1 22 45
M  V30 49 1 25 46
M  V30 50 1 26 47
M  V30 END BOND
M  V30 END CTAB
M  END
>  <Dataset>  (751) 
ChEMBL_Kinases

>  <Ligand_Instance>  (751) 
nan

>  <PDB_ID>  (751) 
nan

>  <Standardized_SMILES>  (751) 
COc1cc(-c2cc(C(=O)N3CCC(O)CC3)c3c(N)ncnn23)ccn1

>  <Name>  (751) 
nan

>  <Pocket>  (751) 
nan

>  <ATP_Site>  (751) 
nan

>  <Peripheral>  (751) 
nan

>  <Num_H_Atoms_ProtBoundConf>  (751) 
nan

>  <Num_Resolved_Atoms>  (751) 
nan

>  <Num_Not_Resolved_Atoms>  (751) 
nan

$$$$
CHEMBL4284087
     RDKit          3D

  0  0  0  0  0  0  0  0  0  0999 V3000
M  V30 BEGIN CTAB
M  V30 COUNTS 48 49 0 0 0
M  V30 BEGIN ATOM
M  V30 1 C 3.328556 -3.238899 -3.605197 0
M  V30 2 C 2.153944 -2.504564 -3.045072 0
M  V30 3 S 1.995983 -0.844073 -3.645674 0
M  V30 4 O 1.814554 -0.926524 -5.132974 0
M  V30 5 O 3.277450 -0.124329 -3.372658 0
M  V30 6 N 0.621473 -0.057254 -2.958825 0
M  V30 7 C 0.490733 0.163131 -1.539097 0
M  V30 8 C 1.612555 0.644600 -0.904354 0
M  V30 9 C 1.474441 0.850871 0.449488 0
M  V30 10 C 2.587006 1.361078 1.255536 0
M  V30 11 C 3.397812 0.171578 1.776559 0
M  V30 12 C 2.168578 2.136916 2.479560 0
M  V30 13 C 0.254491 0.567371 1.053816 0
M  V30 14 S -0.254184 0.722593 2.780399 0
M  V30 15 C -1.927580 0.128455 2.502431 0
M  V30 16 N -2.784068 0.057644 3.618283 0
M  V30 17 C -2.933497 -1.069224 4.473039 0
M  V30 18 O -2.305205 -2.166792 4.335317 0
M  V30 19 N -3.837044 -1.006721 5.568902 0
M  V30 20 C -4.034828 -2.120752 6.476712 0
M  V30 21 C -1.956625 -0.123536 1.194244 0
M  V30 22 C -3.241796 -0.627273 0.724722 0
M  V30 23 N -3.603755 -0.990068 -0.599808 0
M  V30 24 O -4.220466 -0.803688 1.485326 0
M  V30 25 C -0.859444 0.084939 0.399972 0
M  V30 26 C -0.722881 -0.122463 -0.957203 0
M  V30 27 H 3.072394 -3.890159 -4.473634 0
M  V30 28 H 4.144458 -2.557307 -3.972005 0
M  V30 29 H 3.812517 -3.908135 -2.849326 0
M  V30 30 H 2.265673 -2.479161 -1.931404 0
M  V30 31 H 1.249481 -3.112096 -3.263919 0
M  V30 32 H -0.180210 0.294607 -3.554312 0
M  V30 33 H 2.551196 0.859779 -1.387261 0
M  V30 34 H 3.230619 1.972684 0.609920 0
M  V30 35 H 4.017105 0.525790 2.629997 0
M  V30 36 H 2.702972 -0.574381 2.177791 0
M  V30 37 H 4.067605 -0.228362 1.000897 0
M  V30 38 H 3.018503 2.845979 2.705087 0
M  V30 39 H 2.103245 1.497154 3.372369 0
M  V30 40 H 1.294912 2.759527 2.268037 0
M  V30 41 H -3.327817 0.936444 3.779554 0
M  V30 42 H -4.374894 -0.121120 5.718723 0
M  V30 43 H -4.925441 -2.689538 6.129992 0
M  V30 44 H -4.206942 -1.769034 7.515147 0
M  V30 45 H -3.145878 -2.776310 6.492324 0
M  V30 46 H -3.574345 -1.832983 -1.220477 0
M  V30 47 H -4.033128 -0.587048 -1.475291 0
M  V30 48 H -1.514203 -0.496557 -1.590926 0
M  V30 END ATOM
M  V30 BEGIN BOND
M  V30 1 1 1 2
M  V30 2 1 2 3
M  V30 3 2 3 4
M  V30 4 2 3 5
M  V30 5 1 3 6
M  V30 6 1 6 7
M  V30 7 2 7 8
M  V30 8 1 8 9
M  V30 9 1 9 10
M  V30 10 1 10 11
M  V30 11 1 10 12
M  V30 12 2 9 13
M  V30 13 1 13 14
M  V30 14 1 14 15
M  V30 15 1 15 16
M  V30 16 1 16 17
M  V30 17 2 17 18
M  V30 18 1 17 19
M  V30 19 1 19 20
M  V30 20 2 15 21
M  V30 21 1 21 22
M  V30 22 1 22 23
M  V30 23 2 22 24
M  V30 24 1 21 25
M  V30 25 2 25 26
M  V30 26 1 26 7
M  V30 27 1 25 13
M  V30 28 1 1 27
M  V30 29 1 1 28
M  V30 30 1 1 29
M  V30 31 1 2 30
M  V30 32 1 2 31
M  V30 33 1 6 32
M  V30 34 1 8 33
M  V30 35 1 10 34
M  V30 36 1 11 35
M  V30 37 1 11 36
M  V30 38 1 11 37
M  V30 39 1 12 38
M  V30 40 1 12 39
M  V30 41 1 12 40
M  V30 42 1 16 41
M  V30 43 1 19 42
M  V30 44 1 20 43
M  V30 45 1 20 44
M  V30 46 1 20 45
M  V30 47 1 23 46
M  V30 48 1 23 47
M  V30 49 1 26 48
M  V30 END BOND
M  V30 END CTAB
M  END
>  <Dataset>  (752) 
ChEMBL_Kinases

>  <Ligand_Instance>  (752) 
nan

>  <PDB_ID>  (752) 
nan

>  <Standardized_SMILES>  (752) 
CCS(=O)(=O)Nc1cc(C(C)C)c2sc(NC(=O)NC)c(C(N)=O)c2c1

>  <Name>  (752) 
nan

>  <Pocket>  (752) 
nan

>  <ATP_Site>  (752) 
nan

>  <Peripheral>  (752) 
nan

>  <Num_H_Atoms_ProtBoundConf>  (752) 
nan

>  <Num_Resolved_Atoms>  (752) 
nan

>  <Num_Not_Resolved_Atoms>  (752) 
nan

$$$$
CHEMBL3681210
     RDKit          3D

  0  0  0  0  0  0  0  0  0  0999 V3000
M  V30 BEGIN CTAB
M  V30 COUNTS 45 48 0 0 0
M  V30 BEGIN ATOM
M  V30 1 C -0.450387 -5.616091 -0.677208 0
M  V30 2 C -1.330562 -4.558525 -0.040905 0
M  V30 3 C -1.297086 -3.247585 -0.776761 0
M  V30 4 C -0.041218 -2.448132 -0.548484 0
M  V30 5 N 0.419784 -2.501602 0.835956 0
M  V30 6 C 0.768484 -1.483161 1.766056 0
M  V30 7 O 1.164899 -1.649382 2.969857 0
M  V30 8 C 0.736311 -0.047295 1.511065 0
M  V30 9 C 1.745950 0.760042 1.017004 0
M  V30 10 C 1.306182 2.084755 0.921696 0
M  V30 11 C 2.069471 3.233554 0.448469 0
M  V30 12 C 2.874394 3.302284 -0.670080 0
M  V30 13 C 3.530791 4.476343 -0.976126 0
M  V30 14 N 3.436317 5.594555 -0.234250 0
M  V30 15 C 2.643705 5.536428 0.872371 0
M  V30 16 C 1.969107 4.380795 1.214540 0
M  V30 17 N 0.014383 2.083286 1.362771 0
M  V30 18 N -0.803346 3.093811 1.454628 0
M  V30 19 C -2.061021 2.891613 1.921234 0
M  V30 20 N -2.446667 1.640259 2.284611 0
M  V30 21 C -1.591387 0.617019 2.182295 0
M  V30 22 N -1.958562 -0.700917 2.551705 0
M  V30 23 C -0.308210 0.815586 1.707660 0
M  V30 24 C 0.534669 -3.860766 1.329750 0
M  V30 25 C -0.897522 -4.407668 1.393848 0
M  V30 26 H -1.046012 -6.361559 -1.240487 0
M  V30 27 H 0.354074 -5.151405 -1.300935 0
M  V30 28 H 0.092676 -6.200421 0.104741 0
M  V30 29 H -2.380362 -4.919358 -0.050747 0
M  V30 30 H -2.221711 -2.670773 -0.582576 0
M  V30 31 H -1.319671 -3.507667 -1.863124 0
M  V30 32 H -0.239133 -1.398559 -0.840360 0
M  V30 33 H 0.775700 -2.916339 -1.146513 0
M  V30 34 H 2.752853 0.431986 0.734182 0
M  V30 35 H 2.932897 2.391369 -1.247921 0
M  V30 36 H 4.164671 4.498970 -1.874063 0
M  V30 37 H 2.593595 6.469079 1.449935 0
M  V30 38 H 1.383527 4.496281 2.118002 0
M  V30 39 H -2.881181 3.608015 2.068401 0
M  V30 40 H -1.885886 -1.315394 3.396914 0
M  V30 41 H -1.892391 -1.320696 3.384527 0
M  V30 42 H 0.926983 -3.950458 2.340660 0
M  V30 43 H 1.114063 -4.430966 0.572646 0
M  V30 44 H -1.516699 -3.726392 1.989112 0
M  V30 45 H -0.907637 -5.387922 1.886051 0
M  V30 END ATOM
M  V30 BEGIN BOND
M  V30 1 1 1 2
M  V30 2 1 2 3
M  V30 3 1 3 4
M  V30 4 1 4 5
M  V30 5 1 5 6
M  V30 6 2 6 7
M  V30 7 1 6 8
M  V30 8 1 8 9
M  V30 9 2 9 10
M  V30 10 1 10 11
M  V30 11 2 11 12
M  V30 12 1 12 13
M  V30 13 2 13 14
M  V30 14 1 14 15
M  V30 15 2 15 16
M  V30 16 1 10 17
M  V30 17 1 17 18
M  V30 18 2 18 19
M  V30 19 1 19 20
M  V30 20 2 20 21
M  V30 21 1 21 22
M  V30 22 1 21 23
M  V30 23 1 5 24
M  V30 24 1 24 25
M  V30 25 1 25 2
M  V30 26 2 23 8
M  V30 27 1 16 11
M  V30 28 1 23 17
M  V30 29 1 1 26
M  V30 30 1 1 27
M  V30 31 1 1 28
M  V30 32 1 2 29
M  V30 33 1 3 30
M  V30 34 1 3 31
M  V30 35 1 4 32
M  V30 36 1 4 33
M  V30 37 1 9 34
M  V30 38 1 12 35
M  V30 39 1 13 36
M  V30 40 1 15 37
M  V30 41 1 16 38
M  V30 42 1 19 39
M  V30 43 1 22 40
M  V30 44 1 22 41
M  V30 45 1 24 42
M  V30 46 1 24 43
M  V30 47 1 25 44
M  V30 48 1 25 45
M  V30 END BOND
M  V30 END CTAB
M  END
>  <Dataset>  (753) 
ChEMBL_Kinases

>  <Ligand_Instance>  (753) 
nan

>  <PDB_ID>  (753) 
nan

>  <Standardized_SMILES>  (753) 
CC1CCN(C(=O)c2cc(-c3ccncc3)n3ncnc(N)c23)CC1

>  <Name>  (753) 
nan

>  <Pocket>  (753) 
nan

>  <ATP_Site>  (753) 
nan

>  <Peripheral>  (753) 
nan

>  <Num_H_Atoms_ProtBoundConf>  (753) 
nan

>  <Num_Resolved_Atoms>  (753) 
nan

>  <Num_Not_Resolved_Atoms>  (753) 
nan

$$$$
CHEMBL3681209
     RDKit          3D

  0  0  0  0  0  0  0  0  0  0999 V3000
M  V30 BEGIN CTAB
M  V30 COUNTS 65 68 0 0 0
M  V30 BEGIN ATOM
M  V30 1 C 4.767316 -4.376671 7.163797 0
M  V30 2 O 3.944467 -3.458341 6.618196 0
M  V30 3 C 3.144435 -2.512970 7.195875 0
M  V30 4 C 2.734016 -2.303491 5.817429 0
M  V30 5 C 1.771342 -1.362771 5.366635 0
M  V30 6 C 1.145531 -1.176754 4.023020 0
M  V30 7 C 0.932722 -0.119257 3.202438 0
M  V30 8 C 0.235770 -0.720364 2.202564 0
M  V30 9 C -0.366147 -0.137439 1.012191 0
M  V30 10 O -1.278917 0.207626 0.341561 0
M  V30 11 N 0.740437 0.255934 0.096713 0
M  V30 12 C 0.402263 0.824849 -1.173873 0 CFG=1
M  V30 13 C 0.365397 2.363036 -1.058066 0
M  V30 14 C -0.342377 2.925389 -2.280436 0
M  V30 15 C -0.401198 1.947519 -3.442788 0 CFG=2
M  V30 16 O -1.511972 1.171820 -3.433576 0
M  V30 17 C -2.463268 1.314398 -4.401660 0
M  V30 18 C -3.552607 0.299305 -4.051655 0
M  V30 19 C -2.995921 -1.101359 -4.065124 0
M  V30 20 C -4.005140 0.537047 -2.611562 0
M  V30 21 C -4.665520 0.425697 -5.016774 0
M  V30 22 C 0.837314 1.132584 -3.567680 0
M  V30 23 C 1.379215 0.566085 -2.274067 0
M  V30 24 C 0.037102 -2.059685 2.397700 0
M  V30 25 C -0.596114 -3.108571 1.718537 0
M  V30 26 N -1.233892 -2.829667 0.487645 0
M  V30 27 N -0.620231 -4.346969 2.199727 0
M  V30 28 C -0.029147 -4.637832 3.372872 0
M  V30 29 N 0.556997 -3.620340 3.983820 0
M  V30 30 N 0.629261 -2.383878 3.587084 0
M  V30 31 C 1.107402 -0.508622 6.257296 0
M  V30 32 C 1.513548 -0.729742 7.521010 0
M  V30 33 N 2.395496 -1.628197 7.735294 0
M  V30 34 H 5.791274 -4.424804 6.652370 0
M  V30 35 H 5.015520 -4.187536 8.240223 0
M  V30 36 H 4.315757 -5.418616 7.082316 0
M  V30 37 H 2.940073 -2.690151 4.770844 0
M  V30 38 H 1.268945 0.869474 3.401366 0
M  V30 39 H 1.805113 0.183765 0.223760 0
M  V30 40 H -0.650483 0.594779 -1.508212 0
M  V30 41 H -0.059481 2.667263 -0.104086 0
M  V30 42 H 1.424781 2.683955 -1.105251 0
M  V30 43 H -1.366078 3.227545 -2.011067 0
M  V30 44 H 0.192015 3.827889 -2.635903 0
M  V30 45 H -0.471211 2.611544 -4.356902 0
M  V30 46 H -2.924869 2.302943 -4.285842 0
M  V30 47 H -2.079992 1.152700 -5.415492 0
M  V30 48 H -3.785351 -1.867241 -4.216430 0
M  V30 49 H -2.526575 -1.304607 -3.077060 0
M  V30 50 H -2.178270 -1.217736 -4.833311 0
M  V30 51 H -4.499930 -0.404350 -2.221194 0
M  V30 52 H -4.724747 1.359289 -2.600206 0
M  V30 53 H -3.176224 0.788743 -1.939701 0
M  V30 54 H -5.386778 -0.418051 -4.817380 0
M  V30 55 H -5.173093 1.428031 -4.944946 0
M  V30 56 H -4.305167 0.258497 -6.047042 0
M  V30 57 H 1.656451 1.735856 -4.064356 0
M  V30 58 H 0.606254 0.307042 -4.287994 0
M  V30 59 H 1.620724 -0.483144 -2.423354 0
M  V30 60 H 2.325447 1.093024 -2.021108 0
M  V30 61 H -0.394186 -2.935540 -0.106391 0
M  V30 62 H -2.220134 -2.663016 0.806495 0
M  V30 63 H 0.091031 -5.537205 3.951062 0
M  V30 64 H 0.385850 0.250941 6.119405 0
M  V30 65 H 1.224688 -0.247460 8.456034 0
M  V30 END ATOM
M  V30 BEGIN BOND
M  V30 1 1 1 2
M  V30 2 1 2 3
M  V30 3 2 3 4
M  V30 4 1 4 5
M  V30 5 1 5 6
M  V30 6 2 6 7
M  V30 7 1 7 8
M  V30 8 1 8 9
M  V30 9 2 9 10
M  V30 10 1 9 11
M  V30 11 1 11 12
M  V30 12 1 12 13
M  V30 13 1 13 14
M  V30 14 1 14 15
M  V30 15 1 15 16
M  V30 16 1 16 17
M  V30 17 1 17 18
M  V30 18 1 18 19
M  V30 19 1 18 20
M  V30 20 1 18 21
M  V30 21 1 15 22
M  V30 22 1 22 23
M  V30 23 2 8 24
M  V30 24 1 24 25
M  V30 25 1 25 26
M  V30 26 2 25 27
M  V30 27 1 27 28
M  V30 28 2 28 29
M  V30 29 1 29 30
M  V30 30 2 5 31
M  V30 31 1 31 32
M  V30 32 2 32 33
M  V30 33 1 33 3
M  V30 34 1 30 6
M  V30 35 1 23 12
M  V30 36 1 30 24
M  V30 37 1 1 34
M  V30 38 1 1 35
M  V30 39 1 1 36
M  V30 40 1 4 37
M  V30 41 1 7 38
M  V30 42 1 11 39
M  V30 43 1 12 40 CFG=3
M  V30 44 1 13 41
M  V30 45 1 13 42
M  V30 46 1 14 43
M  V30 47 1 14 44
M  V30 48 1 15 45 CFG=3
M  V30 49 1 17 46
M  V30 50 1 17 47
M  V30 51 1 19 48
M  V30 52 1 19 49
M  V30 53 1 19 50
M  V30 54 1 20 51
M  V30 55 1 20 52
M  V30 56 1 20 53
M  V30 57 1 21 54
M  V30 58 1 21 55
M  V30 59 1 21 56
M  V30 60 1 22 57
M  V30 61 1 22 58
M  V30 62 1 23 59
M  V30 63 1 23 60
M  V30 64 1 26 61
M  V30 65 1 26 62
M  V30 66 1 28 63
M  V30 67 1 31 64
M  V30 68 1 32 65
M  V30 END BOND
M  V30 END CTAB
M  END
>  <Dataset>  (754) 
ChEMBL_Kinases

>  <Ligand_Instance>  (754) 
nan

>  <PDB_ID>  (754) 
nan

>  <Standardized_SMILES>  (754) 
COc1cc(-c2cc(C(=O)N[C@H]3CC[C@H](OCC(C)(C)C)CC3)c3c(N)ncnn23)ccn1

>  <Name>  (754) 
nan

>  <Pocket>  (754) 
nan

>  <ATP_Site>  (754) 
nan

>  <Peripheral>  (754) 
nan

>  <Num_H_Atoms_ProtBoundConf>  (754) 
nan

>  <Num_Resolved_Atoms>  (754) 
nan

>  <Num_Not_Resolved_Atoms>  (754) 
nan

$$$$
CHEMBL4284443
     RDKit          3D

  0  0  0  0  0  0  0  0  0  0999 V3000
M  V30 BEGIN CTAB
M  V30 COUNTS 36 38 0 0 0
M  V30 BEGIN ATOM
M  V30 1 C -1.299496 -5.337885 0.859907 0
M  V30 2 C -0.411276 -4.639999 1.867791 0
M  V30 3 C -1.233125 -4.296309 3.081844 0
M  V30 4 C 0.141131 -3.421957 1.271353 0
M  V30 5 C -0.445329 -2.162258 1.319704 0
M  V30 6 C 0.150813 -1.084639 0.730359 0
M  V30 7 C -0.413956 0.186169 0.763709 0
M  V30 8 O -1.514717 0.349262 1.358741 0
M  V30 9 C 0.257075 1.240892 0.136584 0
M  V30 10 C -0.322714 2.505088 0.180093 0
M  V30 11 C 0.389440 3.500780 -0.457116 0
M  V30 12 C -0.126823 4.842861 -0.467816 0
M  V30 13 O -1.221992 5.132650 0.094926 0
M  V30 14 O 0.540200 5.889639 -1.090599 0
M  V30 15 C 1.574166 3.238261 -1.077600 0
M  V30 16 N 2.368515 4.204939 -1.755381 0
M  V30 17 N 2.139386 1.997624 -1.118132 0
M  V30 18 C 1.465521 0.986427 -0.499373 0
M  V30 19 O 1.982177 -0.228117 -0.517968 0
M  V30 20 C 1.354332 -1.217097 0.069280 0
M  V30 21 C 1.965017 -2.448166 0.000452 0
M  V30 22 C 1.352179 -3.529366 0.600207 0
M  V30 23 F 1.975521 -4.735583 0.518405 0
M  V30 24 H -1.513579 -6.379010 1.129527 0
M  V30 25 H -2.238328 -4.770676 0.784198 0
M  V30 26 H -0.784967 -5.252278 -0.132681 0
M  V30 27 H 0.432685 -5.320458 2.165586 0
M  V30 28 H -0.697595 -3.614304 3.769796 0
M  V30 29 H -2.138942 -3.768626 2.711151 0
M  V30 30 H -1.569657 -5.199298 3.626525 0
M  V30 31 H -1.376705 -2.074083 1.834613 0
M  V30 32 H -1.251130 2.640766 0.682399 0
M  V30 33 H 0.399606 6.817421 -0.707230 0
M  V30 34 H 2.685395 5.198322 -1.711111 0
M  V30 35 H 2.685277 5.198404 -1.710893 0
M  V30 36 H 2.915562 -2.576267 -0.516265 0
M  V30 END ATOM
M  V30 BEGIN BOND
M  V30 1 1 1 2
M  V30 2 1 2 3
M  V30 3 1 2 4
M  V30 4 2 4 5
M  V30 5 1 5 6
M  V30 6 1 6 7
M  V30 7 2 7 8
M  V30 8 1 7 9
M  V30 9 2 9 10
M  V30 10 1 10 11
M  V30 11 1 11 12
M  V30 12 2 12 13
M  V30 13 1 12 14
M  V30 14 2 11 15
M  V30 15 1 15 16
M  V30 16 1 15 17
M  V30 17 2 17 18
M  V30 18 1 18 19
M  V30 19 1 19 20
M  V30 20 1 20 21
M  V30 21 2 21 22
M  V30 22 1 22 23
M  V30 23 1 22 4
M  V30 24 2 20 6
M  V30 25 1 18 9
M  V30 26 1 1 24
M  V30 27 1 1 25
M  V30 28 1 1 26
M  V30 29 1 2 27
M  V30 30 1 3 28
M  V30 31 1 3 29
M  V30 32 1 3 30
M  V30 33 1 5 31
M  V30 34 1 10 32
M  V30 35 1 14 33
M  V30 36 1 16 34
M  V30 37 1 16 35
M  V30 38 1 21 36
M  V30 END BOND
M  V30 END CTAB
M  END
>  <Dataset>  (755) 
ChEMBL_Kinases

>  <Ligand_Instance>  (755) 
nan

>  <PDB_ID>  (755) 
nan

>  <Standardized_SMILES>  (755) 
CC(C)c1cc2c(=O)c3cc(C(=O)O)c(N)nc3oc2cc1F

>  <Name>  (755) 
nan

>  <Pocket>  (755) 
nan

>  <ATP_Site>  (755) 
nan

>  <Peripheral>  (755) 
nan

>  <Num_H_Atoms_ProtBoundConf>  (755) 
nan

>  <Num_Resolved_Atoms>  (755) 
nan

>  <Num_Not_Resolved_Atoms>  (755) 
nan

$$$$
CHEMBL3681208
     RDKit          3D

  0  0  0  0  0  0  0  0  0  0999 V3000
M  V30 BEGIN CTAB
M  V30 COUNTS 77 81 0 0 0
M  V30 BEGIN ATOM
M  V30 1 C 5.337526 -3.462310 4.374679 0
M  V30 2 O 4.772177 -2.550933 3.490223 0
M  V30 3 C 5.262468 -1.286415 3.182994 0
M  V30 4 C 4.508307 -0.551935 2.253611 0
M  V30 5 C 5.030461 0.732892 1.967540 0
M  V30 6 C 4.147313 1.397724 0.968547 0
M  V30 7 C 2.764476 1.286678 0.923718 0
M  V30 8 C 2.283841 2.062773 -0.154656 0
M  V30 9 C 0.847207 1.886710 -0.235848 0
M  V30 10 O 0.045527 1.984769 0.786103 0
M  V30 11 N 0.104475 1.575245 -1.373192 0
M  V30 12 C -1.253082 1.296423 -1.665397 0 CFG=1
M  V30 13 C -2.274780 2.346925 -1.265129 0
M  V30 14 C -3.482329 1.553416 -0.762622 0
M  V30 15 C -3.741377 0.443983 -1.742667 0 CFG=2
M  V30 16 N -3.532824 -0.882992 -1.287533 0
M  V30 17 C -4.419383 -1.988453 -1.082438 0
M  V30 18 O -5.673251 -1.874245 -1.319172 0
M  V30 19 C -4.307410 -3.395701 -0.631222 0
M  V30 20 C -5.740983 -3.978197 -0.891618 0
M  V30 21 C -3.415517 -4.134936 -1.586917 0
M  V30 22 C -3.997109 -3.590099 0.810876 0
M  V30 23 N -2.799037 -3.014116 1.323937 0
M  V30 24 C -2.733453 -3.367340 2.757340 0
M  V30 25 C -1.313932 -3.190150 3.162028 0
M  V30 26 C -0.534402 -3.117372 1.903701 0
M  V30 27 C -1.564958 -3.468334 0.827893 0
M  V30 28 C -3.095596 0.695366 -3.105524 0
M  V30 29 C -1.600669 0.778980 -2.998968 0
M  V30 30 C 3.410827 2.612271 -0.706159 0
M  V30 31 C 3.356532 3.435362 -1.789071 0
M  V30 32 N 2.172008 3.847981 -2.451909 0
M  V30 33 N 4.547935 3.882542 -2.219102 0
M  V30 34 C 5.683609 3.507556 -1.581670 0
M  V30 35 N 5.641262 2.679758 -0.502430 0
M  V30 36 N 4.518048 2.209725 -0.032943 0
M  V30 37 C 6.158682 1.208839 2.540380 0
M  V30 38 C 6.864220 0.421417 3.457442 0
M  V30 39 N 6.397631 -0.804065 3.753938 0
M  V30 40 H 4.904331 -4.463126 4.346942 0
M  V30 41 H 6.443887 -3.467227 4.153380 0
M  V30 42 H 5.254909 -3.038844 5.409291 0
M  V30 43 H 3.598428 -0.988178 1.825181 0
M  V30 44 H 2.262477 0.662274 1.685954 0
M  V30 45 H 0.677169 1.507122 -2.275692 0
M  V30 46 H -1.498439 0.476299 -0.888176 0
M  V30 47 H -2.496720 3.078108 -2.029784 0
M  V30 48 H -1.859437 2.880312 -0.381250 0
M  V30 49 H -4.321004 2.259016 -0.666566 0
M  V30 50 H -3.258569 1.159762 0.259659 0
M  V30 51 H -4.855516 0.509505 -1.973688 0
M  V30 52 H -2.666090 -1.408295 -0.983927 0
M  V30 53 H -5.686215 -5.067337 -0.809228 0
M  V30 54 H -6.002832 -3.664023 -1.901280 0
M  V30 55 H -6.412608 -3.511477 -0.136157 0
M  V30 56 H -2.966531 -5.064046 -1.173245 0
M  V30 57 H -4.028753 -4.384216 -2.494088 0
M  V30 58 H -2.611779 -3.417864 -1.904279 0
M  V30 59 H -3.917685 -4.712707 0.992957 0
M  V30 60 H -4.883728 -3.304128 1.443913 0
M  V30 61 H -2.994537 -4.449655 2.796645 0
M  V30 62 H -3.445724 -2.725954 3.275837 0
M  V30 63 H -1.145680 -2.275130 3.792908 0
M  V30 64 H -0.947891 -4.033116 3.820934 0
M  V30 65 H -0.104542 -2.114820 1.691868 0
M  V30 66 H 0.272086 -3.883376 1.957123 0
M  V30 67 H -1.516249 -4.580099 0.752202 0
M  V30 68 H -1.194812 -2.998637 -0.108443 0
M  V30 69 H -3.460796 -0.092260 -3.784230 0
M  V30 70 H -3.489700 1.681989 -3.432186 0
M  V30 71 H -1.201065 -0.232634 -3.246794 0
M  V30 72 H -1.278091 1.456539 -3.837700 0
M  V30 73 H 1.683961 3.381709 -3.242484 0
M  V30 74 H 1.837751 4.758028 -2.041315 0
M  V30 75 H 6.656842 3.856362 -1.906213 0
M  V30 76 H 6.387116 2.204811 2.190651 0
M  V30 77 H 7.753330 0.902584 3.828192 0
M  V30 END ATOM
M  V30 BEGIN BOND
M  V30 1 1 1 2
M  V30 2 1 2 3
M  V30 3 2 3 4
M  V30 4 1 4 5
M  V30 5 1 5 6
M  V30 6 2 6 7
M  V30 7 1 7 8
M  V30 8 1 8 9
M  V30 9 2 9 10
M  V30 10 1 9 11
M  V30 11 1 11 12
M  V30 12 1 12 13
M  V30 13 1 13 14
M  V30 14 1 14 15
M  V30 15 1 15 16
M  V30 16 1 16 17
M  V30 17 2 17 18
M  V30 18 1 17 19
M  V30 19 1 19 20
M  V30 20 1 19 21
M  V30 21 1 19 22
M  V30 22 1 22 23
M  V30 23 1 23 24
M  V30 24 1 24 25
M  V30 25 1 25 26
M  V30 26 1 26 27
M  V30 27 1 15 28
M  V30 28 1 28 29
M  V30 29 2 8 30
M  V30 30 1 30 31
M  V30 31 1 31 32
M  V30 32 2 31 33
M  V30 33 1 33 34
M  V30 34 2 34 35
M  V30 35 1 35 36
M  V30 36 2 5 37
M  V30 37 1 37 38
M  V30 38 2 38 39
M  V30 39 1 39 3
M  V30 40 1 36 6
M  V30 41 1 29 12
M  V30 42 1 36 30
M  V30 43 1 27 23
M  V30 44 1 1 40
M  V30 45 1 1 41
M  V30 46 1 1 42
M  V30 47 1 4 43
M  V30 48 1 7 44
M  V30 49 1 11 45
M  V30 50 1 12 46 CFG=1
M  V30 51 1 13 47
M  V30 52 1 13 48
M  V30 53 1 14 49
M  V30 54 1 14 50
M  V30 55 1 15 51 CFG=3
M  V30 56 1 16 52
M  V30 57 1 20 53
M  V30 58 1 20 54
M  V30 59 1 20 55
M  V30 60 1 21 56
M  V30 61 1 21 57
M  V30 62 1 21 58
M  V30 63 1 22 59
M  V30 64 1 22 60
M  V30 65 1 24 61
M  V30 66 1 24 62
M  V30 67 1 25 63
M  V30 68 1 25 64
M  V30 69 1 26 65
M  V30 70 1 26 66
M  V30 71 1 27 67
M  V30 72 1 27 68
M  V30 73 1 28 69
M  V30 74 1 28 70
M  V30 75 1 29 71
M  V30 76 1 29 72
M  V30 77 1 32 73
M  V30 78 1 32 74
M  V30 79 1 34 75
M  V30 80 1 37 76
M  V30 81 1 38 77
M  V30 END BOND
M  V30 END CTAB
M  END
>  <Dataset>  (756) 
ChEMBL_Kinases

>  <Ligand_Instance>  (756) 
nan

>  <PDB_ID>  (756) 
nan

>  <Standardized_SMILES>  (756) 
COc1cc(-c2cc(C(=O)N[C@H]3CC[C@H](NC(=O)C(C)(C)CN4CCCC4)CC3)c3c(N)ncnn23)ccn1

>  <Name>  (756) 
nan

>  <Pocket>  (756) 
nan

>  <ATP_Site>  (756) 
nan

>  <Peripheral>  (756) 
nan

>  <Num_H_Atoms_ProtBoundConf>  (756) 
nan

>  <Num_Resolved_Atoms>  (756) 
nan

>  <Num_Not_Resolved_Atoms>  (756) 
nan

$$$$
CHEMBL4284275
     RDKit          3D

  0  0  0  0  0  0  0  0  0  0999 V3000
M  V30 BEGIN CTAB
M  V30 COUNTS 42 47 0 0 0
M  V30 BEGIN ATOM
M  V30 1 C 1.501469 -0.258416 5.079339 0
M  V30 2 O 0.957444 -0.827284 3.971920 0
M  V30 3 C 1.852699 -1.157029 2.941202 0
M  V30 4 N 1.769884 -2.651727 2.831014 0
M  V30 5 C 0.905232 -2.989972 1.772087 0
M  V30 6 O 0.672869 -4.198101 1.756788 0
M  V30 7 C 0.554258 -1.815447 1.025400 0
M  V30 8 C 1.214369 -0.785732 1.659874 0
M  V30 9 C 1.082869 0.445800 1.006148 0
M  V30 10 C 1.556141 1.720846 1.224153 0
M  V30 11 C 2.361506 2.240701 2.210899 0
M  V30 12 C 2.774978 3.552673 2.306861 0
M  V30 13 C 2.335136 4.429481 1.310285 0
M  V30 14 C 1.515474 3.941131 0.287934 0
M  V30 15 C 1.142955 2.613565 0.258942 0
M  V30 16 N 0.394837 1.887235 -0.588168 0
M  V30 17 C 0.345749 0.616048 -0.172307 0
M  V30 18 C -0.290559 -0.463359 -0.742113 0
M  V30 19 N -1.046873 -0.556307 -1.849389 0
M  V30 20 C -1.402504 -1.851274 -1.916844 0
M  V30 21 C -2.196399 -2.411204 -2.907911 0
M  V30 22 C -2.499497 -3.756178 -2.873181 0
M  V30 23 C -1.989927 -4.502577 -1.833016 0
M  V30 24 O -2.282271 -5.858950 -1.777591 0
M  V30 25 C -1.216800 -3.884819 -0.894466 0
M  V30 26 C -0.876943 -2.566965 -0.864634 0
M  V30 27 C -0.164671 -1.678895 -0.112349 0
M  V30 28 H 2.263212 -0.973903 5.495788 0
M  V30 29 H 1.901705 0.746954 4.907978 0
M  V30 30 H 0.732903 -0.186049 5.922505 0
M  V30 31 H 2.874362 -0.860689 3.098169 0
M  V30 32 H 2.359320 -3.172154 3.549571 0
M  V30 33 H 2.718017 1.587656 2.960904 0
M  V30 34 H 3.410573 3.880891 3.119032 0
M  V30 35 H 2.635077 5.469854 1.345477 0
M  V30 36 H 1.176008 4.631375 -0.487145 0
M  V30 37 H -0.060495 2.297517 -1.432160 0
M  V30 38 H -1.291943 0.227042 -2.502799 0
M  V30 39 H -2.602882 -1.840684 -3.728569 0
M  V30 40 H -3.118271 -4.183748 -3.649023 0
M  V30 41 H -3.247494 -6.138029 -1.565527 0
M  V30 42 H -0.856625 -4.511822 -0.113367 0
M  V30 END ATOM
M  V30 BEGIN BOND
M  V30 1 1 1 2
M  V30 2 1 2 3
M  V30 3 1 3 4
M  V30 4 1 4 5
M  V30 5 2 5 6
M  V30 6 1 5 7
M  V30 7 2 7 8
M  V30 8 1 8 9
M  V30 9 1 9 10
M  V30 10 2 10 11
M  V30 11 1 11 12
M  V30 12 2 12 13
M  V30 13 1 13 14
M  V30 14 2 14 15
M  V30 15 1 15 16
M  V30 16 1 16 17
M  V30 17 1 17 18
M  V30 18 1 18 19
M  V30 19 1 19 20
M  V30 20 2 20 21
M  V30 21 1 21 22
M  V30 22 2 22 23
M  V30 23 1 23 24
M  V30 24 1 23 25
M  V30 25 2 25 26
M  V30 26 1 26 27
M  V30 27 1 8 3
M  V30 28 2 17 9
M  V30 29 2 27 18
M  V30 30 1 27 7
M  V30 31 1 15 10
M  V30 32 1 26 20
M  V30 33 1 1 28
M  V30 34 1 1 29
M  V30 35 1 1 30
M  V30 36 1 3 31
M  V30 37 1 4 32
M  V30 38 1 11 33
M  V30 39 1 12 34
M  V30 40 1 13 35
M  V30 41 1 14 36
M  V30 42 1 16 37
M  V30 43 1 19 38
M  V30 44 1 21 39
M  V30 45 1 22 40
M  V30 46 1 24 41
M  V30 47 1 25 42
M  V30 END BOND
M  V30 END CTAB
M  END
>  <Dataset>  (757) 
ChEMBL_Kinases

>  <Ligand_Instance>  (757) 
nan

>  <PDB_ID>  (757) 
nan

>  <Standardized_SMILES>  (757) 
COC1NC(=O)c2c1c1c3ccccc3[nH]c1c1[nH]c3ccc(O)cc3c21

>  <Name>  (757) 
nan

>  <Pocket>  (757) 
nan

>  <ATP_Site>  (757) 
nan

>  <Peripheral>  (757) 
nan

>  <Num_H_Atoms_ProtBoundConf>  (757) 
nan

>  <Num_Resolved_Atoms>  (757) 
nan

>  <Num_Not_Resolved_Atoms>  (757) 
nan

$$$$
CHEMBL4284263
     RDKit          3D

  0  0  0  0  0  0  0  0  0  0999 V3000
M  V30 BEGIN CTAB
M  V30 COUNTS 52 54 0 0 0
M  V30 BEGIN ATOM
M  V30 1 C 1.582680 -2.420682 7.267410 0
M  V30 2 N 2.147003 -2.647570 5.938333 0
M  V30 3 C 1.614201 -1.836926 4.900912 0
M  V30 4 O 0.723586 -1.024579 5.252909 0
M  V30 5 N 2.092197 -1.972469 3.556973 0
M  V30 6 C 1.653465 -1.236762 2.440101 0
M  V30 7 S 2.517525 0.293144 2.077996 0
M  V30 8 C 1.511132 0.705017 0.613541 0
M  V30 9 C 1.589981 1.798956 -0.239993 0
M  V30 10 C 2.632288 2.825190 0.025652 0
M  V30 11 C 2.105761 3.909088 0.955619 0
M  V30 12 C 3.886922 2.271800 0.620676 0
M  V30 13 C 0.675620 1.828243 -1.273644 0
M  V30 14 C -0.256851 0.781691 -1.402579 0
M  V30 15 N -1.149214 0.916723 -2.507557 0
M  V30 16 S -1.769735 -0.119455 -3.702108 0
M  V30 17 O -2.585467 0.675997 -4.708853 0
M  V30 18 O -0.595357 -0.649297 -4.497122 0
M  V30 19 C -2.734064 -1.430826 -3.178964 0
M  V30 20 C -3.323608 -1.999144 -2.123405 0
M  V30 21 C -4.071680 -3.136361 -2.233190 0
M  V30 22 C -4.746429 -3.806583 -1.088576 0
M  V30 23 C -4.190052 -3.670303 -3.488896 0
M  V30 24 S -3.223784 -2.552121 -4.573584 0
M  V30 25 C -0.259850 -0.257455 -0.513050 0
M  V30 26 C 0.616306 -0.357065 0.539434 0
M  V30 27 C 0.731484 -1.321652 1.495836 0
M  V30 28 C -0.109780 -2.506584 1.585917 0
M  V30 29 N -1.168431 -2.900737 0.755039 0
M  V30 30 O 0.026458 -3.356368 2.467899 0
M  V30 31 H 1.923282 -1.389485 7.548223 0
M  V30 32 H 0.494018 -2.391824 7.282606 0
M  V30 33 H 2.048772 -3.092181 8.026708 0
M  V30 34 H 2.896820 -3.337946 5.666926 0
M  V30 35 H 2.833785 -2.659357 3.304391 0
M  V30 36 H 2.829192 3.346851 -0.939789 0
M  V30 37 H 1.030788 4.123910 0.769470 0
M  V30 38 H 2.279164 3.669147 2.022291 0
M  V30 39 H 2.620101 4.886311 0.763098 0
M  V30 40 H 4.116450 1.237739 0.332289 0
M  V30 41 H 4.719124 2.935951 0.243651 0
M  V30 42 H 3.868010 2.425247 1.721419 0
M  V30 43 H 0.736701 2.673043 -1.932354 0
M  V30 44 H -1.520444 1.918188 -2.589366 0
M  V30 45 H -3.173521 -1.480486 -1.190402 0
M  V30 46 H -4.275312 -4.763038 -0.839703 0
M  V30 47 H -5.829879 -3.979758 -1.355749 0
M  V30 48 H -4.785316 -3.135201 -0.206527 0
M  V30 49 H -4.725237 -4.554434 -3.814218 0
M  V30 50 H -0.990700 -1.023591 -0.676643 0
M  V30 51 H -1.469951 -3.315297 -0.153876 0
M  V30 52 H -2.183814 -2.793242 1.038514 0
M  V30 END ATOM
M  V30 BEGIN BOND
M  V30 1 1 1 2
M  V30 2 1 2 3
M  V30 3 2 3 4
M  V30 4 1 3 5
M  V30 5 1 5 6
M  V30 6 1 6 7
M  V30 7 1 7 8
M  V30 8 2 8 9
M  V30 9 1 9 10
M  V30 10 1 10 11
M  V30 11 1 10 12
M  V30 12 1 9 13
M  V30 13 2 13 14
M  V30 14 1 14 15
M  V30 15 1 15 16
M  V30 16 2 16 17
M  V30 17 2 16 18
M  V30 18 1 16 19
M  V30 19 2 19 20
M  V30 20 1 20 21
M  V30 21 1 21 22
M  V30 22 2 21 23
M  V30 23 1 23 24
M  V30 24 1 14 25
M  V30 25 2 25 26
M  V30 26 1 26 27
M  V30 27 1 27 28
M  V30 28 1 28 29
M  V30 29 2 28 30
M  V30 30 2 27 6
M  V30 31 1 26 8
M  V30 32 1 24 19
M  V30 33 1 1 31
M  V30 34 1 1 32
M  V30 35 1 1 33
M  V30 36 1 2 34
M  V30 37 1 5 35
M  V30 38 1 10 36
M  V30 39 1 11 37
M  V30 40 1 11 38
M  V30 41 1 11 39
M  V30 42 1 12 40
M  V30 43 1 12 41
M  V30 44 1 12 42
M  V30 45 1 13 43
M  V30 46 1 15 44
M  V30 47 1 20 45
M  V30 48 1 22 46
M  V30 49 1 22 47
M  V30 50 1 22 48
M  V30 51 1 23 49
M  V30 52 1 25 50
M  V30 53 1 29 51
M  V30 54 1 29 52
M  V30 END BOND
M  V30 END CTAB
M  END
>  <Dataset>  (758) 
ChEMBL_Kinases

>  <Ligand_Instance>  (758) 
nan

>  <PDB_ID>  (758) 
nan

>  <Standardized_SMILES>  (758) 
CNC(=O)Nc1sc2c(C(C)C)cc(NS(=O)(=O)c3cc(C)cs3)cc2c1C(N)=O

>  <Name>  (758) 
nan

>  <Pocket>  (758) 
nan

>  <ATP_Site>  (758) 
nan

>  <Peripheral>  (758) 
nan

>  <Num_H_Atoms_ProtBoundConf>  (758) 
nan

>  <Num_Resolved_Atoms>  (758) 
nan

>  <Num_Not_Resolved_Atoms>  (758) 
nan

$$$$
CHEMBL4284240
     RDKit          3D

  0  0  0  0  0  0  0  0  0  0999 V3000
M  V30 BEGIN CTAB
M  V30 COUNTS 51 55 0 0 0
M  V30 BEGIN ATOM
M  V30 1 C -0.769893 -3.922632 4.572178 0
M  V30 2 O -0.483997 -3.692027 3.219172 0
M  V30 3 C 0.521998 -2.823418 2.858808 0
M  V30 4 C 1.263722 -2.167144 3.814104 0
M  V30 5 C 2.265956 -1.301885 3.449868 0
M  V30 6 C 2.516434 -1.102127 2.088702 0
M  V30 7 C 1.813413 -1.725422 1.079471 0
M  V30 8 C 0.828021 -2.574989 1.531632 0
M  V30 9 C 2.338808 -1.285828 -0.217439 0
M  V30 10 C 3.035251 -0.004357 0.087860 0
M  V30 11 N 2.146710 1.130241 0.072592 0
M  V30 12 C 2.702387 2.347477 0.321225 0
M  V30 13 C 4.068326 2.841606 0.620577 0
M  V30 14 N 1.693775 3.265771 0.258881 0
M  V30 15 C 0.567382 2.630924 -0.017337 0
M  V30 16 C -0.757917 3.036958 -0.199550 0
M  V30 17 C -1.672991 2.038757 -0.484680 0
M  V30 18 C -1.365667 0.699249 -0.597614 0
M  V30 19 C -2.372679 -0.309399 -0.902159 0
M  V30 20 C -3.707353 -0.045339 -1.103097 0
M  V30 21 C -4.591227 -1.060076 -1.387765 0
M  V30 22 N -5.979280 -0.773467 -1.595221 0
M  V30 23 N -4.165494 -2.334372 -1.475325 0
M  V30 24 C -2.867083 -2.651284 -1.287506 0
M  V30 25 N -2.385502 -3.987565 -1.373155 0
M  V30 26 C -1.988227 -1.626162 -1.002411 0
M  V30 27 N -0.068857 0.349594 -0.413277 0
M  V30 28 C 0.827908 1.284357 -0.139243 0
M  V30 29 C 3.546809 -0.217271 1.496126 0
M  V30 30 H 0.115701 -4.065497 5.201827 0
M  V30 31 H -1.343630 -3.044393 4.987586 0
M  V30 32 H -1.437946 -4.810108 4.655404 0
M  V30 33 H 1.090705 -2.303548 4.874816 0
M  V30 34 H 2.842018 -0.791951 4.211227 0
M  V30 35 H 0.220564 -3.112468 0.819020 0
M  V30 36 H 1.591022 -1.236803 -1.033319 0
M  V30 37 H 3.068020 -2.061021 -0.540785 0
M  V30 38 H 3.938921 0.156650 -0.537956 0
M  V30 39 H 4.801189 2.023028 0.372821 0
M  V30 40 H 4.278424 3.747462 0.009919 0
M  V30 41 H 4.111212 3.094497 1.688541 0
M  V30 42 H -1.009412 4.069096 -0.115115 0
M  V30 43 H -2.677120 2.392986 -0.616922 0
M  V30 44 H -4.053817 0.955692 -1.036418 0
M  V30 45 H -6.419330 -0.055011 -2.229198 0
M  V30 46 H -6.642805 -1.376666 -1.024232 0
M  V30 47 H -1.866622 -4.231635 -2.250016 0
M  V30 48 H -2.487423 -4.755470 -0.665601 0
M  V30 49 H -0.958252 -1.864823 -0.852395 0
M  V30 50 H 4.556881 -0.657411 1.520944 0
M  V30 51 H 3.568671 0.780516 2.009097 0
M  V30 END ATOM
M  V30 BEGIN BOND
M  V30 1 1 1 2
M  V30 2 1 2 3
M  V30 3 2 3 4
M  V30 4 1 4 5
M  V30 5 2 5 6
M  V30 6 1 6 7
M  V30 7 2 7 8
M  V30 8 1 7 9
M  V30 9 1 9 10
M  V30 10 1 10 11
M  V30 11 1 11 12
M  V30 12 1 12 13
M  V30 13 2 12 14
M  V30 14 1 14 15
M  V30 15 2 15 16
M  V30 16 1 16 17
M  V30 17 2 17 18
M  V30 18 1 18 19
M  V30 19 2 19 20
M  V30 20 1 20 21
M  V30 21 1 21 22
M  V30 22 2 21 23
M  V30 23 1 23 24
M  V30 24 1 24 25
M  V30 25 2 24 26
M  V30 26 1 18 27
M  V30 27 2 27 28
M  V30 28 1 10 29
M  V30 29 1 8 3
M  V30 30 1 28 11
M  V30 31 1 29 6
M  V30 32 1 28 15
M  V30 33 1 26 19
M  V30 34 1 1 30
M  V30 35 1 1 31
M  V30 36 1 1 32
M  V30 37 1 4 33
M  V30 38 1 5 34
M  V30 39 1 8 35
M  V30 40 1 9 36
M  V30 41 1 9 37
M  V30 42 1 10 38
M  V30 43 1 13 39
M  V30 44 1 13 40
M  V30 45 1 13 41
M  V30 46 1 16 42
M  V30 47 1 17 43
M  V30 48 1 20 44
M  V30 49 1 22 45
M  V30 50 1 22 46
M  V30 51 1 25 47
M  V30 52 1 25 48
M  V30 53 1 26 49
M  V30 54 1 29 50
M  V30 55 1 29 51
M  V30 END BOND
M  V30 END CTAB
M  END
>  <Dataset>  (759) 
ChEMBL_Kinases

>  <Ligand_Instance>  (759) 
nan

>  <PDB_ID>  (759) 
nan

>  <Standardized_SMILES>  (759) 
COc1ccc2c(c1)CC(n1c(C)nc3ccc(-c4cc(N)nc(N)c4)nc31)C2

>  <Name>  (759) 
nan

>  <Pocket>  (759) 
nan

>  <ATP_Site>  (759) 
nan

>  <Peripheral>  (759) 
nan

>  <Num_H_Atoms_ProtBoundConf>  (759) 
nan

>  <Num_Resolved_Atoms>  (759) 
nan

>  <Num_Not_Resolved_Atoms>  (759) 
nan

$$$$
CHEMBL3681207
     RDKit          3D

  0  0  0  0  0  0  0  0  0  0999 V3000
M  V30 BEGIN CTAB
M  V30 COUNTS 74 78 0 0 0
M  V30 BEGIN ATOM
M  V30 1 C 5.316307 -2.144055 3.230521 0
M  V30 2 C 5.328685 -3.191240 2.136538 0
M  V30 3 N 4.305962 -2.860620 1.151278 0
M  V30 4 C 3.014929 -3.040366 1.789998 0
M  V30 5 C 2.618609 -4.491045 1.601181 0
M  V30 6 C 3.705442 -5.044425 0.699229 0
M  V30 7 C 4.325035 -3.803783 0.047575 0
M  V30 8 C 3.442707 -3.357203 -1.072889 0
M  V30 9 N 3.916324 -2.055857 -1.562900 0
M  V30 10 C 3.060818 -1.669785 -2.597182 0
M  V30 11 O 2.045306 -2.292822 -3.063607 0
M  V30 12 C 2.926881 -0.524707 -3.520187 0 CFG=1
M  V30 13 C 1.683816 -0.662399 -4.381724 0
M  V30 14 C 0.407929 -0.400941 -3.670182 0
M  V30 15 C 0.611690 0.484140 -2.468644 0 CFG=2
M  V30 16 N -0.595961 1.015538 -1.910704 0
M  V30 17 C -0.986826 0.742618 -0.591225 0
M  V30 18 O -0.259208 0.010925 0.126044 0
M  V30 19 C -2.156203 1.168781 0.168831 0
M  V30 20 C -3.056525 0.302084 0.798044 0
M  V30 21 C -4.048356 1.070714 1.420364 0
M  V30 22 C -5.159071 0.519516 2.183552 0
M  V30 23 C -5.422735 1.159586 3.375863 0
M  V30 24 C -6.448017 0.732119 4.190383 0
M  V30 25 N -7.197404 -0.316466 3.820609 0
M  V30 26 C -6.984663 -0.990493 2.651038 0
M  V30 27 O -7.723970 -2.077008 2.218620 0
M  V30 28 C -8.789704 -2.548900 3.024544 0
M  V30 29 C -5.956219 -0.575317 1.816673 0
M  V30 30 N -3.747105 2.356126 1.168324 0
M  V30 31 N -4.334940 3.486479 1.508759 0
M  V30 32 C -3.925448 4.712323 1.188502 0
M  V30 33 N -2.800085 4.825912 0.442994 0
M  V30 34 C -2.161398 3.682452 0.069441 0
M  V30 35 N -0.978439 3.811969 -0.707899 0
M  V30 36 C -2.626820 2.423272 0.427184 0
M  V30 37 C 1.648384 1.513605 -2.839280 0
M  V30 38 C 3.009913 0.828043 -2.882218 0
M  V30 39 H 4.635439 -2.453033 4.038599 0
M  V30 40 H 5.091483 -1.131145 2.827201 0
M  V30 41 H 6.339021 -2.083195 3.663300 0
M  V30 42 H 6.317807 -3.268855 1.668485 0
M  V30 43 H 5.105318 -4.154772 2.643496 0
M  V30 44 H 2.999389 -2.742385 2.853907 0
M  V30 45 H 2.212490 -2.411898 1.306814 0
M  V30 46 H 2.611217 -4.994967 2.585171 0
M  V30 47 H 1.605401 -4.591617 1.160878 0
M  V30 48 H 3.196529 -5.620163 -0.087262 0
M  V30 49 H 4.442518 -5.606243 1.281380 0
M  V30 50 H 5.347249 -3.962009 -0.294471 0
M  V30 51 H 2.433937 -3.166177 -0.645580 0
M  V30 52 H 3.365983 -4.084326 -1.894075 0
M  V30 53 H 4.627889 -1.303738 -1.457492 0
M  V30 54 H 3.781260 -0.638799 -4.218559 0
M  V30 55 H 1.660856 -1.653629 -4.869779 0
M  V30 56 H 1.754223 0.081376 -5.229003 0
M  V30 57 H -0.361728 0.045788 -4.364204 0
M  V30 58 H -0.066124 -1.361780 -3.349176 0
M  V30 59 H 1.035188 -0.181079 -1.657932 0
M  V30 60 H -1.284195 1.640995 -2.422070 0
M  V30 61 H -3.039454 -0.793686 0.832548 0
M  V30 62 H -4.845569 2.011568 3.716949 0
M  V30 63 H -6.709924 1.201871 5.150288 0
M  V30 64 H -8.455528 -3.359211 3.696510 0
M  V30 65 H -9.150570 -1.721652 3.698792 0
M  V30 66 H -9.616325 -2.902174 2.360517 0
M  V30 67 H -5.680720 -1.018438 0.870745 0
M  V30 68 H -4.477811 5.600157 1.515432 0
M  V30 69 H -0.833703 3.977080 -1.745533 0
M  V30 70 H -0.110439 3.723749 -0.107289 0
M  V30 71 H 1.675082 2.319377 -2.098895 0
M  V30 72 H 1.432546 1.831270 -3.879476 0
M  V30 73 H 3.723263 1.445271 -3.464749 0
M  V30 74 H 3.464575 0.712489 -1.881450 0
M  V30 END ATOM
M  V30 BEGIN BOND
M  V30 1 1 1 2
M  V30 2 1 2 3
M  V30 3 1 3 4
M  V30 4 1 4 5
M  V30 5 1 5 6
M  V30 6 1 6 7
M  V30 7 1 7 8
M  V30 8 1 8 9
M  V30 9 1 9 10
M  V30 10 2 10 11
M  V30 11 1 10 12
M  V30 12 1 12 13
M  V30 13 1 13 14
M  V30 14 1 14 15
M  V30 15 1 15 16
M  V30 16 1 16 17
M  V30 17 2 17 18
M  V30 18 1 17 19
M  V30 19 1 19 20
M  V30 20 2 20 21
M  V30 21 1 21 22
M  V30 22 2 22 23
M  V30 23 1 23 24
M  V30 24 2 24 25
M  V30 25 1 25 26
M  V30 26 1 26 27
M  V30 27 1 27 28
M  V30 28 2 26 29
M  V30 29 1 21 30
M  V30 30 1 30 31
M  V30 31 2 31 32
M  V30 32 1 32 33
M  V30 33 2 33 34
M  V30 34 1 34 35
M  V30 35 1 34 36
M  V30 36 1 15 37
M  V30 37 1 37 38
M  V30 38 1 7 3
M  V30 39 1 38 12
M  V30 40 2 36 19
M  V30 41 1 29 22
M  V30 42 1 36 30
M  V30 43 1 1 39
M  V30 44 1 1 40
M  V30 45 1 1 41
M  V30 46 1 2 42
M  V30 47 1 2 43
M  V30 48 1 4 44
M  V30 49 1 4 45
M  V30 50 1 5 46
M  V30 51 1 5 47
M  V30 52 1 6 48
M  V30 53 1 6 49
M  V30 54 1 7 50
M  V30 55 1 8 51
M  V30 56 1 8 52
M  V30 57 1 9 53
M  V30 58 1 12 54 CFG=3
M  V30 59 1 13 55
M  V30 60 1 13 56
M  V30 61 1 14 57
M  V30 62 1 14 58
M  V30 63 1 15 59 CFG=1
M  V30 64 1 16 60
M  V30 65 1 20 61
M  V30 66 1 23 62
M  V30 67 1 24 63
M  V30 68 1 28 64
M  V30 69 1 28 65
M  V30 70 1 28 66
M  V30 71 1 29 67
M  V30 72 1 32 68
M  V30 73 1 35 69
M  V30 74 1 35 70
M  V30 75 1 37 71
M  V30 76 1 37 72
M  V30 77 1 38 73
M  V30 78 1 38 74
M  V30 END BOND
M  V30 END CTAB
M  END
>  <Dataset>  (760) 
ChEMBL_Kinases

>  <Ligand_Instance>  (760) 
nan

>  <PDB_ID>  (760) 
nan

>  <Standardized_SMILES>  (760) 
CCN1CCCC1CNC(=O)[C@H]1CC[C@H](NC(=O)c2cc(-c3ccnc(OC)c3)n3ncnc(N)c23)CC1

>  <Name>  (760) 
nan

>  <Pocket>  (760) 
nan

>  <ATP_Site>  (760) 
nan

>  <Peripheral>  (760) 
nan

>  <Num_H_Atoms_ProtBoundConf>  (760) 
nan

>  <Num_Resolved_Atoms>  (760) 
nan

>  <Num_Not_Resolved_Atoms>  (760) 
nan

$$$$
CHEMBL3681206
     RDKit          3D

  0  0  0  0  0  0  0  0  0  0999 V3000
M  V30 BEGIN CTAB
M  V30 COUNTS 44 47 0 0 0
M  V30 BEGIN ATOM
M  V30 1 C -2.210771 -5.341760 5.708682 0
M  V30 2 O -1.372205 -4.421103 5.014465 0
M  V30 3 C -1.684575 -4.184739 3.674438 0
M  V30 4 C -0.950080 -3.314378 2.892275 0
M  V30 5 C -1.234861 -3.061602 1.567339 0
M  V30 6 C -0.407005 -2.126206 0.812375 0
M  V30 7 C -0.072926 -0.931340 1.422631 0
M  V30 8 C 0.698206 -0.206636 0.550128 0
M  V30 9 C 1.335722 1.111246 0.640154 0
M  V30 10 O 2.167498 1.113853 1.596041 0
M  V30 11 N 1.093932 2.237859 -0.188470 0
M  V30 12 C 1.815882 3.412892 0.067177 0 CFG=1
M  V30 13 C 2.683197 3.922280 -1.053082 0
M  V30 14 C 3.084597 5.235931 -0.351350 0
M  V30 15 O 1.905076 5.703182 0.215622 0
M  V30 16 C 1.018286 4.645363 0.346043 0
M  V30 17 C 0.814901 -0.975312 -0.567367 0
M  V30 18 C 1.422218 -0.899121 -1.810508 0
M  V30 19 N 2.159218 0.274034 -2.109111 0
M  V30 20 N 1.364273 -1.839273 -2.738995 0
M  V30 21 C 0.674676 -2.971650 -2.500877 0
M  V30 22 N 0.075598 -3.071844 -1.302395 0
M  V30 23 N 0.146547 -2.133097 -0.404623 0
M  V30 24 C -2.304664 -3.700398 0.971679 0
M  V30 25 C -3.033027 -4.567027 1.756806 0
M  V30 26 N -2.729896 -4.793957 3.051296 0
M  V30 27 H -1.754322 -5.697951 6.648548 0
M  V30 28 H -3.169351 -4.860870 6.000849 0
M  V30 29 H -2.460870 -6.214180 5.098486 0
M  V30 30 H -0.100511 -2.804865 3.360151 0
M  V30 31 H -0.309588 -0.512850 2.409492 0
M  V30 32 H 0.380005 2.096546 -0.939275 0
M  V30 33 H 2.505985 3.248152 0.923808 0
M  V30 34 H 3.540199 3.295353 -1.279053 0
M  V30 35 H 2.102715 4.272632 -1.931859 0
M  V30 36 H 3.586435 5.919835 -1.028746 0
M  V30 37 H 3.759193 5.019688 0.518195 0
M  V30 38 H 0.304286 4.748422 -0.523791 0
M  V30 39 H 0.456196 4.635461 1.277731 0
M  V30 40 H 3.016185 0.711768 -2.510482 0
M  V30 41 H 2.963242 0.780426 -2.480150 0
M  V30 42 H 0.581300 -3.784243 -3.207720 0
M  V30 43 H -2.568162 -3.530053 -0.078637 0
M  V30 44 H -3.894868 -5.111286 1.359665 0
M  V30 END ATOM
M  V30 BEGIN BOND
M  V30 1 1 1 2
M  V30 2 1 2 3
M  V30 3 2 3 4
M  V30 4 1 4 5
M  V30 5 1 5 6
M  V30 6 2 6 7
M  V30 7 1 7 8
M  V30 8 1 8 9
M  V30 9 2 9 10
M  V30 10 1 9 11
M  V30 11 1 11 12
M  V30 12 1 12 13
M  V30 13 1 13 14
M  V30 14 1 14 15
M  V30 15 1 15 16
M  V30 16 2 8 17
M  V30 17 1 17 18
M  V30 18 1 18 19
M  V30 19 2 18 20
M  V30 20 1 20 21
M  V30 21 2 21 22
M  V30 22 1 22 23
M  V30 23 2 5 24
M  V30 24 1 24 25
M  V30 25 2 25 26
M  V30 26 1 26 3
M  V30 27 1 23 6
M  V30 28 1 16 12
M  V30 29 1 23 17
M  V30 30 1 1 27
M  V30 31 1 1 28
M  V30 32 1 1 29
M  V30 33 1 4 30
M  V30 34 1 7 31
M  V30 35 1 11 32
M  V30 36 1 12 33 CFG=1
M  V30 37 1 13 34
M  V30 38 1 13 35
M  V30 39 1 14 36
M  V30 40 1 14 37
M  V30 41 1 16 38
M  V30 42 1 16 39
M  V30 43 1 19 40
M  V30 44 1 19 41
M  V30 45 1 21 42
M  V30 46 1 24 43
M  V30 47 1 25 44
M  V30 END BOND
M  V30 END CTAB
M  END
>  <Dataset>  (761) 
ChEMBL_Kinases

>  <Ligand_Instance>  (761) 
nan

>  <PDB_ID>  (761) 
nan

>  <Standardized_SMILES>  (761) 
COc1cc(-c2cc(C(=O)N[C@H]3CCOC3)c3c(N)ncnn23)ccn1

>  <Name>  (761) 
nan

>  <Pocket>  (761) 
nan

>  <ATP_Site>  (761) 
nan

>  <Peripheral>  (761) 
nan

>  <Num_H_Atoms_ProtBoundConf>  (761) 
nan

>  <Num_Resolved_Atoms>  (761) 
nan

>  <Num_Not_Resolved_Atoms>  (761) 
nan

$$$$
CHEMBL3681211
     RDKit          3D

  0  0  0  0  0  0  0  0  0  0999 V3000
M  V30 BEGIN CTAB
M  V30 COUNTS 59 62 0 0 0
M  V30 BEGIN ATOM
M  V30 1 C 2.912669 1.197025 4.037000 0
M  V30 2 C 3.685497 0.773395 2.832279 0
M  V30 3 C 4.013858 -0.718821 2.968838 0
M  V30 4 C 5.036611 1.470968 2.880975 0
M  V30 5 C 3.015198 1.009356 1.519901 0
M  V30 6 O 2.720726 2.371931 1.288274 0
M  V30 7 C 3.354117 3.093571 0.282525 0
M  V30 8 N 2.931572 4.444939 0.198853 0
M  V30 9 O 4.238001 2.848816 -0.605588 0
M  V30 10 C 1.848267 0.159702 1.205881 0
M  V30 11 C 0.684389 0.223010 2.125500 0
M  V30 12 C -0.487634 -0.103896 1.195371 0
M  V30 13 N 0.046980 -0.127224 -0.150810 0
M  V30 14 C -0.415772 -0.789342 -1.300915 0
M  V30 15 O 0.134374 -0.742781 -2.446708 0
M  V30 16 C -1.611869 -1.622196 -1.292396 0
M  V30 17 C -2.953668 -1.363913 -1.523713 0
M  V30 18 C -3.626344 -2.567267 -1.370870 0
M  V30 19 C -5.079422 -2.718597 -1.534241 0
M  V30 20 C -6.061447 -1.891966 -1.029930 0
M  V30 21 C -7.385572 -2.171453 -1.272800 0
M  V30 22 N -7.743521 -3.262533 -2.010716 0
M  V30 23 C -6.782569 -4.055531 -2.493696 0
M  V30 24 C -5.415355 -3.839347 -2.290829 0
M  V30 25 N -2.745112 -3.529348 -1.059108 0
M  V30 26 N -2.911994 -4.817346 -0.821540 0
M  V30 27 C -1.898108 -5.638700 -0.520358 0
M  V30 28 N -0.647158 -5.144177 -0.452953 0
M  V30 29 C -0.466753 -3.831851 -0.693604 0
M  V30 30 N 0.862227 -3.296627 -0.624010 0
M  V30 31 C -1.500282 -2.985899 -1.002421 0
M  V30 32 C 1.224543 0.714702 -0.082014 0
M  V30 33 H 2.333049 0.362684 4.482881 0
M  V30 34 H 3.602931 1.515207 4.875883 0
M  V30 35 H 2.280211 2.106520 3.845185 0
M  V30 36 H 4.526659 -1.068346 2.050414 0
M  V30 37 H 4.758578 -0.767238 3.789334 0
M  V30 38 H 3.111335 -1.271342 3.238120 0
M  V30 39 H 5.806247 0.826688 2.411107 0
M  V30 40 H 4.924412 2.350399 2.186362 0
M  V30 41 H 5.300775 1.816070 3.901835 0
M  V30 42 H 3.803419 0.761361 0.740484 0
M  V30 43 H 2.590109 5.427258 0.253208 0
M  V30 44 H 2.625416 5.429526 0.132202 0
M  V30 45 H 2.080567 -0.902175 1.011279 0
M  V30 46 H 0.731557 -0.533214 2.950681 0
M  V30 47 H 0.475786 1.231873 2.543306 0
M  V30 48 H -1.317293 0.600957 1.331672 0
M  V30 49 H -0.844644 -1.141937 1.459288 0
M  V30 50 H -3.298455 -0.385135 -1.767233 0
M  V30 51 H -5.714853 -1.061729 -0.465192 0
M  V30 52 H -8.134452 -1.497150 -0.859047 0
M  V30 53 H -7.083903 -4.920800 -3.079785 0
M  V30 54 H -4.733584 -4.541729 -2.725982 0
M  V30 55 H -2.085347 -6.674388 -0.336353 0
M  V30 56 H 1.568452 -2.800082 -1.211439 0
M  V30 57 H 1.573419 -3.257580 0.141561 0
M  V30 58 H 0.886902 1.745221 0.053336 0
M  V30 59 H 1.925127 0.545544 -0.899738 0
M  V30 END ATOM
M  V30 BEGIN BOND
M  V30 1 1 1 2
M  V30 2 1 2 3
M  V30 3 1 2 4
M  V30 4 1 2 5
M  V30 5 1 5 6
M  V30 6 1 6 7
M  V30 7 1 7 8
M  V30 8 2 7 9
M  V30 9 1 5 10
M  V30 10 1 10 11
M  V30 11 1 11 12
M  V30 12 1 12 13
M  V30 13 1 13 14
M  V30 14 2 14 15
M  V30 15 1 14 16
M  V30 16 1 16 17
M  V30 17 2 17 18
M  V30 18 1 18 19
M  V30 19 2 19 20
M  V30 20 1 20 21
M  V30 21 2 21 22
M  V30 22 1 22 23
M  V30 23 2 23 24
M  V30 24 1 18 25
M  V30 25 1 25 26
M  V30 26 2 26 27
M  V30 27 1 27 28
M  V30 28 2 28 29
M  V30 29 1 29 30
M  V30 30 1 29 31
M  V30 31 1 13 32
M  V30 32 1 32 10
M  V30 33 2 31 16
M  V30 34 1 24 19
M  V30 35 1 31 25
M  V30 36 1 1 33
M  V30 37 1 1 34
M  V30 38 1 1 35
M  V30 39 1 3 36
M  V30 40 1 3 37
M  V30 41 1 3 38
M  V30 42 1 4 39
M  V30 43 1 4 40
M  V30 44 1 4 41
M  V30 45 1 5 42
M  V30 46 1 8 43
M  V30 47 1 8 44
M  V30 48 1 10 45
M  V30 49 1 11 46
M  V30 50 1 11 47
M  V30 51 1 12 48
M  V30 52 1 12 49
M  V30 53 1 17 50
M  V30 54 1 20 51
M  V30 55 1 21 52
M  V30 56 1 23 53
M  V30 57 1 24 54
M  V30 58 1 27 55
M  V30 59 1 30 56
M  V30 60 1 30 57
M  V30 61 1 32 58
M  V30 62 1 32 59
M  V30 END BOND
M  V30 END CTAB
M  END
>  <Dataset>  (762) 
ChEMBL_Kinases

>  <Ligand_Instance>  (762) 
nan

>  <PDB_ID>  (762) 
nan

>  <Standardized_SMILES>  (762) 
CC(C)(C)C(OC(N)=O)C1CCN(C(=O)c2cc(-c3ccncc3)n3ncnc(N)c23)C1

>  <Name>  (762) 
nan

>  <Pocket>  (762) 
nan

>  <ATP_Site>  (762) 
nan

>  <Peripheral>  (762) 
nan

>  <Num_H_Atoms_ProtBoundConf>  (762) 
nan

>  <Num_Resolved_Atoms>  (762) 
nan

>  <Num_Not_Resolved_Atoms>  (762) 
nan

$$$$
CHEMBL3093254
     RDKit          3D

  0  0  0  0  0  0  0  0  0  0999 V3000
M  V30 BEGIN CTAB
M  V30 COUNTS 61 67 0 0 0
M  V30 BEGIN ATOM
M  V30 1 N 0.059512 -2.723355 3.120973 0
M  V30 2 C 0.646836 -1.529401 2.609084 0
M  V30 3 N 1.219704 -0.667559 3.474669 0
M  V30 4 C 1.795785 0.489513 3.036027 0
M  V30 5 C 1.748238 0.704814 1.670964 0
M  V30 6 C 2.377053 1.967522 1.212212 0
M  V30 7 C 3.451031 2.676279 1.711836 0
M  V30 8 N 3.632953 3.766060 0.939854 0
M  V30 9 N 2.747950 3.809252 -0.025816 0
M  V30 10 C 2.472434 4.726348 -1.122546 0
M  V30 11 C 0.955595 4.918307 -1.249870 0
M  V30 12 C 0.571856 6.356651 -0.960896 0
M  V30 13 N 1.173006 7.224204 -1.932173 0
M  V30 14 C 2.606673 7.014301 -1.954570 0
M  V30 15 C 3.073226 6.064343 -0.866021 0
M  V30 16 C 1.946314 2.710862 0.104027 0
M  V30 17 C 1.174086 -0.146618 0.747308 0
M  V30 18 C 0.601300 -1.310536 1.244950 0
M  V30 19 C -0.028950 -2.266858 0.338096 0
M  V30 20 N -0.164446 -2.219758 -1.000178 0
M  V30 21 C -0.814154 -3.315461 -1.437325 0
M  V30 22 C -1.212897 -3.777630 -2.658492 0
M  V30 23 C -1.885056 -4.984339 -2.780005 0
M  V30 24 C -2.162554 -5.745649 -1.639181 0
M  V30 25 O -2.837597 -6.947745 -1.806586 0
M  V30 26 C -1.743672 -5.241105 -0.442282 0
M  V30 27 C -2.057569 -6.072146 0.714211 0
M  V30 28 C -1.317682 -7.078552 1.301171 0
M  V30 29 C -1.832092 -7.725998 2.397501 0
M  V30 30 C -3.058965 -7.426236 2.953046 0
M  V30 31 C -3.759855 -7.941408 4.036667 0
M  V30 32 N -4.897998 -7.238809 4.077618 0
M  V30 33 N -4.925920 -6.349635 3.105061 0
M  V30 34 C -3.780945 -6.431869 2.366487 0
M  V30 35 C -3.300525 -5.746793 1.252884 0
M  V30 36 C -1.074352 -4.044766 -0.297376 0
M  V30 37 O -0.592114 -3.385483 0.723813 0
M  V30 38 H -0.878798 -3.058352 3.484945 0
M  V30 39 H -0.905219 -2.970532 3.467185 0
M  V30 40 H 2.260839 1.194635 3.712257 0
M  V30 41 H 4.010495 2.366578 2.572084 0
M  V30 42 H 2.849587 4.309826 -2.062332 0
M  V30 43 H 0.454690 4.315982 -0.457946 0
M  V30 44 H 0.571072 4.561952 -2.214599 0
M  V30 45 H 0.849095 6.572541 0.083162 0
M  V30 46 H -0.527733 6.403100 -1.032428 0
M  V30 47 H 0.889049 8.209890 -1.777567 0
M  V30 48 H 2.856420 6.543504 -2.926070 0
M  V30 49 H 3.087763 8.013406 -1.864237 0
M  V30 50 H 2.889084 6.442770 0.143131 0
M  V30 51 H 4.193417 6.015155 -1.001708 0
M  V30 52 H 1.091771 2.383632 -0.503569 0
M  V30 53 H 1.170255 0.079475 -0.306661 0
M  V30 54 H -1.005276 -3.201592 -3.542883 0
M  V30 55 H -2.204869 -5.358523 -3.744353 0
M  V30 56 H -2.767351 -7.436226 -2.701177 0
M  V30 57 H -0.384522 -7.247982 0.812975 0
M  V30 58 H -1.205118 -8.519723 2.828920 0
M  V30 59 H -3.441592 -8.736858 4.694155 0
M  V30 60 H -5.712201 -5.667115 2.913391 0
M  V30 61 H -3.974881 -4.986908 0.893610 0
M  V30 END ATOM
M  V30 BEGIN BOND
M  V30 1 1 1 2
M  V30 2 2 2 3
M  V30 3 1 3 4
M  V30 4 2 4 5
M  V30 5 1 5 6
M  V30 6 1 6 7
M  V30 7 2 7 8
M  V30 8 1 8 9
M  V30 9 1 9 10
M  V30 10 1 10 11
M  V30 11 1 11 12
M  V30 12 1 12 13
M  V30 13 1 13 14
M  V30 14 1 14 15
M  V30 15 1 9 16
M  V30 16 1 5 17
M  V30 17 2 17 18
M  V30 18 1 18 19
M  V30 19 2 19 20
M  V30 20 1 20 21
M  V30 21 2 21 22
M  V30 22 1 22 23
M  V30 23 2 23 24
M  V30 24 1 24 25
M  V30 25 1 24 26
M  V30 26 1 26 27
M  V30 27 2 27 28
M  V30 28 1 28 29
M  V30 29 2 29 30
M  V30 30 1 30 31
M  V30 31 2 31 32
M  V30 32 1 32 33
M  V30 33 1 33 34
M  V30 34 2 34 35
M  V30 35 2 26 36
M  V30 36 1 36 37
M  V30 37 1 18 2
M  V30 38 1 37 19
M  V30 39 2 16 6
M  V30 40 1 36 21
M  V30 41 1 15 10
M  V30 42 1 35 27
M  V30 43 1 34 30
M  V30 44 1 1 38
M  V30 45 1 1 39
M  V30 46 1 4 40
M  V30 47 1 7 41
M  V30 48 1 10 42
M  V30 49 1 11 43
M  V30 50 1 11 44
M  V30 51 1 12 45
M  V30 52 1 12 46
M  V30 53 1 13 47
M  V30 54 1 14 48
M  V30 55 1 14 49
M  V30 56 1 15 50
M  V30 57 1 15 51
M  V30 58 1 16 52
M  V30 59 1 17 53
M  V30 60 1 22 54
M  V30 61 1 23 55
M  V30 62 1 25 56
M  V30 63 1 28 57
M  V30 64 1 29 58
M  V30 65 1 31 59
M  V30 66 1 33 60
M  V30 67 1 35 61
M  V30 END BOND
M  V30 END CTAB
M  END
>  <Dataset>  (763) 
ChEMBL_Kinases

>  <Ligand_Instance>  (763) 
nan

>  <PDB_ID>  (763) 
nan

>  <Standardized_SMILES>  (763) 
Nc1ncc(-c2cnn(C3CCNCC3)c2)cc1-c1nc2ccc(O)c(-c3ccc4cn[nH]c4c3)c2o1

>  <Name>  (763) 
nan

>  <Pocket>  (763) 
nan

>  <ATP_Site>  (763) 
nan

>  <Peripheral>  (763) 
nan

>  <Num_H_Atoms_ProtBoundConf>  (763) 
nan

>  <Num_Resolved_Atoms>  (763) 
nan

>  <Num_Not_Resolved_Atoms>  (763) 
nan

$$$$
CHEMBL3681193
     RDKit          3D

  0  0  0  0  0  0  0  0  0  0999 V3000
M  V30 BEGIN CTAB
M  V30 COUNTS 46 49 0 0 0
M  V30 BEGIN ATOM
M  V30 1 N 1.716205 -2.720094 3.780342 0
M  V30 2 C 2.635873 -1.911562 3.057684 0
M  V30 3 N 3.953854 -2.203186 3.126946 0
M  V30 4 C 4.783617 -1.391618 2.412436 0
M  V30 5 N 4.355875 -0.339177 1.660299 0
M  V30 6 N 3.068431 -0.041397 1.582805 0
M  V30 7 C 2.347028 0.904334 0.946131 0
M  V30 8 C 2.889107 1.954928 0.083149 0
M  V30 9 C 3.858950 1.682703 -0.882707 0
M  V30 10 C 4.338984 2.707387 -1.672039 0
M  V30 11 N 3.910504 3.974972 -1.553343 0
M  V30 12 C 2.967646 4.288907 -0.627609 0
M  V30 13 F 2.486940 5.565659 -0.455285 0
M  V30 14 C 2.456023 3.279605 0.191445 0
M  V30 15 C 0.998827 0.699831 1.258370 0
M  V30 16 C 0.942474 -0.402118 2.104307 0
M  V30 17 C -0.368268 -0.838686 2.588884 0
M  V30 18 O -0.851007 -0.939559 3.762713 0
M  V30 19 N -1.318486 -1.236797 1.584135 0
M  V30 20 C -2.674863 -1.716719 1.616613 0 CFG=1
M  V30 21 C -3.614807 -0.806437 0.853532 0
M  V30 22 C -3.169353 -0.670628 -0.578423 0
M  V30 23 C -2.936690 -1.988152 -1.242167 0 CFG=2
M  V30 24 O -3.560009 -1.997281 -2.483894 0
M  V30 25 C -3.407256 -3.108933 -0.359625 0
M  V30 26 C -2.715206 -3.069371 0.961957 0
M  V30 27 C 2.244044 -0.839105 2.286150 0
M  V30 28 H 1.383283 -2.602841 4.763006 0
M  V30 29 H 1.159511 -3.572057 3.580300 0
M  V30 30 H 5.870032 -1.530604 2.392376 0
M  V30 31 H 4.163110 0.645450 -0.930113 0
M  V30 32 H 5.078356 2.467248 -2.399613 0
M  V30 33 H 1.695820 3.482994 0.951214 0
M  V30 34 H 0.221496 1.338711 0.861903 0
M  V30 35 H -1.042492 -1.200249 0.563170 0
M  V30 36 H -3.054673 -1.785396 2.666452 0
M  V30 37 H -4.639256 -1.185322 0.947477 0
M  V30 38 H -3.561599 0.215444 1.322317 0
M  V30 39 H -2.250811 -0.032438 -0.601318 0
M  V30 40 H -3.934336 -0.059667 -1.124171 0
M  V30 41 H -1.851923 -2.196769 -1.464623 0
M  V30 42 H -3.115415 -1.322405 -3.053337 0
M  V30 43 H -4.507852 -3.187011 -0.277193 0
M  V30 44 H -3.097982 -4.084760 -0.836438 0
M  V30 45 H -3.286589 -3.774356 1.632691 0
M  V30 46 H -1.678818 -3.499949 0.890999 0
M  V30 END ATOM
M  V30 BEGIN BOND
M  V30 1 1 1 2
M  V30 2 2 2 3
M  V30 3 1 3 4
M  V30 4 2 4 5
M  V30 5 1 5 6
M  V30 6 1 6 7
M  V30 7 1 7 8
M  V30 8 2 8 9
M  V30 9 1 9 10
M  V30 10 2 10 11
M  V30 11 1 11 12
M  V30 12 1 12 13
M  V30 13 2 12 14
M  V30 14 2 7 15
M  V30 15 1 15 16
M  V30 16 1 16 17
M  V30 17 2 17 18
M  V30 18 1 17 19
M  V30 19 1 19 20
M  V30 20 1 20 21
M  V30 21 1 21 22
M  V30 22 1 22 23
M  V30 23 1 23 24
M  V30 24 1 23 25
M  V30 25 1 25 26
M  V30 26 2 16 27
M  V30 27 1 27 2
M  V30 28 1 27 6
M  V30 29 1 14 8
M  V30 30 1 26 20
M  V30 31 1 1 28
M  V30 32 1 1 29
M  V30 33 1 4 30
M  V30 34 1 9 31
M  V30 35 1 10 32
M  V30 36 1 14 33
M  V30 37 1 15 34
M  V30 38 1 19 35
M  V30 39 1 20 36 CFG=1
M  V30 40 1 21 37
M  V30 41 1 21 38
M  V30 42 1 22 39
M  V30 43 1 22 40
M  V30 44 1 23 41 CFG=3
M  V30 45 1 24 42
M  V30 46 1 25 43
M  V30 47 1 25 44
M  V30 48 1 26 45
M  V30 49 1 26 46
M  V30 END BOND
M  V30 END CTAB
M  END
>  <Dataset>  (764) 
ChEMBL_Kinases

>  <Ligand_Instance>  (764) 
nan

>  <PDB_ID>  (764) 
nan

>  <Standardized_SMILES>  (764) 
Nc1ncnn2c(-c3ccnc(F)c3)cc(C(=O)N[C@H]3CC[C@H](O)CC3)c12

>  <Name>  (764) 
nan

>  <Pocket>  (764) 
nan

>  <ATP_Site>  (764) 
nan

>  <Peripheral>  (764) 
nan

>  <Num_H_Atoms_ProtBoundConf>  (764) 
nan

>  <Num_Resolved_Atoms>  (764) 
nan

>  <Num_Not_Resolved_Atoms>  (764) 
nan

$$$$
CHEMBL4283474
     RDKit          3D

  0  0  0  0  0  0  0  0  0  0999 V3000
M  V30 BEGIN CTAB
M  V30 COUNTS 41 44 0 0 0
M  V30 BEGIN ATOM
M  V30 1 O 1.096266 -3.318661 1.986657 0
M  V30 2 C 0.593612 -4.195976 1.199515 0
M  V30 3 N 0.650022 -3.660228 -0.102829 0
M  V30 4 C 1.228247 -2.365042 -0.108271 0
M  V30 5 C 2.597702 -2.279727 -0.266575 0
M  V30 6 N 3.108605 -1.034290 -0.265631 0
M  V30 7 C 2.353642 0.076691 -0.121159 0
M  V30 8 C 0.980992 -0.046984 0.035591 0
M  V30 9 C 0.159112 1.149777 0.192900 0
M  V30 10 C 0.535838 2.439770 0.214336 0
M  V30 11 C -0.406679 3.422739 0.375815 0
M  V30 12 C -0.100960 4.857384 0.413204 0
M  V30 13 C 0.959861 5.334179 -0.334230 0
M  V30 14 C 1.282935 6.696864 -0.319571 0
M  V30 15 C 0.491092 7.529715 0.474893 0
M  V30 16 N -0.548859 7.033905 1.201966 0
M  V30 17 C -0.852462 5.721082 1.181754 0
M  V30 18 C -1.753600 3.011835 0.513684 0
M  V30 19 S -1.585506 1.126174 0.397508 0
M  V30 20 C 0.376875 -1.286357 0.046028 0
M  V30 21 C 0.088218 -5.463995 1.635469 0
M  V30 22 C -0.473694 -6.504578 0.934491 0
M  V30 23 F -0.561300 -6.287082 -0.397328 0
M  V30 24 C -0.918044 -7.668623 1.478185 0
M  V30 25 C -0.823664 -7.878458 2.833731 0
M  V30 26 F -1.260021 -9.029970 3.393408 0
M  V30 27 C -0.266823 -6.862963 3.578721 0
M  V30 28 C 0.179007 -5.689903 3.017137 0
M  V30 29 F 0.716643 -4.749595 3.865611 0
M  V30 30 H 0.270451 -4.262600 -0.887691 0
M  V30 31 H 3.192952 -3.176292 -0.381628 0
M  V30 32 H 2.832723 1.049754 -0.129785 0
M  V30 33 H 1.585775 2.676132 0.102372 0
M  V30 34 H 1.549143 4.679785 -0.932341 0
M  V30 35 H 2.104120 7.110825 -0.889125 0
M  V30 36 H 0.682474 8.599702 0.535965 0
M  V30 37 H -1.676970 5.344499 1.761189 0
M  V30 38 H -2.624102 3.655780 0.649170 0
M  V30 39 H -0.689244 -1.425836 0.165637 0
M  V30 40 H -1.340945 -8.423664 0.859930 0
M  V30 41 H -0.180598 -7.001819 4.646381 0
M  V30 END ATOM
M  V30 BEGIN BOND
M  V30 1 2 1 2
M  V30 2 1 2 3
M  V30 3 1 3 4
M  V30 4 2 4 5
M  V30 5 1 5 6
M  V30 6 2 6 7
M  V30 7 1 7 8
M  V30 8 1 8 9
M  V30 9 2 9 10
M  V30 10 1 10 11
M  V30 11 1 11 12
M  V30 12 2 12 13
M  V30 13 1 13 14
M  V30 14 2 14 15
M  V30 15 1 15 16
M  V30 16 2 16 17
M  V30 17 2 11 18
M  V30 18 1 18 19
M  V30 19 2 8 20
M  V30 20 1 2 21
M  V30 21 2 21 22
M  V30 22 1 22 23
M  V30 23 1 22 24
M  V30 24 2 24 25
M  V30 25 1 25 26
M  V30 26 1 25 27
M  V30 27 2 27 28
M  V30 28 1 28 29
M  V30 29 1 20 4
M  V30 30 1 28 21
M  V30 31 1 19 9
M  V30 32 1 17 12
M  V30 33 1 3 30
M  V30 34 1 5 31
M  V30 35 1 7 32
M  V30 36 1 10 33
M  V30 37 1 13 34
M  V30 38 1 14 35
M  V30 39 1 15 36
M  V30 40 1 17 37
M  V30 41 1 18 38
M  V30 42 1 20 39
M  V30 43 1 24 40
M  V30 44 1 27 41
M  V30 END BOND
M  V30 END CTAB
M  END
>  <Dataset>  (765) 
ChEMBL_Kinases

>  <Ligand_Instance>  (765) 
nan

>  <PDB_ID>  (765) 
nan

>  <Standardized_SMILES>  (765) 
O=C(Nc1cncc(-c2cc(-c3cccnc3)cs2)c1)c1c(F)cc(F)cc1F

>  <Name>  (765) 
nan

>  <Pocket>  (765) 
nan

>  <ATP_Site>  (765) 
nan

>  <Peripheral>  (765) 
nan

>  <Num_H_Atoms_ProtBoundConf>  (765) 
nan

>  <Num_Resolved_Atoms>  (765) 
nan

>  <Num_Not_Resolved_Atoms>  (765) 
nan

$$$$
CHEMBL3093257
     RDKit          3D

  0  0  0  0  0  0  0  0  0  0999 V3000
M  V30 BEGIN CTAB
M  V30 COUNTS 64 70 0 0 0
M  V30 BEGIN ATOM
M  V30 1 C 3.374175 -1.918783 6.679223 0
M  V30 2 O 2.721523 -1.646914 5.463599 0
M  V30 3 C 3.290681 -1.708600 4.217580 0
M  V30 4 C 4.604950 -2.045892 3.902900 0
M  V30 5 C 5.042976 -2.066633 2.594441 0
M  V30 6 C 4.212112 -1.756728 1.523478 0
M  V30 7 N 4.312400 -1.681976 0.180076 0
M  V30 8 C 3.116102 -1.317062 -0.294102 0
M  V30 9 C 2.745540 -1.108754 -1.691024 0
M  V30 10 C 1.459490 -0.730533 -2.016888 0
M  V30 11 C 1.033481 -0.514348 -3.317191 0
M  V30 12 C -0.357391 -0.115384 -3.542415 0
M  V30 13 C -0.874056 0.678605 -4.538188 0
M  V30 14 N -2.184798 0.744674 -4.312632 0
M  V30 15 N -2.526221 0.047761 -3.245233 0
M  V30 16 C -3.790043 -0.211790 -2.571498 0
M  V30 17 C -3.687618 0.238901 -1.130019 0
M  V30 18 C -4.915443 -0.273913 -0.425411 0
M  V30 19 N -5.867148 -0.856563 -1.328267 0
M  V30 20 C -6.191980 0.013016 -2.449220 0
M  V30 21 C -4.949681 0.489097 -3.190816 0
M  V30 22 C -1.407719 -0.522305 -2.712246 0
M  V30 23 C 1.995959 -0.704964 -4.285600 0
M  V30 24 N 3.246948 -1.073867 -3.955711 0
M  V30 25 C 3.670648 -1.286291 -2.696775 0
M  V30 26 N 5.014727 -1.677509 -2.408056 0
M  V30 27 O 2.317773 -1.176229 0.737670 0
M  V30 28 C 2.926070 -1.429636 1.870154 0
M  V30 29 C 2.420644 -1.389836 3.171835 0
M  V30 30 C 1.003964 -1.015111 3.363336 0
M  V30 31 C -0.054325 -1.930848 3.379769 0
M  V30 32 C -1.342426 -1.420861 3.571702 0
M  V30 33 C -1.555144 -0.072318 3.737143 0
M  V30 34 C -2.731090 0.658050 3.940327 0
M  V30 35 N -2.309196 1.940551 4.030915 0
M  V30 36 N -1.009376 2.039707 3.902202 0
M  V30 37 C -0.513731 0.805893 3.718570 0
M  V30 38 C 0.785305 0.346529 3.530836 0
M  V30 39 H 2.667126 -2.301052 7.457667 0
M  V30 40 H 3.871941 -1.008779 7.039216 0
M  V30 41 H 4.071210 -2.770626 6.496653 0
M  V30 42 H 5.230552 -2.281192 4.736169 0
M  V30 43 H 6.069963 -2.331696 2.368823 0
M  V30 44 H 0.745478 -0.596108 -1.206535 0
M  V30 45 H -0.317139 1.149003 -5.338145 0
M  V30 46 H -4.000772 -1.306763 -2.575641 0
M  V30 47 H -3.730874 1.360388 -1.143500 0
M  V30 48 H -2.735413 -0.057602 -0.646810 0
M  V30 49 H -4.580515 -1.111380 0.247559 0
M  V30 50 H -5.351330 0.480881 0.265930 0
M  V30 51 H -6.760105 -1.017811 -0.828636 0
M  V30 52 H -6.777594 -0.599794 -3.175449 0
M  V30 53 H -6.858479 0.839928 -2.144462 0
M  V30 54 H -5.040187 0.346001 -4.289049 0
M  V30 55 H -4.905030 1.596947 -2.981373 0
M  V30 56 H -1.279888 -1.169057 -1.829932 0
M  V30 57 H 1.677374 -0.539175 -5.312239 0
M  V30 58 H 5.747413 -1.035999 -2.067288 0
M  V30 59 H 5.006772 -2.710505 -2.631694 0
M  V30 60 H 0.199835 -2.969712 3.242532 0
M  V30 61 H -2.151238 -2.147766 3.581585 0
M  V30 62 H -3.716255 0.219643 3.999254 0
M  V30 63 H -0.495164 2.963421 3.944871 0
M  V30 64 H 1.594703 1.064288 3.519742 0
M  V30 END ATOM
M  V30 BEGIN BOND
M  V30 1 1 1 2
M  V30 2 1 2 3
M  V30 3 2 3 4
M  V30 4 1 4 5
M  V30 5 2 5 6
M  V30 6 1 6 7
M  V30 7 2 7 8
M  V30 8 1 8 9
M  V30 9 2 9 10
M  V30 10 1 10 11
M  V30 11 1 11 12
M  V30 12 1 12 13
M  V30 13 2 13 14
M  V30 14 1 14 15
M  V30 15 1 15 16
M  V30 16 1 16 17
M  V30 17 1 17 18
M  V30 18 1 18 19
M  V30 19 1 19 20
M  V30 20 1 20 21
M  V30 21 1 15 22
M  V30 22 2 11 23
M  V30 23 1 23 24
M  V30 24 2 24 25
M  V30 25 1 25 26
M  V30 26 1 8 27
M  V30 27 1 27 28
M  V30 28 2 28 29
M  V30 29 1 29 30
M  V30 30 2 30 31
M  V30 31 1 31 32
M  V30 32 2 32 33
M  V30 33 1 33 34
M  V30 34 2 34 35
M  V30 35 1 35 36
M  V30 36 1 36 37
M  V30 37 2 37 38
M  V30 38 1 29 3
M  V30 39 1 38 30
M  V30 40 1 28 6
M  V30 41 1 37 33
M  V30 42 1 25 9
M  V30 43 2 22 12
M  V30 44 1 21 16
M  V30 45 1 1 39
M  V30 46 1 1 40
M  V30 47 1 1 41
M  V30 48 1 4 42
M  V30 49 1 5 43
M  V30 50 1 10 44
M  V30 51 1 13 45
M  V30 52 1 16 46
M  V30 53 1 17 47
M  V30 54 1 17 48
M  V30 55 1 18 49
M  V30 56 1 18 50
M  V30 57 1 19 51
M  V30 58 1 20 52
M  V30 59 1 20 53
M  V30 60 1 21 54
M  V30 61 1 21 55
M  V30 62 1 22 56
M  V30 63 1 23 57
M  V30 64 1 26 58
M  V30 65 1 26 59
M  V30 66 1 31 60
M  V30 67 1 32 61
M  V30 68 1 34 62
M  V30 69 1 36 63
M  V30 70 1 38 64
M  V30 END BOND
M  V30 END CTAB
M  END
>  <Dataset>  (766) 
ChEMBL_Kinases

>  <Ligand_Instance>  (766) 
nan

>  <PDB_ID>  (766) 
nan

>  <Standardized_SMILES>  (766) 
COc1ccc2nc(-c3cc(-c4cnn(C5CCNCC5)c4)cnc3N)oc2c1-c1ccc2cn[nH]c2c1

>  <Name>  (766) 
nan

>  <Pocket>  (766) 
nan

>  <ATP_Site>  (766) 
nan

>  <Peripheral>  (766) 
nan

>  <Num_H_Atoms_ProtBoundConf>  (766) 
nan

>  <Num_Resolved_Atoms>  (766) 
nan

>  <Num_Not_Resolved_Atoms>  (766) 
nan

$$$$
CHEMBL3093258
     RDKit          3D

  0  0  0  0  0  0  0  0  0  0999 V3000
M  V30 BEGIN CTAB
M  V30 COUNTS 62 67 0 0 0
M  V30 BEGIN ATOM
M  V30 1 N -0.531284 -2.606486 5.237298 0
M  V30 2 C 0.281129 -1.583666 4.673713 0
M  V30 3 N 1.081024 -0.846205 5.465801 0
M  V30 4 C 1.876074 0.142846 4.973076 0
M  V30 5 C 1.875956 0.413896 3.617573 0
M  V30 6 C 2.675731 1.440497 2.955073 0
M  V30 7 C 3.925037 1.937933 3.260316 0
M  V30 8 N 4.222635 2.872963 2.342098 0
M  V30 9 N 3.236506 2.998829 1.472070 0
M  V30 10 C 3.445238 3.983942 0.427759 0
M  V30 11 C 3.908100 5.279323 1.042460 0
M  V30 12 C 2.896934 5.787840 2.036556 0
M  V30 13 N 1.543347 5.617019 1.604880 0
M  V30 14 C 1.426687 5.448636 0.168179 0
M  V30 15 C 2.169467 4.243657 -0.327717 0
M  V30 16 C 2.273191 2.127957 1.828198 0
M  V30 17 C 1.029778 -0.377263 2.834704 0
M  V30 18 C 0.216452 -1.383495 3.310699 0
M  V30 19 C -0.629417 -2.152371 2.404802 0
M  V30 20 N -0.695393 -1.955744 1.055102 0
M  V30 21 C -1.585012 -2.856407 0.558839 0
M  V30 22 C -2.064274 -3.142543 -0.701543 0
M  V30 23 C -2.986567 -4.127334 -0.962720 0
M  V30 24 N -3.470213 -4.415683 -2.263806 0
M  V30 25 C -3.064892 -3.802287 -3.486346 0
M  V30 26 C -2.531991 -4.784385 -4.502110 0
M  V30 27 C -3.219684 -6.108259 -4.510864 0
M  V30 28 C -3.700386 -6.578624 -3.165825 0
M  V30 29 C -4.481934 -5.409781 -2.549110 0
M  V30 30 C -3.407351 -4.823051 0.146362 0
M  V30 31 C -2.944531 -4.557425 1.417679 0
M  V30 32 C -2.029170 -3.574611 1.649759 0
M  V30 33 O -1.434359 -3.122732 2.731051 0
M  V30 34 H -0.064865 -3.552470 5.214735 0
M  V30 35 H -1.381103 -2.066024 5.510630 0
M  V30 36 H 2.534421 0.764072 5.553485 0
M  V30 37 H 4.493753 1.584825 4.102515 0
M  V30 38 H 4.214394 3.654900 -0.300336 0
M  V30 39 H 4.854424 5.074613 1.610867 0
M  V30 40 H 4.059080 6.046843 0.279119 0
M  V30 41 H 2.988501 5.312172 3.039160 0
M  V30 42 H 3.116889 6.883717 2.186949 0
M  V30 43 H 1.076226 4.785506 2.053847 0
M  V30 44 H 0.349234 5.314211 -0.058278 0
M  V30 45 H 1.734295 6.376881 -0.370102 0
M  V30 46 H 2.396693 4.443099 -1.412227 0
M  V30 47 H 1.477450 3.384756 -0.325632 0
M  V30 48 H 1.387406 2.084310 1.236936 0
M  V30 49 H 1.014590 -0.179408 1.760970 0
M  V30 50 H -1.657596 -2.531066 -1.466210 0
M  V30 51 H -2.256041 -3.078416 -3.300246 0
M  V30 52 H -3.924558 -3.242956 -3.947292 0
M  V30 53 H -1.412752 -4.887709 -4.438296 0
M  V30 54 H -2.705791 -4.316517 -5.514612 0
M  V30 55 H -2.484588 -6.861470 -4.885709 0
M  V30 56 H -4.071622 -6.153975 -5.214976 0
M  V30 57 H -4.324114 -7.469295 -3.320307 0
M  V30 58 H -2.842253 -6.745891 -2.461879 0
M  V30 59 H -5.224720 -5.071851 -3.316988 0
M  V30 60 H -5.048762 -5.726163 -1.673185 0
M  V30 61 H -4.126384 -5.625869 0.105731 0
M  V30 62 H -3.280214 -5.110050 2.291034 0
M  V30 END ATOM
M  V30 BEGIN BOND
M  V30 1 1 1 2
M  V30 2 2 2 3
M  V30 3 1 3 4
M  V30 4 2 4 5
M  V30 5 1 5 6
M  V30 6 1 6 7
M  V30 7 2 7 8
M  V30 8 1 8 9
M  V30 9 1 9 10
M  V30 10 1 10 11
M  V30 11 1 11 12
M  V30 12 1 12 13
M  V30 13 1 13 14
M  V30 14 1 14 15
M  V30 15 1 9 16
M  V30 16 1 5 17
M  V30 17 2 17 18
M  V30 18 1 18 19
M  V30 19 2 19 20
M  V30 20 1 20 21
M  V30 21 2 21 22
M  V30 22 1 22 23
M  V30 23 1 23 24
M  V30 24 1 24 25
M  V30 25 1 25 26
M  V30 26 1 26 27
M  V30 27 1 27 28
M  V30 28 1 28 29
M  V30 29 2 23 30
M  V30 30 1 30 31
M  V30 31 2 31 32
M  V30 32 1 32 33
M  V30 33 1 18 2
M  V30 34 1 33 19
M  V30 35 2 16 6
M  V30 36 1 32 21
M  V30 37 1 15 10
M  V30 38 1 29 24
M  V30 39 1 1 34
M  V30 40 1 1 35
M  V30 41 1 4 36
M  V30 42 1 7 37
M  V30 43 1 10 38
M  V30 44 1 11 39
M  V30 45 1 11 40
M  V30 46 1 12 41
M  V30 47 1 12 42
M  V30 48 1 13 43
M  V30 49 1 14 44
M  V30 50 1 14 45
M  V30 51 1 15 46
M  V30 52 1 15 47
M  V30 53 1 16 48
M  V30 54 1 17 49
M  V30 55 1 22 50
M  V30 56 1 25 51
M  V30 57 1 25 52
M  V30 58 1 26 53
M  V30 59 1 26 54
M  V30 60 1 27 55
M  V30 61 1 27 56
M  V30 62 1 28 57
M  V30 63 1 28 58
M  V30 64 1 29 59
M  V30 65 1 29 60
M  V30 66 1 30 61
M  V30 67 1 31 62
M  V30 END BOND
M  V30 END CTAB
M  END
>  <Dataset>  (767) 
ChEMBL_Kinases

>  <Ligand_Instance>  (767) 
nan

>  <PDB_ID>  (767) 
nan

>  <Standardized_SMILES>  (767) 
Nc1ncc(-c2cnn(C3CCNCC3)c2)cc1-c1nc2cc(N3CCCCC3)ccc2o1

>  <Name>  (767) 
nan

>  <Pocket>  (767) 
nan

>  <ATP_Site>  (767) 
nan

>  <Peripheral>  (767) 
nan

>  <Num_H_Atoms_ProtBoundConf>  (767) 
nan

>  <Num_Resolved_Atoms>  (767) 
nan

>  <Num_Not_Resolved_Atoms>  (767) 
nan

$$$$
CHEMBL3093259
     RDKit          3D

  0  0  0  0  0  0  0  0  0  0999 V3000
M  V30 BEGIN CTAB
M  V30 COUNTS 60 65 0 0 0
M  V30 BEGIN ATOM
M  V30 1 N -1.202167 -2.570136 5.080979 0
M  V30 2 C -0.139801 -1.773527 4.581564 0
M  V30 3 N 0.753468 -1.210682 5.414941 0
M  V30 4 C 1.781047 -0.442561 4.957721 0
M  V30 5 C 1.927791 -0.222326 3.595912 0
M  V30 6 C 2.986491 0.579872 2.989260 0
M  V30 7 C 4.290299 0.781782 3.396926 0
M  V30 8 N 4.860543 1.613853 2.482987 0
M  V30 9 N 3.988471 1.934088 1.541563 0
M  V30 10 C 4.340232 2.814376 0.438889 0
M  V30 11 C 4.817556 4.096210 1.063174 0
M  V30 12 C 3.672676 4.944967 1.570149 0
M  V30 13 N 2.842397 5.230217 0.444299 0
M  V30 14 C 2.242721 4.080183 -0.179238 0
M  V30 15 C 3.184951 2.969503 -0.481929 0
M  V30 16 C 2.830752 1.312140 1.829641 0
M  V30 17 C 0.992355 -0.815125 2.763202 0
M  V30 18 C -0.051319 -1.594438 3.216730 0
M  V30 19 C -0.987459 -2.178516 2.261951 0
M  V30 20 N -0.936218 -2.026453 0.905838 0
M  V30 21 C -1.976507 -2.720292 0.368017 0
M  V30 22 C -2.386463 -2.900654 -0.937029 0
M  V30 23 C -3.497258 -3.666435 -1.219871 0
M  V30 24 N -4.015452 -3.923756 -2.518440 0
M  V30 25 C -5.166112 -4.736297 -2.852920 0
M  V30 26 C -4.881519 -5.460409 -4.175974 0
M  V30 27 O -3.496264 -5.744952 -4.196749 0
M  V30 28 C -2.879320 -4.555227 -4.601208 0
M  V30 29 C -3.512772 -3.433571 -3.786738 0
M  V30 30 C -4.195308 -4.250932 -0.184094 0
M  V30 31 C -3.770194 -4.060252 1.126369 0
M  V30 32 C -2.650922 -3.291060 1.438506 0
M  V30 33 O -2.021564 -2.937047 2.534423 0
M  V30 34 H -1.091237 -3.586146 4.819587 0
M  V30 35 H -1.949839 -2.084081 5.631636 0
M  V30 36 H 2.516621 0.023638 5.609502 0
M  V30 37 H 4.738841 0.339500 4.288345 0
M  V30 38 H 5.212125 2.349071 -0.066698 0
M  V30 39 H 5.500866 3.903305 1.908370 0
M  V30 40 H 5.369212 4.713491 0.325766 0
M  V30 41 H 3.145173 4.531736 2.432655 0
M  V30 42 H 4.139493 5.921085 1.870534 0
M  V30 43 H 3.335040 5.853002 -0.223847 0
M  V30 44 H 1.724219 4.439280 -1.093217 0
M  V30 45 H 1.420568 3.745222 0.510070 0
M  V30 46 H 3.606452 3.138909 -1.513921 0
M  V30 47 H 2.611987 2.022383 -0.563888 0
M  V30 48 H 1.942174 1.379519 1.250592 0
M  V30 49 H 1.076911 -0.663061 1.680653 0
M  V30 50 H -1.859024 -2.455774 -1.758040 0
M  V30 51 H -5.436691 -5.486627 -2.114040 0
M  V30 52 H -6.044416 -4.085821 -3.017634 0
M  V30 53 H -5.068681 -4.812410 -5.055374 0
M  V30 54 H -5.456676 -6.411265 -4.231243 0
M  V30 55 H -3.104924 -4.377343 -5.688959 0
M  V30 56 H -1.794541 -4.643100 -4.432256 0
M  V30 57 H -4.283715 -2.896229 -4.381269 0
M  V30 58 H -2.717289 -2.698089 -3.584601 0
M  V30 59 H -5.072970 -4.872691 -0.210324 0
M  V30 60 H -4.248138 -4.475010 2.003623 0
M  V30 END ATOM
M  V30 BEGIN BOND
M  V30 1 1 1 2
M  V30 2 2 2 3
M  V30 3 1 3 4
M  V30 4 2 4 5
M  V30 5 1 5 6
M  V30 6 1 6 7
M  V30 7 2 7 8
M  V30 8 1 8 9
M  V30 9 1 9 10
M  V30 10 1 10 11
M  V30 11 1 11 12
M  V30 12 1 12 13
M  V30 13 1 13 14
M  V30 14 1 14 15
M  V30 15 1 9 16
M  V30 16 1 5 17
M  V30 17 2 17 18
M  V30 18 1 18 19
M  V30 19 2 19 20
M  V30 20 1 20 21
M  V30 21 2 21 22
M  V30 22 1 22 23
M  V30 23 1 23 24
M  V30 24 1 24 25
M  V30 25 1 25 26
M  V30 26 1 26 27
M  V30 27 1 27 28
M  V30 28 1 28 29
M  V30 29 2 23 30
M  V30 30 1 30 31
M  V30 31 2 31 32
M  V30 32 1 32 33
M  V30 33 1 18 2
M  V30 34 1 33 19
M  V30 35 2 16 6
M  V30 36 1 32 21
M  V30 37 1 15 10
M  V30 38 1 29 24
M  V30 39 1 1 34
M  V30 40 1 1 35
M  V30 41 1 4 36
M  V30 42 1 7 37
M  V30 43 1 10 38
M  V30 44 1 11 39
M  V30 45 1 11 40
M  V30 46 1 12 41
M  V30 47 1 12 42
M  V30 48 1 13 43
M  V30 49 1 14 44
M  V30 50 1 14 45
M  V30 51 1 15 46
M  V30 52 1 15 47
M  V30 53 1 16 48
M  V30 54 1 17 49
M  V30 55 1 22 50
M  V30 56 1 25 51
M  V30 57 1 25 52
M  V30 58 1 26 53
M  V30 59 1 26 54
M  V30 60 1 28 55
M  V30 61 1 28 56
M  V30 62 1 29 57
M  V30 63 1 29 58
M  V30 64 1 30 59
M  V30 65 1 31 60
M  V30 END BOND
M  V30 END CTAB
M  END
>  <Dataset>  (768) 
ChEMBL_Kinases

>  <Ligand_Instance>  (768) 
nan

>  <PDB_ID>  (768) 
nan

>  <Standardized_SMILES>  (768) 
Nc1ncc(-c2cnn(C3CCNCC3)c2)cc1-c1nc2cc(N3CCOCC3)ccc2o1

>  <Name>  (768) 
nan

>  <Pocket>  (768) 
nan

>  <ATP_Site>  (768) 
nan

>  <Peripheral>  (768) 
nan

>  <Num_H_Atoms_ProtBoundConf>  (768) 
nan

>  <Num_Resolved_Atoms>  (768) 
nan

>  <Num_Not_Resolved_Atoms>  (768) 
nan

$$$$
CHEMBL3731262
     RDKit          3D

  0  0  0  0  0  0  0  0  0  0999 V3000
M  V30 BEGIN CTAB
M  V30 COUNTS 50 52 0 0 0
M  V30 BEGIN ATOM
M  V30 1 C 0.432718 -3.746394 -1.784198 0
M  V30 2 C 1.622654 -3.767428 -0.953498 0
M  V30 3 N 2.254395 -2.617926 -1.075086 0
M  V30 4 N 1.780987 -1.623244 -1.887328 0
M  V30 5 C 2.010912 -0.823183 -3.051418 0
M  V30 6 O 3.095616 -1.074241 -3.666310 0
M  V30 7 C 1.031975 0.218978 -3.500382 0
M  V30 8 N -0.057197 0.308510 -2.494601 0
M  V30 9 C 0.404447 1.025301 -1.381540 0
M  V30 10 C 1.642324 1.566749 -1.180108 0
M  V30 11 C 2.037318 2.244137 -0.051365 0
M  V30 12 C 1.141865 2.424472 1.010892 0
M  V30 13 C -0.105505 1.891945 0.832681 0
M  V30 14 O -1.094856 1.986820 1.789293 0
M  V30 15 C -0.975455 2.618876 3.043157 0
M  V30 16 C -2.285699 2.498569 3.778184 0
M  V30 17 C -2.643871 1.443290 4.618487 0
M  V30 18 C -3.875275 1.466547 5.224647 0
M  V30 19 C -4.788726 2.474792 5.056104 0
M  V30 20 C -4.474645 3.557636 4.221447 0
M  V30 21 C -3.234316 3.505846 3.628537 0
M  V30 22 C -0.474424 1.210815 -0.323422 0
M  V30 23 C 2.098285 -4.858624 -0.136926 0
M  V30 24 C 1.332230 -6.029265 -0.078998 0
M  V30 25 C 1.773926 -7.106468 0.682732 0
M  V30 26 N 2.937576 -7.081372 1.391146 0
M  V30 27 C 3.676189 -5.929981 1.325414 0
M  V30 28 C 3.270388 -4.842592 0.581148 0
M  V30 29 H -0.372479 -3.193601 -1.217151 0
M  V30 30 H 0.502830 -3.204863 -2.741380 0
M  V30 31 H 0.003071 -4.728679 -2.022318 0
M  V30 32 H 0.800577 -1.362164 -1.525164 0
M  V30 33 H 1.465656 1.168585 -3.755505 0
M  V30 34 H 0.544244 -0.205690 -4.398822 0
M  V30 35 H -1.022370 -0.078910 -2.551203 0
M  V30 36 H 2.364656 1.447445 -1.975356 0
M  V30 37 H 3.032213 2.624514 -0.007621 0
M  V30 38 H 1.411737 2.942026 1.899799 0
M  V30 39 H -0.178220 2.132697 3.643560 0
M  V30 40 H -0.804220 3.685600 2.857025 0
M  V30 41 H -1.888423 0.691845 4.706170 0
M  V30 42 H -4.117837 0.624954 5.874642 0
M  V30 43 H -5.747522 2.463893 5.547555 0
M  V30 44 H -5.157316 4.355475 4.067132 0
M  V30 45 H -3.014240 4.361055 2.981974 0
M  V30 46 H -1.482334 0.802259 -0.422222 0
M  V30 47 H 0.379840 -6.149823 -0.611454 0
M  V30 48 H 1.171294 -8.010503 0.722348 0
M  V30 49 H 4.585447 -5.992469 1.912580 0
M  V30 50 H 3.891082 -3.957649 0.565987 0
M  V30 END ATOM
M  V30 BEGIN BOND
M  V30 1 1 1 2
M  V30 2 2 2 3
M  V30 3 1 3 4
M  V30 4 1 4 5
M  V30 5 2 5 6
M  V30 6 1 5 7
M  V30 7 1 7 8
M  V30 8 1 8 9
M  V30 9 2 9 10
M  V30 10 1 10 11
M  V30 11 2 11 12
M  V30 12 1 12 13
M  V30 13 1 13 14
M  V30 14 1 14 15
M  V30 15 1 15 16
M  V30 16 2 16 17
M  V30 17 1 17 18
M  V30 18 2 18 19
M  V30 19 1 19 20
M  V30 20 2 20 21
M  V30 21 2 13 22
M  V30 22 1 2 23
M  V30 23 2 23 24
M  V30 24 1 24 25
M  V30 25 2 25 26
M  V30 26 1 26 27
M  V30 27 2 27 28
M  V30 28 1 22 9
M  V30 29 1 28 23
M  V30 30 1 21 16
M  V30 31 1 1 29
M  V30 32 1 1 30
M  V30 33 1 1 31
M  V30 34 1 4 32
M  V30 35 1 7 33
M  V30 36 1 7 34
M  V30 37 1 8 35
M  V30 38 1 10 36
M  V30 39 1 11 37
M  V30 40 1 12 38
M  V30 41 1 15 39
M  V30 42 1 15 40
M  V30 43 1 17 41
M  V30 44 1 18 42
M  V30 45 1 19 43
M  V30 46 1 20 44
M  V30 47 1 21 45
M  V30 48 1 22 46
M  V30 49 1 24 47
M  V30 50 1 25 48
M  V30 51 1 27 49
M  V30 52 1 28 50
M  V30 END BOND
M  V30 END CTAB
M  END
>  <Dataset>  (769) 
ChEMBL_Kinases

>  <Ligand_Instance>  (769) 
nan

>  <PDB_ID>  (769) 
nan

>  <Standardized_SMILES>  (769) 
C/C(=N\NC(=O)CNc1cccc(OCc2ccccc2)c1)c1ccncc1

>  <Name>  (769) 
nan

>  <Pocket>  (769) 
nan

>  <ATP_Site>  (769) 
nan

>  <Peripheral>  (769) 
nan

>  <Num_H_Atoms_ProtBoundConf>  (769) 
nan

>  <Num_Resolved_Atoms>  (769) 
nan

>  <Num_Not_Resolved_Atoms>  (769) 
nan

$$$$
CHEMBL3093260
     RDKit          3D

  0  0  0  0  0  0  0  0  0  0999 V3000
M  V30 BEGIN CTAB
M  V30 COUNTS 59 64 0 0 0
M  V30 BEGIN ATOM
M  V30 1 N 0.034673 -3.729486 4.518263 0
M  V30 2 C 0.380287 -2.369270 4.276170 0
M  V30 3 N 0.770533 -1.599501 5.309806 0
M  V30 4 C 1.111904 -0.306105 5.153900 0
M  V30 5 C 1.061999 0.255605 3.893507 0
M  V30 6 C 1.424870 1.654764 3.683545 0
M  V30 7 C 2.399260 2.212508 4.499305 0
M  V30 8 N 2.532114 3.486851 4.094803 0
M  V30 9 N 1.720664 3.760833 3.097738 0
M  V30 10 C 1.528091 5.012875 2.349808 0
M  V30 11 C 2.238105 4.993013 1.042978 0
M  V30 12 C 1.370672 4.902951 -0.169480 0
M  V30 13 N 0.064190 4.384488 0.065972 0
M  V30 14 C -0.671082 5.034435 1.099751 0
M  V30 15 C 0.095809 5.413426 2.316514 0
M  V30 16 C 1.025065 2.639694 2.826547 0
M  V30 17 C 0.659523 -0.556689 2.859048 0
M  V30 18 C 0.302658 -1.890832 2.991412 0
M  V30 19 C -0.113922 -2.684775 1.841503 0
M  V30 20 N -0.231152 -2.336243 0.536804 0
M  V30 21 C -0.658201 -3.428323 -0.163743 0
M  V30 22 C -0.921513 -3.556107 -1.532057 0
M  V30 23 C -1.341350 -4.818410 -1.896823 0
M  V30 24 N -1.625909 -5.024909 -3.274937 0
M  V30 25 C -1.545714 -4.147668 -4.410232 0
M  V30 26 C -0.875118 -4.931831 -5.518508 0
M  V30 27 C -1.213572 -6.368637 -5.178831 0
M  V30 28 C -2.099503 -6.236208 -3.958903 0
M  V30 29 C -1.497233 -5.874609 -1.023626 0
M  V30 30 C -1.218646 -5.679696 0.321547 0
M  V30 31 C -0.790049 -4.438488 0.775228 0
M  V30 32 O -0.455493 -3.947921 1.950009 0
M  V30 33 H 0.861319 -4.346992 4.743740 0
M  V30 34 H -0.911277 -4.196133 4.503417 0
M  V30 35 H 1.417849 0.265425 6.018573 0
M  V30 36 H 2.991961 1.808142 5.315771 0
M  V30 37 H 2.044712 5.780918 3.000411 0
M  V30 38 H 2.876746 5.898900 0.933585 0
M  V30 39 H 2.927365 4.099229 1.061618 0
M  V30 40 H 1.249217 5.914610 -0.644334 0
M  V30 41 H 1.845988 4.277793 -0.957273 0
M  V30 42 H -0.072046 3.379205 -0.051329 0
M  V30 43 H -1.511326 4.330586 1.372261 0
M  V30 44 H -1.222405 5.908644 0.646850 0
M  V30 45 H -0.406450 5.029966 3.233638 0
M  V30 46 H 0.009247 6.535317 2.419568 0
M  V30 47 H 0.265718 2.399739 2.107900 0
M  V30 48 H 0.633918 -0.078708 1.884262 0
M  V30 49 H -0.796245 -2.732590 -2.190704 0
M  V30 50 H -2.578492 -3.882618 -4.737452 0
M  V30 51 H -0.956898 -3.221203 -4.234892 0
M  V30 52 H -1.288758 -4.719892 -6.523877 0
M  V30 53 H 0.213705 -4.823204 -5.513875 0
M  V30 54 H -1.824193 -6.838825 -5.976284 0
M  V30 55 H -0.305237 -6.974771 -4.952243 0
M  V30 56 H -3.162967 -6.183133 -4.209219 0
M  V30 57 H -1.944751 -7.145571 -3.343848 0
M  V30 58 H -1.827692 -6.858211 -1.326526 0
M  V30 59 H -1.322100 -6.467295 1.052791 0
M  V30 END ATOM
M  V30 BEGIN BOND
M  V30 1 1 1 2
M  V30 2 2 2 3
M  V30 3 1 3 4
M  V30 4 2 4 5
M  V30 5 1 5 6
M  V30 6 1 6 7
M  V30 7 2 7 8
M  V30 8 1 8 9
M  V30 9 1 9 10
M  V30 10 1 10 11
M  V30 11 1 11 12
M  V30 12 1 12 13
M  V30 13 1 13 14
M  V30 14 1 14 15
M  V30 15 1 9 16
M  V30 16 1 5 17
M  V30 17 2 17 18
M  V30 18 1 18 19
M  V30 19 2 19 20
M  V30 20 1 20 21
M  V30 21 2 21 22
M  V30 22 1 22 23
M  V30 23 1 23 24
M  V30 24 1 24 25
M  V30 25 1 25 26
M  V30 26 1 26 27
M  V30 27 1 27 28
M  V30 28 2 23 29
M  V30 29 1 29 30
M  V30 30 2 30 31
M  V30 31 1 31 32
M  V30 32 1 18 2
M  V30 33 1 32 19
M  V30 34 2 16 6
M  V30 35 1 31 21
M  V30 36 1 15 10
M  V30 37 1 28 24
M  V30 38 1 1 33
M  V30 39 1 1 34
M  V30 40 1 4 35
M  V30 41 1 7 36
M  V30 42 1 10 37
M  V30 43 1 11 38
M  V30 44 1 11 39
M  V30 45 1 12 40
M  V30 46 1 12 41
M  V30 47 1 13 42
M  V30 48 1 14 43
M  V30 49 1 14 44
M  V30 50 1 15 45
M  V30 51 1 15 46
M  V30 52 1 16 47
M  V30 53 1 17 48
M  V30 54 1 22 49
M  V30 55 1 25 50
M  V30 56 1 25 51
M  V30 57 1 26 52
M  V30 58 1 26 53
M  V30 59 1 27 54
M  V30 60 1 27 55
M  V30 61 1 28 56
M  V30 62 1 28 57
M  V30 63 1 29 58
M  V30 64 1 30 59
M  V30 END BOND
M  V30 END CTAB
M  END
>  <Dataset>  (770) 
ChEMBL_Kinases

>  <Ligand_Instance>  (770) 
nan

>  <PDB_ID>  (770) 
nan

>  <Standardized_SMILES>  (770) 
Nc1ncc(-c2cnn(C3CCNCC3)c2)cc1-c1nc2cc(N3CCCC3)ccc2o1

>  <Name>  (770) 
nan

>  <Pocket>  (770) 
nan

>  <ATP_Site>  (770) 
nan

>  <Peripheral>  (770) 
nan

>  <Num_H_Atoms_ProtBoundConf>  (770) 
nan

>  <Num_Resolved_Atoms>  (770) 
nan

>  <Num_Not_Resolved_Atoms>  (770) 
nan

$$$$
CHEMBL3681202
     RDKit          3D

  0  0  0  0  0  0  0  0  0  0999 V3000
M  V30 BEGIN CTAB
M  V30 COUNTS 63 66 0 0 0
M  V30 BEGIN ATOM
M  V30 1 C 5.020873 1.492318 7.423960 0
M  V30 2 O 4.483318 0.898987 6.260691 0
M  V30 3 C 3.512473 -0.081452 6.426899 0
M  V30 4 C 3.023131 -0.625358 5.251072 0
M  V30 5 C 2.044434 -1.620722 5.232245 0
M  V30 6 C 1.537068 -2.188586 3.985425 0
M  V30 7 C 1.205813 -1.395960 2.906268 0
M  V30 8 C 0.774077 -2.272433 1.936884 0
M  V30 9 C 0.323590 -1.861064 0.612024 0
M  V30 10 O 0.224313 -2.464621 -0.462333 0
M  V30 11 N -0.107616 -0.518339 0.413871 0
M  V30 12 C -0.601538 0.209519 -0.729605 0 CFG=1
M  V30 13 C -1.962005 0.762195 -0.550788 0
M  V30 14 C -2.132007 1.991592 -1.402731 0
M  V30 15 C -1.502280 1.871316 -2.776934 0 CFG=2
M  V30 16 N -2.246813 0.937041 -3.576203 0
M  V30 17 C -2.948556 1.109498 -4.785445 0
M  V30 18 O -2.959688 2.263490 -5.309482 0
M  V30 19 C -3.669117 -0.000032 -5.461252 0
M  V30 20 C -3.111636 -0.265515 -6.849340 0
M  V30 21 C -5.142218 0.305723 -5.611715 0
M  V30 22 O -3.499031 -1.143251 -4.661500 0
M  V30 23 C -0.028983 1.553452 -2.662440 0
M  V30 24 C 0.344585 1.263417 -1.215030 0
M  V30 25 C 0.832298 -3.571879 2.392616 0
M  V30 26 C 0.529652 -4.801958 1.853286 0
M  V30 27 N 0.034903 -4.918668 0.543700 0
M  V30 28 N 0.709009 -5.914141 2.590872 0
M  V30 29 C 1.181785 -5.785295 3.841213 0
M  V30 30 N 1.486008 -4.573869 4.389928 0
M  V30 31 N 1.304291 -3.469301 3.647489 0
M  V30 32 C 1.527416 -2.098634 6.427515 0
M  V30 33 C 2.073944 -1.498589 7.549313 0
M  V30 34 N 3.010204 -0.545033 7.608034 0
M  V30 35 H 5.091919 0.745667 8.228914 0
M  V30 36 H 4.343628 2.322150 7.766714 0
M  V30 37 H 5.975172 1.973994 7.159775 0
M  V30 38 H 3.360715 -0.320736 4.269001 0
M  V30 39 H 1.255786 -0.308788 2.795124 0
M  V30 40 H -0.127596 0.224901 1.176258 0
M  V30 41 H -0.635316 -0.561612 -1.553792 0
M  V30 42 H -2.721234 -0.018379 -0.780726 0
M  V30 43 H -2.050566 1.078999 0.532716 0
M  V30 44 H -3.231503 2.157161 -1.511592 0
M  V30 45 H -1.762582 2.859552 -0.842934 0
M  V30 46 H -1.592843 2.865163 -3.253015 0
M  V30 47 H -2.277851 -0.036509 -3.202576 0
M  V30 48 H -2.031936 -0.079885 -6.829984 0
M  V30 49 H -3.334112 -1.330135 -7.084048 0
M  V30 50 H -3.680969 0.359663 -7.559846 0
M  V30 51 H -5.697459 -0.628528 -5.359038 0
M  V30 52 H -5.472239 1.102302 -4.910805 0
M  V30 53 H -5.356658 0.534811 -6.657521 0
M  V30 54 H -2.914906 -1.756224 -5.139098 0
M  V30 55 H 0.538516 2.397484 -3.087702 0
M  V30 56 H 0.163737 0.665145 -3.293357 0
M  V30 57 H 1.367291 0.875378 -1.189254 0
M  V30 58 H 0.193275 2.208699 -0.654980 0
M  V30 59 H -0.984425 -4.802895 0.355033 0
M  V30 60 H 0.851946 -5.121299 -0.078470 0
M  V30 61 H 1.332964 -6.678061 4.455107 0
M  V30 62 H 0.775100 -2.859146 6.516832 0
M  V30 63 H 1.694989 -1.845290 8.515045 0
M  V30 END ATOM
M  V30 BEGIN BOND
M  V30 1 1 1 2
M  V30 2 1 2 3
M  V30 3 2 3 4
M  V30 4 1 4 5
M  V30 5 1 5 6
M  V30 6 2 6 7
M  V30 7 1 7 8
M  V30 8 1 8 9
M  V30 9 2 9 10
M  V30 10 1 9 11
M  V30 11 1 11 12
M  V30 12 1 12 13
M  V30 13 1 13 14
M  V30 14 1 14 15
M  V30 15 1 15 16
M  V30 16 1 16 17
M  V30 17 2 17 18
M  V30 18 1 17 19
M  V30 19 1 19 20
M  V30 20 1 19 21
M  V30 21 1 19 22
M  V30 22 1 15 23
M  V30 23 1 23 24
M  V30 24 2 8 25
M  V30 25 1 25 26
M  V30 26 1 26 27
M  V30 27 2 26 28
M  V30 28 1 28 29
M  V30 29 2 29 30
M  V30 30 1 30 31
M  V30 31 2 5 32
M  V30 32 1 32 33
M  V30 33 2 33 34
M  V30 34 1 34 3
M  V30 35 1 31 6
M  V30 36 1 24 12
M  V30 37 1 31 25
M  V30 38 1 1 35
M  V30 39 1 1 36
M  V30 40 1 1 37
M  V30 41 1 4 38
M  V30 42 1 7 39
M  V30 43 1 11 40
M  V30 44 1 12 41 CFG=3
M  V30 45 1 13 42
M  V30 46 1 13 43
M  V30 47 1 14 44
M  V30 48 1 14 45
M  V30 49 1 15 46 CFG=3
M  V30 50 1 16 47
M  V30 51 1 20 48
M  V30 52 1 20 49
M  V30 53 1 20 50
M  V30 54 1 21 51
M  V30 55 1 21 52
M  V30 56 1 21 53
M  V30 57 1 22 54
M  V30 58 1 23 55
M  V30 59 1 23 56
M  V30 60 1 24 57
M  V30 61 1 24 58
M  V30 62 1 27 59
M  V30 63 1 27 60
M  V30 64 1 29 61
M  V30 65 1 32 62
M  V30 66 1 33 63
M  V30 END BOND
M  V30 END CTAB
M  END
>  <Dataset>  (771) 
ChEMBL_Kinases

>  <Ligand_Instance>  (771) 
nan

>  <PDB_ID>  (771) 
nan

>  <Standardized_SMILES>  (771) 
COc1cc(-c2cc(C(=O)N[C@H]3CC[C@H](NC(=O)C(C)(C)O)CC3)c3c(N)ncnn23)ccn1

>  <Name>  (771) 
nan

>  <Pocket>  (771) 
nan

>  <ATP_Site>  (771) 
nan

>  <Peripheral>  (771) 
nan

>  <Num_H_Atoms_ProtBoundConf>  (771) 
nan

>  <Num_Resolved_Atoms>  (771) 
nan

>  <Num_Not_Resolved_Atoms>  (771) 
nan

$$$$
CHEMBL3731521
     RDKit          3D

  0  0  0  0  0  0  0  0  0  0999 V3000
M  V30 BEGIN CTAB
M  V30 COUNTS 33 34 0 0 0
M  V30 BEGIN ATOM
M  V30 1 O -0.433306 -0.522751 3.241751 0
M  V30 2 C 0.561051 -0.515723 2.463086 0
M  V30 3 C 1.633110 -1.357004 3.027852 0
M  V30 4 N 2.816056 -1.451372 2.239154 0
M  V30 5 C 2.847497 -2.044695 0.959844 0
M  V30 6 C 1.776880 -2.615850 0.304924 0
M  V30 7 C 1.828878 -3.186715 -0.937526 0
M  V30 8 C 3.017169 -3.215303 -1.620919 0
M  V30 9 Cl 3.183706 -3.918653 -3.205471 0
M  V30 10 C 4.144941 -2.659099 -1.027754 0
M  V30 11 C 4.028311 -2.098440 0.226829 0
M  V30 12 N 0.471036 0.240434 1.283067 0
M  V30 13 N -0.701596 0.954592 1.001298 0
M  V30 14 C -1.749117 0.459308 0.468111 0
M  V30 15 C -2.999406 1.138741 0.147311 0
M  V30 16 C -4.074917 0.497695 -0.432966 0
M  V30 17 C -5.211911 1.230336 -0.696146 0
M  V30 18 N -5.345957 2.560079 -0.418374 0
M  V30 19 C -4.260774 3.154147 0.154018 0
M  V30 20 C -3.090232 2.483428 0.445710 0
M  V30 21 H 1.192680 -2.390762 3.139794 0
M  V30 22 H 1.844238 -1.040004 4.086435 0
M  V30 23 H 3.691880 -1.063008 2.631284 0
M  V30 24 H 0.819731 -2.609817 0.819233 0
M  V30 25 H 0.955914 -3.624328 -1.411691 0
M  V30 26 H 5.106602 -2.651908 -1.516275 0
M  V30 27 H 4.926227 -1.663441 0.682378 0
M  V30 28 H 1.342524 0.189833 0.708723 0
M  V30 29 H -1.689330 -0.606701 0.226726 0
M  V30 30 H -4.013843 -0.552781 -0.669973 0
M  V30 31 H -6.024023 0.671264 -1.152922 0
M  V30 32 H -4.369923 4.215869 0.374984 0
M  V30 33 H -2.283117 3.010559 0.892612 0
M  V30 END ATOM
M  V30 BEGIN BOND
M  V30 1 2 1 2
M  V30 2 1 2 3
M  V30 3 1 3 4
M  V30 4 1 4 5
M  V30 5 2 5 6
M  V30 6 1 6 7
M  V30 7 2 7 8
M  V30 8 1 8 9
M  V30 9 1 8 10
M  V30 10 2 10 11
M  V30 11 1 2 12
M  V30 12 1 12 13
M  V30 13 2 13 14
M  V30 14 1 14 15
M  V30 15 2 15 16
M  V30 16 1 16 17
M  V30 17 2 17 18
M  V30 18 1 18 19
M  V30 19 2 19 20
M  V30 20 1 11 5
M  V30 21 1 20 15
M  V30 22 1 3 21
M  V30 23 1 3 22
M  V30 24 1 4 23
M  V30 25 1 6 24
M  V30 26 1 7 25
M  V30 27 1 10 26
M  V30 28 1 11 27
M  V30 29 1 12 28
M  V30 30 1 14 29
M  V30 31 1 16 30
M  V30 32 1 17 31
M  V30 33 1 19 32
M  V30 34 1 20 33
M  V30 END BOND
M  V30 END CTAB
M  END
>  <Dataset>  (772) 
ChEMBL_Kinases

>  <Ligand_Instance>  (772) 
nan

>  <PDB_ID>  (772) 
nan

>  <Standardized_SMILES>  (772) 
O=C(CNc1ccc(Cl)cc1)N/N=C/c1ccncc1

>  <Name>  (772) 
nan

>  <Pocket>  (772) 
nan

>  <ATP_Site>  (772) 
nan

>  <Peripheral>  (772) 
nan

>  <Num_H_Atoms_ProtBoundConf>  (772) 
nan

>  <Num_Resolved_Atoms>  (772) 
nan

>  <Num_Not_Resolved_Atoms>  (772) 
nan

$$$$
CHEMBL4586795
     RDKit          3D

  0  0  0  0  0  0  0  0  0  0999 V3000
M  V30 BEGIN CTAB
M  V30 COUNTS 49 52 0 0 0
M  V30 BEGIN ATOM
M  V30 1 O -0.235504 -0.310287 3.087017 0
M  V30 2 C 0.910238 -0.023329 2.662726 0
M  V30 3 C 1.606414 0.761006 3.672753 0
M  V30 4 O 2.893844 1.178845 3.385609 0
M  V30 5 C 3.310785 2.000557 2.358253 0
M  V30 6 C 4.700751 2.156234 2.441482 0
M  V30 7 C 5.393216 2.946747 1.516412 0
M  V30 8 C 4.703547 3.584438 0.505906 0
M  V30 9 C 5.267002 4.386801 -0.462535 0
M  V30 10 O 6.512967 4.549499 -0.419314 0
M  V30 11 C 4.435475 4.959347 -1.414759 0
M  V30 12 C 3.078655 4.763085 -1.435955 0
M  V30 13 O 2.583481 3.990704 -0.493705 0
M  V30 14 C 3.335860 3.424702 0.432894 0
M  V30 15 C 2.646360 2.649041 1.338455 0
M  V30 16 N 1.295669 -0.477137 1.378063 0
M  V30 17 C 0.562778 -1.239014 0.442005 0
M  V30 18 C 1.165970 -1.557627 -0.754196 0
M  V30 19 C 0.529384 -2.295834 -1.726190 0
M  V30 20 C -0.757449 -2.755583 -1.543864 0
M  V30 21 C -1.396145 -2.457243 -0.358416 0
M  V30 22 N -2.729383 -2.913605 -0.127946 0
M  V30 23 C -3.087278 -4.152143 0.474089 0
M  V30 24 O -2.193548 -4.953360 0.855445 0
M  V30 25 C -4.462153 -4.553202 0.678118 0
M  V30 26 C -4.714146 -5.772017 1.270177 0
M  V30 27 C -6.028049 -6.188704 1.481327 0
M  V30 28 C -7.103459 -5.399307 1.106680 0
M  V30 29 C -6.870911 -4.158638 0.504178 0
M  V30 30 C -5.554328 -3.793112 0.317786 0
M  V30 31 C -0.717115 -1.715486 0.583411 0
M  V30 32 H 0.974071 1.671165 3.900599 0
M  V30 33 H 1.657521 0.194406 4.645604 0
M  V30 34 H 5.390678 1.720534 3.178216 0
M  V30 35 H 6.462818 3.099373 1.535949 0
M  V30 36 H 4.915643 5.577742 -2.151438 0
M  V30 37 H 2.429845 5.210317 -2.179614 0
M  V30 38 H 1.586564 2.441535 1.395394 0
M  V30 39 H 2.258391 -0.181102 1.157242 0
M  V30 40 H 2.193330 -1.212520 -0.945359 0
M  V30 41 H 1.079677 -2.498308 -2.634070 0
M  V30 42 H -1.268653 -3.336713 -2.300140 0
M  V30 43 H -3.462291 -2.243254 -0.447121 0
M  V30 44 H -3.960969 -6.473110 1.604351 0
M  V30 45 H -6.277877 -7.148362 1.947878 0
M  V30 46 H -8.129812 -5.718594 1.268621 0
M  V30 47 H -7.685973 -3.496387 0.189264 0
M  V30 48 H -5.392675 -2.831076 -0.149287 0
M  V30 49 H -1.260315 -1.518474 1.473606 0
M  V30 END ATOM
M  V30 BEGIN BOND
M  V30 1 2 1 2
M  V30 2 1 2 3
M  V30 3 1 3 4
M  V30 4 1 4 5
M  V30 5 2 5 6
M  V30 6 1 6 7
M  V30 7 2 7 8
M  V30 8 1 8 9
M  V30 9 2 9 10
M  V30 10 1 9 11
M  V30 11 2 11 12
M  V30 12 1 12 13
M  V30 13 1 13 14
M  V30 14 2 14 15
M  V30 15 1 2 16
M  V30 16 1 16 17
M  V30 17 2 17 18
M  V30 18 1 18 19
M  V30 19 2 19 20
M  V30 20 1 20 21
M  V30 21 1 21 22
M  V30 22 1 22 23
M  V30 23 2 23 24
M  V30 24 1 23 25
M  V30 25 2 25 26
M  V30 26 1 26 27
M  V30 27 2 27 28
M  V30 28 1 28 29
M  V30 29 2 29 30
M  V30 30 2 21 31
M  V30 31 1 15 5
M  V30 32 1 31 17
M  V30 33 1 14 8
M  V30 34 1 30 25
M  V30 35 1 3 32
M  V30 36 1 3 33
M  V30 37 1 6 34
M  V30 38 1 7 35
M  V30 39 1 11 36
M  V30 40 1 12 37
M  V30 41 1 15 38
M  V30 42 1 16 39
M  V30 43 1 18 40
M  V30 44 1 19 41
M  V30 45 1 20 42
M  V30 46 1 22 43
M  V30 47 1 26 44
M  V30 48 1 27 45
M  V30 49 1 28 46
M  V30 50 1 29 47
M  V30 51 1 30 48
M  V30 52 1 31 49
M  V30 END BOND
M  V30 END CTAB
M  END
>  <Dataset>  (773) 
ChEMBL_Kinases

>  <Ligand_Instance>  (773) 
nan

>  <PDB_ID>  (773) 
nan

>  <Standardized_SMILES>  (773) 
O=C(COc1ccc2c(=O)ccoc2c1)Nc1cccc(NC(=O)c2ccccc2)c1

>  <Name>  (773) 
nan

>  <Pocket>  (773) 
nan

>  <ATP_Site>  (773) 
nan

>  <Peripheral>  (773) 
nan

>  <Num_H_Atoms_ProtBoundConf>  (773) 
nan

>  <Num_Resolved_Atoms>  (773) 
nan

>  <Num_Not_Resolved_Atoms>  (773) 
nan

$$$$
CHEMBL4586827
     RDKit          3D

  0  0  0  0  0  0  0  0  0  0999 V3000
M  V30 BEGIN CTAB
M  V30 COUNTS 49 52 0 0 0
M  V30 BEGIN ATOM
M  V30 1 O 2.546201 -2.783662 3.172319 0
M  V30 2 C 2.958051 -1.773395 2.496684 0
M  V30 3 C 3.700291 -0.931447 3.456919 0
M  V30 4 O 4.217544 0.227092 2.881619 0
M  V30 5 C 3.482826 1.239228 2.300147 0
M  V30 6 C 4.369563 2.219745 1.835008 0
M  V30 7 C 3.897234 3.372990 1.196275 0
M  V30 8 C 2.544699 3.550520 1.020532 0
M  V30 9 C 1.963854 4.635025 0.411607 0
M  V30 10 O 2.719603 5.542619 -0.022871 0
M  V30 11 C 0.599058 4.695479 0.297066 0
M  V30 12 C -0.210348 3.688340 0.780961 0
M  V30 13 O 0.366772 2.659364 1.360281 0
M  V30 14 C 1.678461 2.586795 1.478020 0
M  V30 15 C 2.125750 1.452683 2.105120 0
M  V30 16 N 2.624960 -1.725305 1.113549 0
M  V30 17 C 1.852798 -2.814161 0.606987 0
M  V30 18 C 2.287316 -4.008281 0.062453 0
M  V30 19 C 1.361434 -4.925754 -0.366701 0
M  V30 20 C 0.005233 -4.705584 -0.277211 0
M  V30 21 C -0.454433 -3.524914 0.260934 0
M  V30 22 N -1.864308 -3.245004 0.377415 0
M  V30 23 C -2.532099 -2.597705 -0.683949 0
M  V30 24 O -1.841919 -2.287987 -1.710106 0
M  V30 25 C -3.957155 -2.284209 -0.632477 0
M  V30 26 C -4.798663 -2.576288 0.433617 0
M  V30 27 C -6.139519 -2.241521 0.395641 0
M  V30 28 C -6.682817 -1.606760 -0.703041 0
M  V30 29 F -8.003071 -1.301817 -0.686869 0
M  V30 30 C -5.880695 -1.295895 -1.789686 0
M  V30 31 C -4.550932 -1.653229 -1.697028 0
M  V30 32 C 0.476734 -2.577311 0.703963 0
M  V30 33 H 4.519060 -1.500933 3.947077 0
M  V30 34 H 3.006494 -0.607847 4.263622 0
M  V30 35 H 5.452656 2.240388 1.889612 0
M  V30 36 H 4.509054 4.163993 0.814782 0
M  V30 37 H 0.110597 5.523748 -0.170695 0
M  V30 38 H -1.308689 3.690516 0.713369 0
M  V30 39 H 1.574160 0.611513 2.516795 0
M  V30 40 H 3.035207 -0.862493 0.715975 0
M  V30 41 H 3.364433 -4.094560 0.032057 0
M  V30 42 H 1.784099 -5.839203 -0.782480 0
M  V30 43 H -0.681373 -5.455554 -0.627416 0
M  V30 44 H -2.369875 -3.526485 1.247530 0
M  V30 45 H -4.358658 -3.073053 1.285872 0
M  V30 46 H -6.694410 -2.517180 1.278918 0
M  V30 47 H -6.319727 -0.805054 -2.629559 0
M  V30 48 H -3.931003 -1.407176 -2.549450 0
M  V30 49 H 0.038454 -1.657721 1.122411 0
M  V30 END ATOM
M  V30 BEGIN BOND
M  V30 1 2 1 2
M  V30 2 1 2 3
M  V30 3 1 3 4
M  V30 4 1 4 5
M  V30 5 2 5 6
M  V30 6 1 6 7
M  V30 7 2 7 8
M  V30 8 1 8 9
M  V30 9 2 9 10
M  V30 10 1 9 11
M  V30 11 2 11 12
M  V30 12 1 12 13
M  V30 13 1 13 14
M  V30 14 2 14 15
M  V30 15 1 2 16
M  V30 16 1 16 17
M  V30 17 2 17 18
M  V30 18 1 18 19
M  V30 19 2 19 20
M  V30 20 1 20 21
M  V30 21 1 21 22
M  V30 22 1 22 23
M  V30 23 2 23 24
M  V30 24 1 23 25
M  V30 25 2 25 26
M  V30 26 1 26 27
M  V30 27 2 27 28
M  V30 28 1 28 29
M  V30 29 1 28 30
M  V30 30 2 30 31
M  V30 31 2 21 32
M  V30 32 1 15 5
M  V30 33 1 32 17
M  V30 34 1 14 8
M  V30 35 1 31 25
M  V30 36 1 3 33
M  V30 37 1 3 34
M  V30 38 1 6 35
M  V30 39 1 7 36
M  V30 40 1 11 37
M  V30 41 1 12 38
M  V30 42 1 15 39
M  V30 43 1 16 40
M  V30 44 1 18 41
M  V30 45 1 19 42
M  V30 46 1 20 43
M  V30 47 1 22 44
M  V30 48 1 26 45
M  V30 49 1 27 46
M  V30 50 1 30 47
M  V30 51 1 31 48
M  V30 52 1 32 49
M  V30 END BOND
M  V30 END CTAB
M  END
>  <Dataset>  (774) 
ChEMBL_Kinases

>  <Ligand_Instance>  (774) 
nan

>  <PDB_ID>  (774) 
nan

>  <Standardized_SMILES>  (774) 
O=C(COc1ccc2c(=O)ccoc2c1)Nc1cccc(NC(=O)c2ccc(F)cc2)c1

>  <Name>  (774) 
nan

>  <Pocket>  (774) 
nan

>  <ATP_Site>  (774) 
nan

>  <Peripheral>  (774) 
nan

>  <Num_H_Atoms_ProtBoundConf>  (774) 
nan

>  <Num_Resolved_Atoms>  (774) 
nan

>  <Num_Not_Resolved_Atoms>  (774) 
nan

$$$$
CHEMBL3732155
     RDKit          3D

  0  0  0  0  0  0  0  0  0  0999 V3000
M  V30 BEGIN CTAB
M  V30 COUNTS 50 52 0 0 0
M  V30 BEGIN ATOM
M  V30 1 C 0.254997 -2.741179 1.556659 0
M  V30 2 C 0.928599 -3.145184 0.304821 0
M  V30 3 N 2.068464 -2.633303 -0.016702 0
M  V30 4 N 2.735312 -1.688878 0.764504 0
M  V30 5 C 3.149335 -1.308950 2.066983 0
M  V30 6 O 2.892207 -2.012682 3.078107 0
M  V30 7 C 3.905711 -0.049941 2.232925 0
M  V30 8 N 4.100525 0.668417 0.995497 0
M  V30 9 C 3.031633 1.257288 0.285817 0
M  V30 10 C 3.210489 1.935543 -0.924705 0
M  V30 11 C 2.200578 2.536526 -1.645036 0
M  V30 12 C 0.910810 2.479993 -1.159701 0
M  V30 13 C 0.656383 1.828473 0.028015 0
M  V30 14 C -0.709201 1.795402 0.495848 0
M  V30 15 O -1.601897 2.346761 -0.178740 0
M  V30 16 N -1.137182 1.168625 1.697253 0
M  V30 17 C -2.545725 1.307640 1.883506 0
M  V30 18 C -3.492352 0.415535 1.420290 0
M  V30 19 C -4.843560 0.601114 1.630085 0
M  V30 20 C -5.251646 1.725752 2.331377 0
M  V30 21 C -4.331760 2.640785 2.810256 0
M  V30 22 C -2.987205 2.430613 2.586269 0
M  V30 23 C 1.699391 1.243367 0.711217 0
M  V30 24 C 0.307980 -4.126554 -0.575999 0
M  V30 25 C -0.906010 -4.729637 -0.320057 0
M  V30 26 C -1.439998 -5.661216 -1.208996 0
M  V30 27 N -0.780783 -6.003550 -2.354747 0
M  V30 28 C 0.391954 -5.427854 -2.612435 0
M  V30 29 C 0.937563 -4.507126 -1.750911 0
M  V30 30 H 0.504256 -1.658795 1.761272 0
M  V30 31 H -0.842947 -2.765124 1.498142 0
M  V30 32 H 0.570820 -3.336251 2.429434 0
M  V30 33 H 2.910744 -1.189285 -0.132793 0
M  V30 34 H 3.486353 0.593281 3.034111 0
M  V30 35 H 4.922238 -0.345254 2.626470 0
M  V30 36 H 5.047838 0.780112 0.575765 0
M  V30 37 H 4.245915 1.963204 -1.284030 0
M  V30 38 H 2.519470 3.023759 -2.571964 0
M  V30 39 H 0.189311 2.973488 -1.783736 0
M  V30 40 H -0.428955 0.695726 2.293283 0
M  V30 41 H -3.097837 -0.440161 0.880499 0
M  V30 42 H -5.563114 -0.113103 1.256443 0
M  V30 43 H -6.333121 1.837802 2.477419 0
M  V30 44 H -4.776566 3.468404 3.336925 0
M  V30 45 H -2.312410 3.177237 2.982512 0
M  V30 46 H 1.510861 0.729340 1.644501 0
M  V30 47 H -1.439054 -4.478785 0.567206 0
M  V30 48 H -2.375703 -6.153896 -1.053269 0
M  V30 49 H 0.922989 -5.702070 -3.533229 0
M  V30 50 H 1.885824 -4.046845 -1.967097 0
M  V30 END ATOM
M  V30 BEGIN BOND
M  V30 1 1 1 2
M  V30 2 2 2 3
M  V30 3 1 3 4
M  V30 4 1 4 5
M  V30 5 2 5 6
M  V30 6 1 5 7
M  V30 7 1 7 8
M  V30 8 1 8 9
M  V30 9 2 9 10
M  V30 10 1 10 11
M  V30 11 2 11 12
M  V30 12 1 12 13
M  V30 13 1 13 14
M  V30 14 2 14 15
M  V30 15 1 14 16
M  V30 16 1 16 17
M  V30 17 2 17 18
M  V30 18 1 18 19
M  V30 19 2 19 20
M  V30 20 1 20 21
M  V30 21 2 21 22
M  V30 22 2 13 23
M  V30 23 1 2 24
M  V30 24 2 24 25
M  V30 25 1 25 26
M  V30 26 2 26 27
M  V30 27 1 27 28
M  V30 28 2 28 29
M  V30 29 1 23 9
M  V30 30 1 29 24
M  V30 31 1 22 17
M  V30 32 1 1 30
M  V30 33 1 1 31
M  V30 34 1 1 32
M  V30 35 1 4 33
M  V30 36 1 7 34
M  V30 37 1 7 35
M  V30 38 1 8 36
M  V30 39 1 10 37
M  V30 40 1 11 38
M  V30 41 1 12 39
M  V30 42 1 16 40
M  V30 43 1 18 41
M  V30 44 1 19 42
M  V30 45 1 20 43
M  V30 46 1 21 44
M  V30 47 1 22 45
M  V30 48 1 23 46
M  V30 49 1 25 47
M  V30 50 1 26 48
M  V30 51 1 28 49
M  V30 52 1 29 50
M  V30 END BOND
M  V30 END CTAB
M  END
>  <Dataset>  (775) 
ChEMBL_Kinases

>  <Ligand_Instance>  (775) 
nan

>  <PDB_ID>  (775) 
nan

>  <Standardized_SMILES>  (775) 
C/C(=N\NC(=O)CNc1cccc(C(=O)Nc2ccccc2)c1)c1ccncc1

>  <Name>  (775) 
nan

>  <Pocket>  (775) 
nan

>  <ATP_Site>  (775) 
nan

>  <Peripheral>  (775) 
nan

>  <Num_H_Atoms_ProtBoundConf>  (775) 
nan

>  <Num_Resolved_Atoms>  (775) 
nan

>  <Num_Not_Resolved_Atoms>  (775) 
nan

$$$$
CHEMBL3094435
     RDKit          3D

  0  0  0  0  0  0  0  0  0  0999 V3000
M  V30 BEGIN CTAB
M  V30 COUNTS 80 84 0 0 0
M  V30 BEGIN ATOM
M  V30 1 C -0.742022 -3.166709 -3.949099 0
M  V30 2 N 0.653945 -3.400803 -3.789999 0
M  V30 3 C 1.031793 -4.555984 -3.059494 0
M  V30 4 C 2.037028 -5.387521 -3.775798 0
M  V30 5 N 3.243997 -4.634182 -4.055815 0
M  V30 6 C 4.073552 -4.523254 -2.867341 0
M  V30 7 C 5.334017 -3.765480 -3.188949 0
M  V30 8 N 6.202318 -3.616094 -2.023515 0
M  V30 9 C 5.377749 -2.902995 -1.111016 0
M  V30 10 N 5.418437 -1.575815 -1.309346 0
M  V30 11 C 4.746594 -0.662574 -0.603782 0
M  V30 12 C 3.949184 -1.195199 0.415728 0
M  V30 13 C 3.213560 -0.333148 1.197879 0
M  V30 14 C 2.395180 -0.811697 2.231273 0
M  V30 15 C 1.692592 0.245862 2.940843 0
M  V30 16 O 1.798324 1.476930 2.671005 0
M  V30 17 N 0.787696 0.153187 4.023777 0
M  V30 18 C 0.404951 1.510294 4.307101 0
M  V30 19 C -0.709837 1.825059 3.554621 0
M  V30 20 C -1.261391 3.098334 3.658658 0
M  V30 21 C -2.435933 3.627317 2.950421 0
M  V30 22 O -2.897083 4.780636 3.032639 0
M  V30 23 N -3.142980 2.763199 2.073812 0
M  V30 24 C -4.316575 3.027557 1.262836 0
M  V30 25 C -3.959531 2.811767 -0.188705 0
M  V30 26 C -3.483035 1.438229 -0.520431 0
M  V30 27 N -3.181710 1.388137 -1.962477 0
M  V30 28 C -5.444233 2.151125 1.611116 0
M  V30 29 C -5.515849 1.984882 2.995914 0
M  V30 30 C -6.521196 1.192127 3.547233 0
M  V30 31 C -7.463952 0.553491 2.782452 0
M  V30 32 C -7.392454 0.719786 1.400288 0
M  V30 33 C -6.393392 1.505541 0.877163 0
M  V30 34 C -0.656332 4.011950 4.529477 0
M  V30 35 C 0.456051 3.656265 5.262410 0
M  V30 36 C 1.015515 2.400806 5.172316 0
M  V30 37 Cl 2.413033 1.782106 6.021688 0
M  V30 38 C 2.381372 -2.179870 2.404146 0
M  V30 39 O 1.648043 -2.566533 3.325987 0
M  V30 40 N 3.109206 -2.998988 1.626275 0
M  V30 41 C 3.895412 -2.555528 0.634191 0
M  V30 42 N 4.615741 -3.426628 -0.134346 0
M  V30 43 C 2.925218 -3.307127 -4.546848 0
M  V30 44 C 1.463695 -3.237584 -4.948583 0
M  V30 45 H -1.273612 -3.818925 -4.647607 0
M  V30 46 H -1.187494 -3.219107 -2.911895 0
M  V30 47 H -0.882123 -2.090541 -4.229860 0
M  V30 48 H 1.301872 -4.352078 -2.001301 0
M  V30 49 H 0.103515 -5.197140 -2.972370 0
M  V30 50 H 1.668879 -5.817931 -4.725679 0
M  V30 51 H 2.335241 -6.213340 -3.071429 0
M  V30 52 H 4.274858 -5.521328 -2.457871 0
M  V30 53 H 3.468797 -3.930584 -2.140994 0
M  V30 54 H 5.868835 -4.363163 -3.987416 0
M  V30 55 H 5.141010 -2.788912 -3.632268 0
M  V30 56 H 7.125003 -3.799912 -1.593758 0
M  V30 57 H 4.816813 0.400137 -0.807939 0
M  V30 58 H 3.302522 0.742188 0.968291 0
M  V30 59 H 0.594219 -0.834501 4.376992 0
M  V30 60 H -1.243813 1.217754 2.871441 0
M  V30 61 H -2.916543 1.773161 1.878975 0
M  V30 62 H -4.676966 4.072883 1.352827 0
M  V30 63 H -4.859411 3.015072 -0.815462 0
M  V30 64 H -3.161812 3.560725 -0.463182 0
M  V30 65 H -2.532401 1.166168 -0.011450 0
M  V30 66 H -4.177540 0.620384 -0.318737 0
M  V30 67 H -2.366563 2.003984 -2.197315 0
M  V30 68 H -2.975113 0.391121 -2.239064 0
M  V30 69 H -4.851202 2.417055 3.758090 0
M  V30 70 H -6.608121 1.037758 4.631651 0
M  V30 71 H -8.259120 -0.067333 3.130367 0
M  V30 72 H -8.064821 0.278511 0.676359 0
M  V30 73 H -6.264259 1.698932 -0.176500 0
M  V30 74 H -0.974461 5.025478 4.708755 0
M  V30 75 H 0.973870 4.320492 5.956075 0
M  V30 76 H 3.037364 -4.022331 1.829812 0
M  V30 77 H 3.623115 -3.077893 -5.368523 0
M  V30 78 H 3.123997 -2.585112 -3.726462 0
M  V30 79 H 1.272011 -4.075303 -5.648141 0
M  V30 80 H 1.248172 -2.295786 -5.506311 0
M  V30 END ATOM
M  V30 BEGIN BOND
M  V30 1 1 1 2
M  V30 2 1 2 3
M  V30 3 1 3 4
M  V30 4 1 4 5
M  V30 5 1 5 6
M  V30 6 1 6 7
M  V30 7 1 7 8
M  V30 8 1 8 9
M  V30 9 2 9 10
M  V30 10 1 10 11
M  V30 11 2 11 12
M  V30 12 1 12 13
M  V30 13 2 13 14
M  V30 14 1 14 15
M  V30 15 2 15 16
M  V30 16 1 15 17
M  V30 17 1 17 18
M  V30 18 2 18 19
M  V30 19 1 19 20
M  V30 20 1 20 21
M  V30 21 2 21 22
M  V30 22 1 21 23
M  V30 23 1 23 24
M  V30 24 1 24 25
M  V30 25 1 25 26
M  V30 26 1 26 27
M  V30 27 1 24 28
M  V30 28 2 28 29
M  V30 29 1 29 30
M  V30 30 2 30 31
M  V30 31 1 31 32
M  V30 32 2 32 33
M  V30 33 2 20 34
M  V30 34 1 34 35
M  V30 35 2 35 36
M  V30 36 1 36 37
M  V30 37 1 14 38
M  V30 38 2 38 39
M  V30 39 1 38 40
M  V30 40 1 40 41
M  V30 41 2 41 42
M  V30 42 1 5 43
M  V30 43 1 43 44
M  V30 44 1 44 2
M  V30 45 1 42 9
M  V30 46 1 41 12
M  V30 47 1 36 18
M  V30 48 1 33 28
M  V30 49 1 1 45
M  V30 50 1 1 46
M  V30 51 1 1 47
M  V30 52 1 3 48
M  V30 53 1 3 49
M  V30 54 1 4 50
M  V30 55 1 4 51
M  V30 56 1 6 52
M  V30 57 1 6 53
M  V30 58 1 7 54
M  V30 59 1 7 55
M  V30 60 1 8 56
M  V30 61 1 11 57
M  V30 62 1 13 58
M  V30 63 1 17 59
M  V30 64 1 19 60
M  V30 65 1 23 61
M  V30 66 1 24 62
M  V30 67 1 25 63
M  V30 68 1 25 64
M  V30 69 1 26 65
M  V30 70 1 26 66
M  V30 71 1 27 67
M  V30 72 1 27 68
M  V30 73 1 29 69
M  V30 74 1 30 70
M  V30 75 1 31 71
M  V30 76 1 32 72
M  V30 77 1 33 73
M  V30 78 1 34 74
M  V30 79 1 35 75
M  V30 80 1 40 76
M  V30 81 1 43 77
M  V30 82 1 43 78
M  V30 83 1 44 79
M  V30 84 1 44 80
M  V30 END BOND
M  V30 END CTAB
M  END
>  <Dataset>  (776) 
ChEMBL_Kinases

>  <Ligand_Instance>  (776) 
nan

>  <PDB_ID>  (776) 
nan

>  <Standardized_SMILES>  (776) 
CN1CCN(CCNc2ncc3cc(C(=O)Nc4cc(C(=O)NC(CCN)c5ccccc5)ccc4Cl)c(=O)[nH]c3n2)CC1

>  <Name>  (776) 
nan

>  <Pocket>  (776) 
nan

>  <ATP_Site>  (776) 
nan

>  <Peripheral>  (776) 
nan

>  <Num_H_Atoms_ProtBoundConf>  (776) 
nan

>  <Num_Resolved_Atoms>  (776) 
nan

>  <Num_Not_Resolved_Atoms>  (776) 
nan

$$$$
CHEMBL3094436
     RDKit          3D

  0  0  0  0  0  0  0  0  0  0999 V3000
M  V30 BEGIN CTAB
M  V30 COUNTS 72 76 0 0 0
M  V30 BEGIN ATOM
M  V30 1 N -0.253313 0.375623 -6.123441 0
M  V30 2 C -1.232860 -0.488934 -5.480696 0
M  V30 3 C -2.531986 -0.433804 -6.225215 0
M  V30 4 C -3.618236 -1.306398 -5.627773 0
M  V30 5 N -3.902844 -0.919233 -4.274067 0
M  V30 6 C -5.053413 -0.323362 -3.714264 0
M  V30 7 O -5.988023 -0.087419 -4.517462 0
M  V30 8 C -5.168889 0.001262 -2.318462 0
M  V30 9 C -6.355694 0.606881 -1.887063 0
M  V30 10 C -6.499484 0.933257 -0.553806 0
M  V30 11 C -5.515175 0.686769 0.383412 0
M  V30 12 Cl -5.630732 1.073718 2.086948 0
M  V30 13 C -4.335530 0.090302 -0.016518 0
M  V30 14 N -3.219307 -0.239911 0.779823 0
M  V30 15 C -2.124788 0.638895 0.993001 0
M  V30 16 O -2.350826 1.710198 0.358535 0
M  V30 17 C -0.933792 0.386199 1.793820 0
M  V30 18 C -0.028259 1.459398 1.794551 0
M  V30 19 C 1.149193 1.360567 2.505066 0
M  V30 20 C 2.028786 2.441342 2.483718 0
M  V30 21 N 3.192584 2.339386 3.184743 0
M  V30 22 C 3.523149 1.244846 3.891273 0
M  V30 23 N 4.723305 1.149362 4.604514 0
M  V30 24 C 5.763150 2.149759 4.675820 0
M  V30 25 C 7.145878 1.611052 4.488913 0
M  V30 26 C 7.037708 0.247843 3.817423 0
M  V30 27 N 8.375546 -0.224691 3.576895 0
M  V30 28 C 6.366453 -0.651264 4.856607 0
M  V30 29 C 5.118352 0.015651 5.395316 0
M  V30 30 N 2.669317 0.206192 3.907279 0
M  V30 31 C 1.503467 0.245113 3.234877 0
M  V30 32 N 0.610850 -0.757947 3.208662 0
M  V30 33 C -0.547642 -0.709733 2.532632 0
M  V30 34 O -1.373266 -1.643975 2.511289 0
M  V30 35 C -4.216962 -0.229850 -1.373688 0
M  V30 36 C -3.413208 -2.740219 -5.826998 0
M  V30 37 C -4.309399 -3.553420 -5.160722 0
M  V30 38 C -4.198838 -4.939990 -5.290489 0
M  V30 39 C -3.226463 -5.552362 -6.061085 0
M  V30 40 C -2.346940 -4.717851 -6.714008 0
M  V30 41 C -2.449798 -3.350104 -6.590922 0
M  V30 42 H 0.698354 0.231299 -5.715288 0
M  V30 43 H -0.194897 0.085145 -7.122456 0
M  V30 44 H -1.435781 0.006947 -4.487705 0
M  V30 45 H -0.871785 -1.488623 -5.246609 0
M  V30 46 H -2.884519 0.617932 -6.220437 0
M  V30 47 H -2.416748 -0.700821 -7.294900 0
M  V30 48 H -4.543325 -1.042097 -6.221556 0
M  V30 49 H -3.077901 -1.156876 -3.714816 0
M  V30 50 H -7.210427 0.852864 -2.533264 0
M  V30 51 H -7.420087 1.409279 -0.184693 0
M  V30 52 H -3.196317 -1.179865 1.236124 0
M  V30 53 H -0.211637 2.392424 1.248316 0
M  V30 54 H 1.853196 3.347879 1.954712 0
M  V30 55 H 5.651643 2.680802 5.656876 0
M  V30 56 H 5.608932 2.961533 3.917921 0
M  V30 57 H 7.648499 1.446101 5.469604 0
M  V30 58 H 7.750130 2.299819 3.887787 0
M  V30 59 H 6.476098 0.301877 2.879285 0
M  V30 60 H 8.453159 -1.240516 3.435323 0
M  V30 61 H 8.910096 0.342365 2.913305 0
M  V30 62 H 6.174679 -1.649857 4.429428 0
M  V30 63 H 7.108325 -0.777662 5.671806 0
M  V30 64 H 5.314817 0.333001 6.457954 0
M  V30 65 H 4.330930 -0.764228 5.448074 0
M  V30 66 H 0.812514 -1.627685 3.736426 0
M  V30 67 H -3.318101 -0.699879 -1.753961 0
M  V30 68 H -5.093483 -3.190551 -4.542335 0
M  V30 69 H -4.885740 -5.604214 -4.781310 0
M  V30 70 H -3.136859 -6.614106 -6.164549 0
M  V30 71 H -1.530231 -5.081426 -7.356050 0
M  V30 72 H -1.764667 -2.690647 -7.102756 0
M  V30 END ATOM
M  V30 BEGIN BOND
M  V30 1 1 1 2
M  V30 2 1 2 3
M  V30 3 1 3 4
M  V30 4 1 4 5
M  V30 5 1 5 6
M  V30 6 2 6 7
M  V30 7 1 6 8
M  V30 8 2 8 9
M  V30 9 1 9 10
M  V30 10 2 10 11
M  V30 11 1 11 12
M  V30 12 1 11 13
M  V30 13 1 13 14
M  V30 14 1 14 15
M  V30 15 2 15 16
M  V30 16 1 15 17
M  V30 17 2 17 18
M  V30 18 1 18 19
M  V30 19 2 19 20
M  V30 20 1 20 21
M  V30 21 2 21 22
M  V30 22 1 22 23
M  V30 23 1 23 24
M  V30 24 1 24 25
M  V30 25 1 25 26
M  V30 26 1 26 27
M  V30 27 1 26 28
M  V30 28 1 28 29
M  V30 29 1 22 30
M  V30 30 2 30 31
M  V30 31 1 31 32
M  V30 32 1 32 33
M  V30 33 2 33 34
M  V30 34 2 13 35
M  V30 35 1 4 36
M  V30 36 2 36 37
M  V30 37 1 37 38
M  V30 38 2 38 39
M  V30 39 1 39 40
M  V30 40 2 40 41
M  V30 41 1 35 8
M  V30 42 1 41 36
M  V30 43 1 33 17
M  V30 44 1 31 19
M  V30 45 1 29 23
M  V30 46 1 1 42
M  V30 47 1 1 43
M  V30 48 1 2 44
M  V30 49 1 2 45
M  V30 50 1 3 46
M  V30 51 1 3 47
M  V30 52 1 4 48
M  V30 53 1 5 49
M  V30 54 1 9 50
M  V30 55 1 10 51
M  V30 56 1 14 52
M  V30 57 1 18 53
M  V30 58 1 20 54
M  V30 59 1 24 55
M  V30 60 1 24 56
M  V30 61 1 25 57
M  V30 62 1 25 58
M  V30 63 1 26 59
M  V30 64 1 27 60
M  V30 65 1 27 61
M  V30 66 1 28 62
M  V30 67 1 28 63
M  V30 68 1 29 64
M  V30 69 1 29 65
M  V30 70 1 32 66
M  V30 71 1 35 67
M  V30 72 1 37 68
M  V30 73 1 38 69
M  V30 74 1 39 70
M  V30 75 1 40 71
M  V30 76 1 41 72
M  V30 END BOND
M  V30 END CTAB
M  END
>  <Dataset>  (777) 
ChEMBL_Kinases

>  <Ligand_Instance>  (777) 
nan

>  <PDB_ID>  (777) 
nan

>  <Standardized_SMILES>  (777) 
NCCC(NC(=O)c1ccc(Cl)c(NC(=O)c2cc3cnc(N4CCC(N)CC4)nc3[nH]c2=O)c1)c1ccccc1

>  <Name>  (777) 
nan

>  <Pocket>  (777) 
nan

>  <ATP_Site>  (777) 
nan

>  <Peripheral>  (777) 
nan

>  <Num_H_Atoms_ProtBoundConf>  (777) 
nan

>  <Num_Resolved_Atoms>  (777) 
nan

>  <Num_Not_Resolved_Atoms>  (777) 
nan

$$$$
CHEMBL3094437
     RDKit          3D

  0  0  0  0  0  0  0  0  0  0999 V3000
M  V30 BEGIN CTAB
M  V30 COUNTS 72 77 0 0 0
M  V30 BEGIN ATOM
M  V30 1 N 3.789510 4.717019 -4.064060 0
M  V30 2 C 3.231492 3.757298 -3.131059 0
M  V30 3 C 3.287896 2.349819 -3.693372 0
M  V30 4 C 2.482601 2.229238 -4.996612 0
M  V30 5 N 1.110076 2.535536 -4.723012 0
M  V30 6 C -0.027843 3.313843 -5.012294 0
M  V30 7 O 0.178752 4.150227 -5.912554 0
M  V30 8 C -1.290825 3.153174 -4.339912 0
M  V30 9 C -2.306036 3.927885 -4.837935 0
M  V30 10 C -3.584306 3.837424 -4.275615 0
M  V30 11 C -3.848294 2.985189 -3.227441 0
M  V30 12 Cl -5.386020 2.751795 -2.417897 0
M  V30 13 C -2.844245 2.172080 -2.680682 0
M  V30 14 N -2.811543 1.206208 -1.649841 0
M  V30 15 C -2.588970 1.610059 -0.357220 0
M  V30 16 O -2.423023 2.819005 0.033558 0
M  V30 17 C -2.412423 1.403438 0.993266 0
M  V30 18 C -2.345572 -0.084742 0.748166 0
M  V30 19 C -2.164028 -1.194661 1.639126 0
M  V30 20 C -2.073400 -2.547559 1.445961 0
M  V30 21 N -1.871845 -3.361054 2.470739 0
M  V30 22 C -1.740893 -2.987588 3.733946 0
M  V30 23 N -1.488902 -3.976625 4.697585 0
M  V30 24 C -1.547347 -3.961883 6.137874 0
M  V30 25 C -0.231895 -4.542710 6.681738 0
M  V30 26 C -0.329132 -6.004741 6.984231 0
M  V30 27 C 0.464581 -6.604847 5.835300 0
M  V30 28 C 0.366120 -5.472993 4.830161 0
M  V30 29 C -1.049769 -5.306804 4.318338 0
M  V30 30 O 0.715612 -4.385170 5.662364 0
M  V30 31 N -1.819290 -1.663875 4.018886 0
M  V30 32 C -2.024887 -0.816889 2.987604 0
M  V30 33 N -2.068821 0.464539 3.336486 0
M  V30 34 C -2.244328 1.202642 2.280919 0
M  V30 35 O -2.312025 2.521907 2.438313 0
M  V30 36 C -1.613835 2.326903 -3.298312 0
M  V30 37 C 2.570501 0.778727 -5.380598 0
M  V30 38 C 1.996093 -0.225060 -4.643800 0
M  V30 39 C 2.049655 -1.566027 -4.971929 0
M  V30 40 C 2.738239 -1.928572 -6.137308 0
M  V30 41 C 3.340108 -0.961101 -6.922652 0
M  V30 42 C 3.220500 0.353193 -6.494915 0
M  V30 43 H 4.493469 5.306886 -3.533487 0
M  V30 44 H 4.371725 4.219601 -4.796551 0
M  V30 45 H 3.713470 3.770785 -2.153999 0
M  V30 46 H 2.171790 4.047774 -2.985326 0
M  V30 47 H 4.280750 1.920671 -3.767252 0
M  V30 48 H 2.723883 1.730994 -2.922804 0
M  V30 49 H 2.921796 2.866114 -5.788856 0
M  V30 50 H 0.902711 1.851210 -3.941390 0
M  V30 51 H -2.169494 4.626619 -5.664460 0
M  V30 52 H -4.425466 4.412005 -4.623104 0
M  V30 53 H -2.946389 0.189274 -1.685688 0
M  V30 54 H -2.414019 -0.737869 -0.193268 0
M  V30 55 H -2.181060 -2.796193 0.422402 0
M  V30 56 H -2.319670 -4.701502 6.493570 0
M  V30 57 H -1.786107 -2.984724 6.560942 0
M  V30 58 H 0.079129 -3.995718 7.589563 0
M  V30 59 H 0.217941 -6.309871 7.907623 0
M  V30 60 H -1.375616 -6.382239 6.960142 0
M  V30 61 H 0.032580 -7.518168 5.426606 0
M  V30 62 H 1.551670 -6.699565 6.077597 0
M  V30 63 H 1.089187 -5.546536 4.013260 0
M  V30 64 H -1.690056 -6.099435 4.708792 0
M  V30 65 H -1.036701 -5.390689 3.208337 0
M  V30 66 H -1.994314 0.962702 4.240558 0
M  V30 67 H -0.762107 1.728487 -2.934128 0
M  V30 68 H 1.454985 -0.035950 -3.730388 0
M  V30 69 H 1.596209 -2.352426 -4.383935 0
M  V30 70 H 2.810622 -2.949063 -6.433164 0
M  V30 71 H 3.862564 -1.258940 -7.809339 0
M  V30 72 H 3.715218 1.054878 -7.159097 0
M  V30 END ATOM
M  V30 BEGIN BOND
M  V30 1 1 1 2
M  V30 2 1 2 3
M  V30 3 1 3 4
M  V30 4 1 4 5
M  V30 5 1 5 6
M  V30 6 2 6 7
M  V30 7 1 6 8
M  V30 8 2 8 9
M  V30 9 1 9 10
M  V30 10 2 10 11
M  V30 11 1 11 12
M  V30 12 1 11 13
M  V30 13 1 13 14
M  V30 14 1 14 15
M  V30 15 2 15 16
M  V30 16 1 15 17
M  V30 17 2 17 18
M  V30 18 1 18 19
M  V30 19 2 19 20
M  V30 20 1 20 21
M  V30 21 2 21 22
M  V30 22 1 22 23
M  V30 23 1 23 24
M  V30 24 1 24 25
M  V30 25 1 25 26
M  V30 26 1 26 27
M  V30 27 1 27 28
M  V30 28 1 28 29
M  V30 29 1 28 30
M  V30 30 1 22 31
M  V30 31 2 31 32
M  V30 32 1 32 33
M  V30 33 1 33 34
M  V30 34 2 34 35
M  V30 35 2 13 36
M  V30 36 1 4 37
M  V30 37 2 37 38
M  V30 38 1 38 39
M  V30 39 2 39 40
M  V30 40 1 40 41
M  V30 41 2 41 42
M  V30 42 1 36 8
M  V30 43 1 42 37
M  V30 44 1 34 17
M  V30 45 1 32 19
M  V30 46 1 29 23
M  V30 47 1 30 25
M  V30 48 1 1 43
M  V30 49 1 1 44
M  V30 50 1 2 45
M  V30 51 1 2 46
M  V30 52 1 3 47
M  V30 53 1 3 48
M  V30 54 1 4 49
M  V30 55 1 5 50
M  V30 56 1 9 51
M  V30 57 1 10 52
M  V30 58 1 14 53
M  V30 59 1 18 54
M  V30 60 1 20 55
M  V30 61 1 24 56
M  V30 62 1 24 57
M  V30 63 1 25 58
M  V30 64 1 26 59
M  V30 65 1 26 60
M  V30 66 1 27 61
M  V30 67 1 27 62
M  V30 68 1 28 63
M  V30 69 1 29 64
M  V30 70 1 29 65
M  V30 71 1 33 66
M  V30 72 1 36 67
M  V30 73 1 38 68
M  V30 74 1 39 69
M  V30 75 1 40 70
M  V30 76 1 41 71
M  V30 77 1 42 72
M  V30 END BOND
M  V30 END CTAB
M  END
>  <Dataset>  (778) 
ChEMBL_Kinases

>  <Ligand_Instance>  (778) 
nan

>  <PDB_ID>  (778) 
nan

>  <Standardized_SMILES>  (778) 
NCCC(NC(=O)c1ccc(Cl)c(NC(=O)c2cc3cnc(N4CC5CCC(C4)O5)nc3[nH]c2=O)c1)c1ccccc1

>  <Name>  (778) 
nan

>  <Pocket>  (778) 
nan

>  <ATP_Site>  (778) 
nan

>  <Peripheral>  (778) 
nan

>  <Num_H_Atoms_ProtBoundConf>  (778) 
nan

>  <Num_Resolved_Atoms>  (778) 
nan

>  <Num_Not_Resolved_Atoms>  (778) 
nan

$$$$
CHEMBL3732444
     RDKit          3D

  0  0  0  0  0  0  0  0  0  0999 V3000
M  V30 BEGIN CTAB
M  V30 COUNTS 46 50 0 0 0
M  V30 BEGIN ATOM
M  V30 1 C 1.218309 -6.584372 2.254738 0
M  V30 2 C 1.074810 -5.221794 2.507272 0
M  V30 3 C 0.861353 -4.447181 1.400764 0
M  V30 4 C 0.696477 -3.007731 1.541961 0
M  V30 5 N 0.482715 -2.145570 0.536504 0
M  V30 6 C 0.330583 -0.816380 0.667387 0
M  V30 7 N 0.072224 -0.268958 -0.620509 0
M  V30 8 C -1.230491 0.206721 -1.114032 0
M  V30 9 C -1.037757 1.134615 -2.272498 0
M  V30 10 N -0.137279 0.505689 -3.220264 0
M  V30 11 C 1.209243 0.480792 -2.686505 0
M  V30 12 C 1.320020 -0.248794 -1.394596 0
M  V30 13 C 0.392051 -0.238041 1.917740 0
M  V30 14 C 0.258904 1.085833 2.163192 0
M  V30 15 C 0.357058 1.440607 3.497628 0
M  V30 16 S 0.636564 -0.117848 4.344316 0
M  V30 17 C 0.606500 -1.113341 2.921835 0
M  V30 18 N 0.754256 -2.441720 2.758736 0
M  V30 19 C 0.214764 2.895406 3.920739 0
M  V30 20 C -0.996033 3.512792 3.266927 0
M  V30 21 C -1.269999 2.905592 1.906211 0
M  V30 22 C 0.054827 2.330919 1.380371 0
M  V30 23 C 0.789508 -4.967645 0.103723 0
M  V30 24 C 0.942009 -6.340653 -0.075835 0
M  V30 25 N 1.150232 -7.092092 1.008482 0
M  V30 26 H 1.391040 -7.276225 3.073215 0
M  V30 27 H 1.129217 -4.813210 3.506474 0
M  V30 28 H -1.771099 0.700328 -0.282322 0
M  V30 29 H -1.791887 -0.688050 -1.467470 0
M  V30 30 H -0.631160 2.102311 -1.988059 0
M  V30 31 H -2.018691 1.206411 -2.797948 0
M  V30 32 H -0.447750 -0.410189 -3.565232 0
M  V30 33 H 1.844637 -0.031383 -3.439416 0
M  V30 34 H 1.563286 1.548973 -2.598983 0
M  V30 35 H 2.107890 0.256128 -0.796268 0
M  V30 36 H 1.622185 -1.300377 -1.565517 0
M  V30 37 H 0.060475 2.937085 5.016504 0
M  V30 38 H 1.105986 3.464667 3.670514 0
M  V30 39 H -1.900210 3.359571 3.888719 0
M  V30 40 H -0.884664 4.605979 3.122221 0
M  V30 41 H -1.725094 3.609319 1.204080 0
M  V30 42 H -1.932652 2.031813 2.058959 0
M  V30 43 H 0.061308 2.214079 0.304762 0
M  V30 44 H 0.849618 3.077009 1.687084 0
M  V30 45 H 0.619760 -4.347456 -0.771173 0
M  V30 46 H 0.885253 -6.740099 -1.086530 0
M  V30 END ATOM
M  V30 BEGIN BOND
M  V30 1 2 1 2
M  V30 2 1 2 3
M  V30 3 1 3 4
M  V30 4 2 4 5
M  V30 5 1 5 6
M  V30 6 1 6 7
M  V30 7 1 7 8
M  V30 8 1 8 9
M  V30 9 1 9 10
M  V30 10 1 10 11
M  V30 11 1 11 12
M  V30 12 2 6 13
M  V30 13 1 13 14
M  V30 14 2 14 15
M  V30 15 1 15 16
M  V30 16 1 16 17
M  V30 17 2 17 18
M  V30 18 1 15 19
M  V30 19 1 19 20
M  V30 20 1 20 21
M  V30 21 1 21 22
M  V30 22 2 3 23
M  V30 23 1 23 24
M  V30 24 2 24 25
M  V30 25 1 25 1
M  V30 26 1 18 4
M  V30 27 1 12 7
M  V30 28 1 17 13
M  V30 29 1 22 14
M  V30 30 1 1 26
M  V30 31 1 2 27
M  V30 32 1 8 28
M  V30 33 1 8 29
M  V30 34 1 9 30
M  V30 35 1 9 31
M  V30 36 1 10 32
M  V30 37 1 11 33
M  V30 38 1 11 34
M  V30 39 1 12 35
M  V30 40 1 12 36
M  V30 41 1 19 37
M  V30 42 1 19 38
M  V30 43 1 20 39
M  V30 44 1 20 40
M  V30 45 1 21 41
M  V30 46 1 21 42
M  V30 47 1 22 43
M  V30 48 1 22 44
M  V30 49 1 23 45
M  V30 50 1 24 46
M  V30 END BOND
M  V30 END CTAB
M  END
>  <Dataset>  (779) 
ChEMBL_Kinases

>  <Ligand_Instance>  (779) 
nan

>  <PDB_ID>  (779) 
nan

>  <Standardized_SMILES>  (779) 
c1cc(-c2nc(N3CCNCC3)c3c4c(sc3n2)CCCC4)ccn1

>  <Name>  (779) 
nan

>  <Pocket>  (779) 
nan

>  <ATP_Site>  (779) 
nan

>  <Peripheral>  (779) 
nan

>  <Num_H_Atoms_ProtBoundConf>  (779) 
nan

>  <Num_Resolved_Atoms>  (779) 
nan

>  <Num_Not_Resolved_Atoms>  (779) 
nan

$$$$
CHEMBL3094438
     RDKit          3D

  0  0  0  0  0  0  0  0  0  0999 V3000
M  V30 BEGIN CTAB
M  V30 COUNTS 58 61 0 0 0
M  V30 BEGIN ATOM
M  V30 1 C 3.715241 3.003483 8.807001 0
M  V30 2 C 3.706911 2.653902 7.386417 0
M  V30 3 N 2.481708 2.241379 6.990881 0
M  V30 4 C 2.157184 1.845337 5.769323 0
M  V30 5 C 3.114254 1.824295 4.744631 0
M  V30 6 C 3.007335 1.429167 3.364489 0
M  V30 7 C 4.148146 1.445797 2.364561 0
M  V30 8 C 3.233677 0.961975 1.411964 0
M  V30 9 O 4.290192 1.016982 0.771386 0
M  V30 10 N 2.134444 0.533686 0.799541 0
M  V30 11 C 1.762704 0.073331 -0.439723 0
M  V30 12 C 0.384282 -0.121433 -0.542512 0
M  V30 13 C -0.130847 -0.610369 -1.714556 0
M  V30 14 C -1.584049 -0.781667 -1.766692 0
M  V30 15 O -2.372653 -0.237931 -0.960391 0
M  V30 16 N -2.153167 -1.607991 -2.782670 0
M  V30 17 C -3.572088 -1.696927 -2.743696 0
M  V30 18 C -4.298983 -1.987779 -3.994122 0
M  V30 19 C -3.962549 -3.280822 -4.655142 0
M  V30 20 N -2.596169 -3.422085 -5.073480 0
M  V30 21 C -3.890969 -2.832278 -1.773242 0
M  V30 22 C -4.984196 -2.737062 -0.895492 0
M  V30 23 C -5.194599 -3.777068 -0.040005 0
M  V30 24 C -4.419715 -4.890288 0.012502 0
M  V30 25 C -3.372783 -4.953478 -0.849191 0
M  V30 26 C -3.075548 -3.960591 -1.745668 0
M  V30 27 C 0.665584 -0.910432 -2.785625 0
M  V30 28 C 2.033267 -0.738321 -2.743613 0
M  V30 29 C 2.503033 -0.245212 -1.543786 0
M  V30 30 Cl 4.237348 -0.062885 -1.528607 0
M  V30 31 C 4.932427 1.863217 3.190249 0
M  V30 32 O 5.889558 1.850310 2.248227 0
M  V30 33 N 5.420453 2.285272 4.315519 0
M  V30 34 C 4.369413 2.254547 5.182755 0
M  V30 35 N 4.690958 2.660381 6.447708 0
M  V30 36 H 2.942403 3.806714 8.958277 0
M  V30 37 H 4.700164 3.360603 9.139977 0
M  V30 38 H 3.347688 2.145737 9.446813 0
M  V30 39 H 1.219259 1.518562 5.404982 0
M  V30 40 H 1.913476 1.161591 3.395078 0
M  V30 41 H 1.494006 0.634843 1.607183 0
M  V30 42 H -0.321725 0.097398 0.264520 0
M  V30 43 H -1.538761 -2.082146 -3.471404 0
M  V30 44 H -4.038868 -0.819086 -2.224847 0
M  V30 45 H -5.390204 -2.061026 -3.714809 0
M  V30 46 H -4.280189 -1.174296 -4.749932 0
M  V30 47 H -4.268692 -4.080159 -3.938129 0
M  V30 48 H -4.615300 -3.373662 -5.576330 0
M  V30 49 H -2.317651 -4.451339 -5.086575 0
M  V30 50 H -2.433221 -3.061877 -6.036803 0
M  V30 51 H -5.579828 -1.825227 -0.967519 0
M  V30 52 H -6.043731 -3.627447 0.592446 0
M  V30 53 H -4.641598 -5.678951 0.713965 0
M  V30 54 H -2.742085 -5.823835 -0.828592 0
M  V30 55 H -2.234100 -4.075485 -2.392244 0
M  V30 56 H 0.270676 -1.292834 -3.724008 0
M  V30 57 H 2.651091 -0.979918 -3.595254 0
M  V30 58 H 6.381991 2.555549 4.441533 0
M  V30 END ATOM
M  V30 BEGIN BOND
M  V30 1 1 1 2
M  V30 2 2 2 3
M  V30 3 1 3 4
M  V30 4 2 4 5
M  V30 5 1 5 6
M  V30 6 2 6 7
M  V30 7 1 7 8
M  V30 8 2 8 9
M  V30 9 1 8 10
M  V30 10 1 10 11
M  V30 11 2 11 12
M  V30 12 1 12 13
M  V30 13 1 13 14
M  V30 14 2 14 15
M  V30 15 1 14 16
M  V30 16 1 16 17
M  V30 17 1 17 18
M  V30 18 1 18 19
M  V30 19 1 19 20
M  V30 20 1 17 21
M  V30 21 2 21 22
M  V30 22 1 22 23
M  V30 23 2 23 24
M  V30 24 1 24 25
M  V30 25 2 25 26
M  V30 26 2 13 27
M  V30 27 1 27 28
M  V30 28 2 28 29
M  V30 29 1 29 30
M  V30 30 1 7 31
M  V30 31 2 31 32
M  V30 32 1 31 33
M  V30 33 1 33 34
M  V30 34 2 34 35
M  V30 35 1 35 2
M  V30 36 1 34 5
M  V30 37 1 29 11
M  V30 38 1 26 21
M  V30 39 1 1 36
M  V30 40 1 1 37
M  V30 41 1 1 38
M  V30 42 1 4 39
M  V30 43 1 6 40
M  V30 44 1 10 41
M  V30 45 1 12 42
M  V30 46 1 16 43
M  V30 47 1 17 44
M  V30 48 1 18 45
M  V30 49 1 18 46
M  V30 50 1 19 47
M  V30 51 1 19 48
M  V30 52 1 20 49
M  V30 53 1 20 50
M  V30 54 1 22 51
M  V30 55 1 23 52
M  V30 56 1 24 53
M  V30 57 1 25 54
M  V30 58 1 26 55
M  V30 59 1 27 56
M  V30 60 1 28 57
M  V30 61 1 33 58
M  V30 END BOND
M  V30 END CTAB
M  END
>  <Dataset>  (780) 
ChEMBL_Kinases

>  <Ligand_Instance>  (780) 
nan

>  <PDB_ID>  (780) 
nan

>  <Standardized_SMILES>  (780) 
Cc1ncc2cc(C(=O)Nc3cc(C(=O)NC(CCN)c4ccccc4)ccc3Cl)c(=O)[nH]c2n1

>  <Name>  (780) 
nan

>  <Pocket>  (780) 
nan

>  <ATP_Site>  (780) 
nan

>  <Peripheral>  (780) 
nan

>  <Num_H_Atoms_ProtBoundConf>  (780) 
nan

>  <Num_Resolved_Atoms>  (780) 
nan

>  <Num_Not_Resolved_Atoms>  (780) 
nan

$$$$
CHEMBL4586717
     RDKit          3D

  0  0  0  0  0  0  0  0  0  0999 V3000
M  V30 BEGIN CTAB
M  V30 COUNTS 42 43 0 0 0
M  V30 BEGIN ATOM
M  V30 1 C 0.375767 -7.964186 0.055457 0
M  V30 2 N 1.046032 -6.810805 0.601219 0
M  V30 3 C 0.560137 -5.530258 0.161872 0
M  V30 4 O -0.390371 -5.679555 -0.642681 0
M  V30 5 C 1.195826 -4.324269 0.677010 0
M  V30 6 C 2.243968 -4.228298 1.568191 0
M  V30 7 N 2.664590 -2.996507 1.898556 0
M  V30 8 C 2.117297 -1.874611 1.406412 0
M  V30 9 C 1.064765 -1.910187 0.510103 0
M  V30 10 C 0.486156 -0.677314 -0.012047 0
M  V30 11 C -0.060236 -0.598174 -1.264579 0
M  V30 12 C -0.579646 0.643247 -1.641382 0
M  V30 13 C -0.549398 1.745268 -0.799940 0
M  V30 14 C -1.137920 2.980870 -1.345841 0
M  V30 15 N -1.188962 4.194773 -0.621318 0
M  V30 16 O -1.613011 2.946059 -2.506440 0
M  V30 17 C 0.012372 1.653989 0.480950 0
M  V30 18 O -0.063436 2.854896 1.137378 0
M  V30 19 C 0.433721 3.007084 2.434361 0
M  V30 20 C 1.635337 3.955849 2.312243 0
M  V30 21 C -0.593943 3.585127 3.385911 0
M  V30 22 C 0.510845 0.421915 0.814274 0
M  V30 23 C 0.607221 -3.170384 0.148934 0
M  V30 24 H -0.708506 -7.843799 0.266012 0
M  V30 25 H 0.779795 -8.911965 0.448372 0
M  V30 26 H 0.469132 -8.016008 -1.055252 0
M  V30 27 H 1.833150 -6.939399 1.272888 0
M  V30 28 H 2.623547 -5.171485 1.913353 0
M  V30 29 H 2.535886 -0.931605 1.741608 0
M  V30 30 H -0.080990 -1.449632 -1.908238 0
M  V30 31 H -1.000825 0.648751 -2.645577 0
M  V30 32 H -1.903882 4.847377 -0.263015 0
M  V30 33 H -0.451221 4.824318 -0.210785 0
M  V30 34 H 0.850058 2.059126 2.790916 0
M  V30 35 H 1.331450 4.988812 2.482290 0
M  V30 36 H 2.087559 3.860007 1.284209 0
M  V30 37 H 2.416177 3.677321 3.061086 0
M  V30 38 H -1.543126 3.064015 3.254158 0
M  V30 39 H -0.210848 3.386528 4.418364 0
M  V30 40 H -0.653724 4.676268 3.192003 0
M  V30 41 H 0.935153 0.362300 1.788202 0
M  V30 42 H -0.221000 -3.148007 -0.557521 0
M  V30 END ATOM
M  V30 BEGIN BOND
M  V30 1 1 1 2
M  V30 2 1 2 3
M  V30 3 2 3 4
M  V30 4 1 3 5
M  V30 5 2 5 6
M  V30 6 1 6 7
M  V30 7 2 7 8
M  V30 8 1 8 9
M  V30 9 1 9 10
M  V30 10 2 10 11
M  V30 11 1 11 12
M  V30 12 2 12 13
M  V30 13 1 13 14
M  V30 14 1 14 15
M  V30 15 2 14 16
M  V30 16 1 13 17
M  V30 17 1 17 18
M  V30 18 1 18 19
M  V30 19 1 19 20
M  V30 20 1 19 21
M  V30 21 2 17 22
M  V30 22 2 9 23
M  V30 23 1 23 5
M  V30 24 1 22 10
M  V30 25 1 1 24
M  V30 26 1 1 25
M  V30 27 1 1 26
M  V30 28 1 2 27
M  V30 29 1 6 28
M  V30 30 1 8 29
M  V30 31 1 11 30
M  V30 32 1 12 31
M  V30 33 1 15 32
M  V30 34 1 15 33
M  V30 35 1 19 34
M  V30 36 1 20 35
M  V30 37 1 20 36
M  V30 38 1 20 37
M  V30 39 1 21 38
M  V30 40 1 21 39
M  V30 41 1 21 40
M  V30 42 1 22 41
M  V30 43 1 23 42
M  V30 END BOND
M  V30 END CTAB
M  END
>  <Dataset>  (781) 
ChEMBL_Kinases

>  <Ligand_Instance>  (781) 
nan

>  <PDB_ID>  (781) 
nan

>  <Standardized_SMILES>  (781) 
CNC(=O)c1cncc(-c2ccc(C(N)=O)c(OC(C)C)c2)c1

>  <Name>  (781) 
nan

>  <Pocket>  (781) 
nan

>  <ATP_Site>  (781) 
nan

>  <Peripheral>  (781) 
nan

>  <Num_H_Atoms_ProtBoundConf>  (781) 
nan

>  <Num_Resolved_Atoms>  (781) 
nan

>  <Num_Not_Resolved_Atoms>  (781) 
nan

$$$$
CHEMBL3093164
     RDKit          3D

  0  0  0  0  0  0  0  0  0  0999 V3000
M  V30 BEGIN CTAB
M  V30 COUNTS 66 72 0 0 0
M  V30 BEGIN ATOM
M  V30 1 N 3.538078 -3.280504 1.818410 0
M  V30 2 C 3.820270 -2.082507 1.104289 0
M  V30 3 N 5.050825 -1.852709 0.583617 0
M  V30 4 C 5.360788 -0.735035 -0.098751 0
M  V30 5 C 4.388713 0.224500 -0.280995 0
M  V30 6 C 4.571716 1.481046 -0.997509 0
M  V30 7 C 5.416498 1.716318 -2.087029 0
M  V30 8 N 5.300757 3.001224 -2.471602 0
M  V30 9 N 4.409078 3.584893 -1.659009 0
M  V30 10 C 3.976863 4.960584 -1.717281 0
M  V30 11 C 3.964141 5.452136 -3.147826 0
M  V30 12 C 3.527414 6.895111 -3.240881 0
M  V30 13 N 4.356867 7.703484 -2.406800 0
M  V30 14 C 4.388704 7.331545 -1.029483 0
M  V30 15 C 4.718700 5.883608 -0.800860 0
M  V30 16 C 3.949966 2.686403 -0.754221 0
M  V30 17 C 3.131320 0.020444 0.235283 0
M  V30 18 C 2.829747 -1.131150 0.932597 0
M  V30 19 C 1.481626 -1.309491 1.464496 0
M  V30 20 N 0.454889 -0.447314 1.352363 0
M  V30 21 C -0.647829 -0.923113 1.958262 0
M  V30 22 C -1.931875 -0.411044 2.111553 0
M  V30 23 C -2.845073 -1.179438 2.807235 0
M  V30 24 C -2.451303 -2.418320 3.320643 0
M  V30 25 O -3.473254 -3.076260 3.994558 0
M  V30 26 C -4.347951 -3.944886 3.332434 0
M  V30 27 C -5.343786 -4.568554 4.054636 0
M  V30 28 C -6.191495 -5.421172 3.368214 0
M  V30 29 C -6.092160 -5.676601 2.012089 0
M  V30 30 C -6.997002 -6.578911 1.310784 0
M  V30 31 C -8.025112 -7.267644 1.873577 0
M  V30 32 C -8.853665 -8.111785 1.162734 0
M  V30 33 C -8.652490 -8.284141 -0.183949 0
M  V30 34 C -7.615052 -7.593996 -0.771264 0
M  V30 35 C -6.801970 -6.758108 -0.043746 0
M  V30 36 N -5.093549 -5.027294 1.384734 0
M  V30 37 N -4.262125 -4.203988 2.005496 0
M  V30 38 C -1.168736 -2.894869 3.149576 0
M  V30 39 C -0.242626 -2.139032 2.456160 0
M  V30 40 O 1.021211 -2.332882 2.144803 0
M  V30 41 H 3.278020 -4.180796 1.314912 0
M  V30 42 H 3.498817 -3.603770 2.810059 0
M  V30 43 H 6.344104 -0.542072 -0.520315 0
M  V30 44 H 6.039422 0.906742 -2.491895 0
M  V30 45 H 2.909221 4.987229 -1.393067 0
M  V30 46 H 3.281370 4.853019 -3.782105 0
M  V30 47 H 4.975998 5.366294 -3.584234 0
M  V30 48 H 2.462260 7.025334 -2.963389 0
M  V30 49 H 3.690182 7.219249 -4.294741 0
M  V30 50 H 4.311793 8.711434 -2.580753 0
M  V30 51 H 5.073984 7.978010 -0.473640 0
M  V30 52 H 3.359822 7.514180 -0.605689 0
M  V30 53 H 5.789537 5.746309 -0.931009 0
M  V30 54 H 4.464670 5.604081 0.245045 0
M  V30 55 H 3.217370 2.890612 0.025292 0
M  V30 56 H 2.327166 0.755224 0.115265 0
M  V30 57 H -2.185360 0.571914 1.684923 0
M  V30 58 H -3.851350 -0.765179 2.920606 0
M  V30 59 H -5.479685 -4.410804 5.136359 0
M  V30 60 H -6.963372 -5.898187 3.954333 0
M  V30 61 H -8.202545 -7.149055 2.927016 0
M  V30 62 H -9.653625 -8.633502 1.656966 0
M  V30 63 H -9.327857 -8.956276 -0.697475 0
M  V30 64 H -7.488618 -7.756388 -1.836479 0
M  V30 65 H -6.002668 -6.237136 -0.538938 0
M  V30 66 H -0.932993 -3.861312 3.572858 0
M  V30 END ATOM
M  V30 BEGIN BOND
M  V30 1 1 1 2
M  V30 2 2 2 3
M  V30 3 1 3 4
M  V30 4 2 4 5
M  V30 5 1 5 6
M  V30 6 1 6 7
M  V30 7 2 7 8
M  V30 8 1 8 9
M  V30 9 1 9 10
M  V30 10 1 10 11
M  V30 11 1 11 12
M  V30 12 1 12 13
M  V30 13 1 13 14
M  V30 14 1 14 15
M  V30 15 1 9 16
M  V30 16 1 5 17
M  V30 17 2 17 18
M  V30 18 1 18 19
M  V30 19 2 19 20
M  V30 20 1 20 21
M  V30 21 2 21 22
M  V30 22 1 22 23
M  V30 23 2 23 24
M  V30 24 1 24 25
M  V30 25 1 25 26
M  V30 26 2 26 27
M  V30 27 1 27 28
M  V30 28 2 28 29
M  V30 29 1 29 30
M  V30 30 2 30 31
M  V30 31 1 31 32
M  V30 32 2 32 33
M  V30 33 1 33 34
M  V30 34 2 34 35
M  V30 35 1 29 36
M  V30 36 2 36 37
M  V30 37 1 24 38
M  V30 38 2 38 39
M  V30 39 1 39 40
M  V30 40 1 18 2
M  V30 41 1 40 19
M  V30 42 2 16 6
M  V30 43 1 39 21
M  V30 44 1 15 10
M  V30 45 1 37 26
M  V30 46 1 35 30
M  V30 47 1 1 41
M  V30 48 1 1 42
M  V30 49 1 4 43
M  V30 50 1 7 44
M  V30 51 1 10 45
M  V30 52 1 11 46
M  V30 53 1 11 47
M  V30 54 1 12 48
M  V30 55 1 12 49
M  V30 56 1 13 50
M  V30 57 1 14 51
M  V30 58 1 14 52
M  V30 59 1 15 53
M  V30 60 1 15 54
M  V30 61 1 16 55
M  V30 62 1 17 56
M  V30 63 1 22 57
M  V30 64 1 23 58
M  V30 65 1 27 59
M  V30 66 1 28 60
M  V30 67 1 31 61
M  V30 68 1 32 62
M  V30 69 1 33 63
M  V30 70 1 34 64
M  V30 71 1 35 65
M  V30 72 1 38 66
M  V30 END BOND
M  V30 END CTAB
M  END
>  <Dataset>  (782) 
ChEMBL_Kinases

>  <Ligand_Instance>  (782) 
nan

>  <PDB_ID>  (782) 
nan

>  <Standardized_SMILES>  (782) 
Nc1ncc(-c2cnn(C3CCNCC3)c2)cc1-c1nc2ccc(Oc3ccc(-c4ccccc4)nn3)cc2o1

>  <Name>  (782) 
nan

>  <Pocket>  (782) 
nan

>  <ATP_Site>  (782) 
nan

>  <Peripheral>  (782) 
nan

>  <Num_H_Atoms_ProtBoundConf>  (782) 
nan

>  <Num_Resolved_Atoms>  (782) 
nan

>  <Num_Not_Resolved_Atoms>  (782) 
nan

$$$$
CHEMBL3093242
     RDKit          3D

  0  0  0  0  0  0  0  0  0  0999 V3000
M  V30 BEGIN CTAB
M  V30 COUNTS 58 63 0 0 0
M  V30 BEGIN ATOM
M  V30 1 N 2.029180 -3.843210 4.217882 0
M  V30 2 C 2.018530 -2.596813 3.531598 0
M  V30 3 N 2.977793 -1.686850 3.853285 0
M  V30 4 C 3.025579 -0.474885 3.235974 0
M  V30 5 C 2.091731 -0.140671 2.260587 0
M  V30 6 C 2.067748 1.132994 1.547564 0
M  V30 7 C 0.869280 1.692784 1.102981 0
M  V30 8 N 1.189673 2.838241 0.495978 0
M  V30 9 N 2.510049 3.053202 0.519434 0
M  V30 10 C 3.216416 4.207133 -0.050402 0
M  V30 11 C 3.456653 5.182245 1.060198 0
M  V30 12 C 3.263901 6.624456 0.667302 0
M  V30 13 N 3.621797 6.774911 -0.710647 0
M  V30 14 C 2.597837 6.156494 -1.523111 0
M  V30 15 C 2.307888 4.744230 -1.134542 0
M  V30 16 C 3.070185 2.004710 1.168312 0
M  V30 17 C 1.155187 -1.116127 1.993531 0
M  V30 18 C 1.050666 -2.341580 2.569664 0
M  V30 19 C 0.022298 -3.311664 2.215069 0
M  V30 20 N -0.162678 -4.527148 2.710307 0
M  V30 21 C -1.239916 -5.063000 2.079663 0
M  V30 22 C -1.904007 -6.255727 2.153405 0
M  V30 23 C -2.996862 -6.528070 1.366740 0
M  V30 24 C -3.486446 -5.605352 0.453211 0
M  V30 25 N -4.621166 -5.840548 -0.356950 0
M  V30 26 C -5.014834 -5.449232 -1.653944 0
M  V30 27 C -4.253184 -4.783990 -2.582248 0
M  V30 28 C -4.668729 -4.393495 -3.836255 0
M  V30 29 C -5.963317 -4.700585 -4.184159 0
M  V30 30 C -6.727535 -5.367746 -3.254100 0
M  V30 31 N -6.265639 -5.721818 -2.046632 0
M  V30 32 C -2.783167 -4.399814 0.407344 0
M  V30 33 C -1.688215 -4.112644 1.187152 0
M  V30 34 O -0.892274 -3.071436 1.306665 0
M  V30 35 H 1.287174 -4.434730 4.652954 0
M  V30 36 H 2.965291 -4.316805 4.343906 0
M  V30 37 H 3.790087 0.273686 3.478878 0
M  V30 38 H -0.169102 1.375334 1.167807 0
M  V30 39 H 4.147575 3.816567 -0.518131 0
M  V30 40 H 4.511315 5.043239 1.393229 0
M  V30 41 H 2.851065 4.920061 1.978442 0
M  V30 42 H 3.823904 7.260051 1.376777 0
M  V30 43 H 2.158246 6.828733 0.731103 0
M  V30 44 H 4.580369 6.499221 -0.950033 0
M  V30 45 H 1.668518 6.750926 -1.379996 0
M  V30 46 H 2.856023 6.257935 -2.612828 0
M  V30 47 H 2.473129 4.091482 -2.030926 0
M  V30 48 H 1.254781 4.567452 -0.839114 0
M  V30 49 H 4.099767 1.830813 1.378337 0
M  V30 50 H 0.415626 -0.858209 1.223203 0
M  V30 51 H -1.570172 -7.024322 2.852326 0
M  V30 52 H -3.548020 -7.460774 1.397067 0
M  V30 53 H -5.296572 -6.458495 0.186612 0
M  V30 54 H -3.235024 -4.544952 -2.342995 0
M  V30 55 H -3.995223 -3.866994 -4.513770 0
M  V30 56 H -6.364015 -4.430643 -5.147107 0
M  V30 57 H -7.767126 -5.646075 -3.461067 0
M  V30 58 H -3.067428 -3.590349 -0.248265 0
M  V30 END ATOM
M  V30 BEGIN BOND
M  V30 1 1 1 2
M  V30 2 2 2 3
M  V30 3 1 3 4
M  V30 4 2 4 5
M  V30 5 1 5 6
M  V30 6 1 6 7
M  V30 7 2 7 8
M  V30 8 1 8 9
M  V30 9 1 9 10
M  V30 10 1 10 11
M  V30 11 1 11 12
M  V30 12 1 12 13
M  V30 13 1 13 14
M  V30 14 1 14 15
M  V30 15 1 9 16
M  V30 16 1 5 17
M  V30 17 2 17 18
M  V30 18 1 18 19
M  V30 19 2 19 20
M  V30 20 1 20 21
M  V30 21 2 21 22
M  V30 22 1 22 23
M  V30 23 2 23 24
M  V30 24 1 24 25
M  V30 25 1 25 26
M  V30 26 2 26 27
M  V30 27 1 27 28
M  V30 28 2 28 29
M  V30 29 1 29 30
M  V30 30 2 30 31
M  V30 31 1 24 32
M  V30 32 2 32 33
M  V30 33 1 33 34
M  V30 34 1 18 2
M  V30 35 1 34 19
M  V30 36 2 16 6
M  V30 37 1 33 21
M  V30 38 1 15 10
M  V30 39 1 31 26
M  V30 40 1 1 35
M  V30 41 1 1 36
M  V30 42 1 4 37
M  V30 43 1 7 38
M  V30 44 1 10 39
M  V30 45 1 11 40
M  V30 46 1 11 41
M  V30 47 1 12 42
M  V30 48 1 12 43
M  V30 49 1 13 44
M  V30 50 1 14 45
M  V30 51 1 14 46
M  V30 52 1 15 47
M  V30 53 1 15 48
M  V30 54 1 16 49
M  V30 55 1 17 50
M  V30 56 1 22 51
M  V30 57 1 23 52
M  V30 58 1 25 53
M  V30 59 1 27 54
M  V30 60 1 28 55
M  V30 61 1 29 56
M  V30 62 1 30 57
M  V30 63 1 32 58
M  V30 END BOND
M  V30 END CTAB
M  END
>  <Dataset>  (783) 
ChEMBL_Kinases

>  <Ligand_Instance>  (783) 
nan

>  <PDB_ID>  (783) 
nan

>  <Standardized_SMILES>  (783) 
Nc1ncc(-c2cnn(C3CCNCC3)c2)cc1-c1nc2ccc(Nc3ccccn3)cc2o1

>  <Name>  (783) 
nan

>  <Pocket>  (783) 
nan

>  <ATP_Site>  (783) 
nan

>  <Peripheral>  (783) 
nan

>  <Num_H_Atoms_ProtBoundConf>  (783) 
nan

>  <Num_Resolved_Atoms>  (783) 
nan

>  <Num_Not_Resolved_Atoms>  (783) 
nan

$$$$
CHEMBL3093243
     RDKit          3D

  0  0  0  0  0  0  0  0  0  0999 V3000
M  V30 BEGIN CTAB
M  V30 COUNTS 77 83 0 0 0
M  V30 BEGIN ATOM
M  V30 1 C 1.158256 0.481369 7.170459 0
M  V30 2 O 1.823141 1.572069 6.606163 0
M  V30 3 C 2.713133 1.521505 5.550408 0
M  V30 4 C 3.100194 0.393697 4.870907 0
M  V30 5 C 4.008020 0.450932 3.815467 0
M  V30 6 C 4.547583 1.684093 3.426690 0
M  V30 7 N 5.457721 1.515223 2.318851 0
M  V30 8 C 4.564181 1.680316 1.245408 0
M  V30 9 O 3.616976 1.864570 2.086876 0
M  V30 10 N 4.530133 1.680131 -0.172146 0
M  V30 11 C 3.187564 1.934616 -0.571251 0
M  V30 12 C 2.771406 3.233085 -0.783301 0
M  V30 13 C 1.474769 3.504373 -1.167846 0
M  V30 14 C 0.664907 2.395588 -1.314350 0
M  V30 15 N -0.643143 2.336489 -1.677747 0
M  V30 16 C -1.043278 1.052502 -1.696077 0
M  V30 17 C -2.389700 0.538402 -2.037397 0
M  V30 18 C -2.607418 -0.823241 -2.000002 0
M  V30 19 C -3.879964 -1.243365 -2.331624 0
M  V30 20 C -4.091983 -2.687684 -2.284789 0
M  V30 21 C -3.457579 -3.545671 -1.411466 0
M  V30 22 N -3.907131 -4.801536 -1.674049 0
M  V30 23 N -4.778466 -4.757617 -2.656815 0
M  V30 24 C -5.392335 -5.975540 -3.117927 0
M  V30 25 C -6.073978 -5.820933 -4.439428 0
M  V30 26 C -7.549998 -5.593084 -4.206511 0
M  V30 27 N -7.748929 -4.706277 -3.105503 0
M  V30 28 C -7.384681 -5.307286 -1.864309 0
M  V30 29 C -6.414616 -6.441144 -2.106340 0
M  V30 30 C -4.911553 -3.496189 -3.046597 0
M  V30 31 C -4.820955 -0.292731 -2.668864 0
M  V30 32 N -4.536477 1.021879 -2.683701 0
M  V30 33 C -3.307868 1.508801 -2.369476 0
M  V30 34 N -2.992768 2.895023 -2.380484 0
M  V30 35 O -0.004503 0.329459 -1.350994 0
M  V30 36 C 1.042229 1.084162 -1.112152 0
M  V30 37 C 2.348157 0.843890 -0.727474 0
M  V30 38 C 6.829522 1.260283 2.650570 0
M  V30 39 C 7.349657 -0.004434 2.833861 0
M  V30 40 C 8.688121 -0.096715 3.149075 0
M  V30 41 C 9.441906 1.031029 3.268078 0
M  V30 42 C 8.941441 2.311898 3.088533 0
M  V30 43 C 7.584881 2.413767 2.768777 0
M  V30 44 C 4.171084 2.818147 4.094927 0
M  V30 45 C 3.270759 2.704743 5.130532 0
M  V30 46 H 1.524462 -0.499935 6.863518 0
M  V30 47 H 1.304303 0.522411 8.286421 0
M  V30 48 H 0.041084 0.569439 7.057409 0
M  V30 49 H 2.674274 -0.550104 5.183573 0
M  V30 50 H 4.233505 -0.512653 3.358882 0
M  V30 51 H 5.516968 1.490295 -0.432929 0
M  V30 52 H 3.447940 4.057817 -0.653323 0
M  V30 53 H 1.062980 4.486204 -1.355472 0
M  V30 54 H -1.779112 -1.460573 -1.717471 0
M  V30 55 H -2.734423 -3.263211 -0.656889 0
M  V30 56 H -4.637446 -6.810819 -3.170460 0
M  V30 57 H -5.627454 -5.040272 -5.079490 0
M  V30 58 H -5.990263 -6.815950 -4.968003 0
M  V30 59 H -8.065286 -6.559712 -3.970275 0
M  V30 60 H -8.037314 -5.245964 -5.144265 0
M  V30 61 H -8.624750 -4.162793 -3.117751 0
M  V30 62 H -8.269059 -5.649913 -1.263212 0
M  V30 63 H -6.843571 -4.586570 -1.192727 0
M  V30 64 H -5.886595 -6.736726 -1.167854 0
M  V30 65 H -6.926639 -7.353317 -2.485722 0
M  V30 66 H -5.555128 -3.148063 -3.834914 0
M  V30 67 H -5.795289 -0.689990 -2.917190 0
M  V30 68 H -2.691060 3.351880 -3.255181 0
M  V30 69 H -3.083177 3.417638 -1.464503 0
M  V30 70 H 2.674643 -0.168526 -0.561912 0
M  V30 71 H 6.652032 -0.825430 2.712433 0
M  V30 72 H 9.064154 -1.101636 3.286461 0
M  V30 73 H 10.478748 0.952667 3.512539 0
M  V30 74 H 9.528877 3.206306 3.180083 0
M  V30 75 H 7.196134 3.414558 2.628943 0
M  V30 76 H 4.641967 3.691237 3.714717 0
M  V30 77 H 3.017819 3.640122 5.613273 0
M  V30 END ATOM
M  V30 BEGIN BOND
M  V30 1 1 1 2
M  V30 2 1 2 3
M  V30 3 2 3 4
M  V30 4 1 4 5
M  V30 5 2 5 6
M  V30 6 1 6 7
M  V30 7 1 7 8
M  V30 8 2 8 9
M  V30 9 1 8 10
M  V30 10 1 10 11
M  V30 11 2 11 12
M  V30 12 1 12 13
M  V30 13 2 13 14
M  V30 14 1 14 15
M  V30 15 2 15 16
M  V30 16 1 16 17
M  V30 17 2 17 18
M  V30 18 1 18 19
M  V30 19 1 19 20
M  V30 20 1 20 21
M  V30 21 2 21 22
M  V30 22 1 22 23
M  V30 23 1 23 24
M  V30 24 1 24 25
M  V30 25 1 25 26
M  V30 26 1 26 27
M  V30 27 1 27 28
M  V30 28 1 28 29
M  V30 29 1 23 30
M  V30 30 2 19 31
M  V30 31 1 31 32
M  V30 32 2 32 33
M  V30 33 1 33 34
M  V30 34 1 16 35
M  V30 35 1 35 36
M  V30 36 2 36 37
M  V30 37 1 7 38
M  V30 38 2 38 39
M  V30 39 1 39 40
M  V30 40 2 40 41
M  V30 41 1 41 42
M  V30 42 2 42 43
M  V30 43 1 6 44
M  V30 44 2 44 45
M  V30 45 1 45 3
M  V30 46 1 37 11
M  V30 47 1 43 38
M  V30 48 1 36 14
M  V30 49 1 33 17
M  V30 50 2 30 20
M  V30 51 1 29 24
M  V30 52 1 1 46
M  V30 53 1 1 47
M  V30 54 1 1 48
M  V30 55 1 4 49
M  V30 56 1 5 50
M  V30 57 1 10 51
M  V30 58 1 12 52
M  V30 59 1 13 53
M  V30 60 1 18 54
M  V30 61 1 21 55
M  V30 62 1 24 56
M  V30 63 1 25 57
M  V30 64 1 25 58
M  V30 65 1 26 59
M  V30 66 1 26 60
M  V30 67 1 27 61
M  V30 68 1 28 62
M  V30 69 1 28 63
M  V30 70 1 29 64
M  V30 71 1 29 65
M  V30 72 1 30 66
M  V30 73 1 31 67
M  V30 74 1 34 68
M  V30 75 1 34 69
M  V30 76 1 37 70
M  V30 77 1 39 71
M  V30 78 1 40 72
M  V30 79 1 41 73
M  V30 80 1 42 74
M  V30 81 1 43 75
M  V30 82 1 44 76
M  V30 83 1 45 77
M  V30 END BOND
M  V30 END CTAB
M  END
>  <Dataset>  (784) 
ChEMBL_Kinases

>  <Ligand_Instance>  (784) 
nan

>  <PDB_ID>  (784) 
nan

>  <Standardized_SMILES>  (784) 
COc1ccc(N(C(=O)Nc2ccc3nc(-c4cc(-c5cnn(C6CCNCC6)c5)cnc4N)oc3c2)c2ccccc2)cc1

>  <Name>  (784) 
nan

>  <Pocket>  (784) 
nan

>  <ATP_Site>  (784) 
nan

>  <Peripheral>  (784) 
nan

>  <Num_H_Atoms_ProtBoundConf>  (784) 
nan

>  <Num_Resolved_Atoms>  (784) 
nan

>  <Num_Not_Resolved_Atoms>  (784) 
nan

$$$$
CHEMBL3681201
     RDKit          3D

  0  0  0  0  0  0  0  0  0  0999 V3000
M  V30 BEGIN CTAB
M  V30 COUNTS 59 63 0 0 0
M  V30 BEGIN ATOM
M  V30 1 C 6.477172 -1.635027 6.282690 0
M  V30 2 O 5.358397 -1.933953 5.666778 0
M  V30 3 C 4.244660 -2.253854 5.133245 0
M  V30 4 C 4.008596 -1.973648 3.782473 0
M  V30 5 C 2.798248 -2.322599 3.209053 0
M  V30 6 C 2.344925 -2.126695 1.834581 0
M  V30 7 C 2.504300 -0.962782 1.112535 0
M  V30 8 C 1.927129 -1.248489 -0.103334 0
M  V30 9 C 1.766417 -0.436457 -1.306400 0
M  V30 10 O 2.320754 -0.062810 -2.343973 0
M  V30 11 N 0.456001 0.173771 -1.295719 0
M  V30 12 C -0.088511 1.038856 -2.293506 0 CFG=2
M  V30 13 C -0.331384 2.403178 -1.656896 0
M  V30 14 C -1.394886 3.167125 -2.417802 0
M  V30 15 C -2.754394 2.517426 -2.287113 0
M  V30 16 N -2.549963 1.084592 -2.058885 0
M  V30 17 C -3.272897 0.150517 -1.232645 0
M  V30 18 O -2.872404 -1.065082 -1.203360 0
M  V30 19 C -4.449144 0.366296 -0.376264 0
M  V30 20 N -5.000986 1.724841 -0.358031 0
M  V30 21 C -4.686601 -0.507989 0.807202 0
M  V30 22 C -5.506833 -0.712019 -0.417383 0
M  V30 23 C -1.426292 0.594037 -2.827887 0
M  V30 24 C 1.439965 -2.538574 -0.107503 0
M  V30 25 C 0.792614 -3.384933 -0.957915 0
M  V30 26 N 0.468594 -2.915606 -2.252720 0
M  V30 27 N 0.421487 -4.641601 -0.692157 0
M  V30 28 C 0.719678 -5.109324 0.536402 0
M  V30 29 N 1.355645 -4.292001 1.385024 0
M  V30 30 N 1.711614 -3.057621 1.102293 0
M  V30 31 C 1.859538 -2.950050 4.033178 0
M  V30 32 C 2.131711 -3.209113 5.361791 0
M  V30 33 N 3.306174 -2.856805 5.869686 0
M  V30 34 H 7.029239 -0.733591 5.890500 0
M  V30 35 H 6.307343 -1.387413 7.368043 0
M  V30 36 H 7.210973 -2.492659 6.214136 0
M  V30 37 H 4.683413 -1.498005 3.099336 0
M  V30 38 H 2.956713 -0.018492 1.363049 0
M  V30 39 H -0.333269 0.109798 -0.583155 0
M  V30 40 H 0.640142 1.205429 -3.124669 0
M  V30 41 H -0.755463 2.176946 -0.652468 0
M  V30 42 H 0.572213 3.003869 -1.562098 0
M  V30 43 H -1.490214 4.155122 -1.909185 0
M  V30 44 H -1.118852 3.381983 -3.462304 0
M  V30 45 H -3.314238 2.661729 -3.234716 0
M  V30 46 H -3.334148 2.946135 -1.455500 0
M  V30 47 H -5.595339 1.810536 0.489432 0
M  V30 48 H -5.647371 1.784231 -1.187650 0
M  V30 49 H -5.153716 0.009934 1.677132 0
M  V30 50 H -3.889630 -1.260209 0.974502 0
M  V30 51 H -5.349396 -1.603895 -1.060336 0
M  V30 52 H -6.583876 -0.410131 -0.421402 0
M  V30 53 H -1.517200 0.983078 -3.864736 0
M  V30 54 H -1.507993 -0.514206 -2.876000 0
M  V30 55 H -0.254735 -2.737776 -2.993145 0
M  V30 56 H 0.274182 -2.563000 -3.205210 0
M  V30 57 H 0.513136 -6.085554 0.957353 0
M  V30 58 H 0.886980 -3.256723 3.668416 0
M  V30 59 H 1.360648 -3.705674 5.972782 0
M  V30 END ATOM
M  V30 BEGIN BOND
M  V30 1 1 1 2
M  V30 2 1 2 3
M  V30 3 2 3 4
M  V30 4 1 4 5
M  V30 5 1 5 6
M  V30 6 2 6 7
M  V30 7 1 7 8
M  V30 8 1 8 9
M  V30 9 2 9 10
M  V30 10 1 9 11
M  V30 11 1 11 12
M  V30 12 1 12 13
M  V30 13 1 13 14
M  V30 14 1 14 15
M  V30 15 1 15 16
M  V30 16 1 16 17
M  V30 17 2 17 18
M  V30 18 1 17 19
M  V30 19 1 19 20
M  V30 20 1 19 21
M  V30 21 1 21 22
M  V30 22 1 16 23
M  V30 23 2 8 24
M  V30 24 1 24 25
M  V30 25 1 25 26
M  V30 26 2 25 27
M  V30 27 1 27 28
M  V30 28 2 28 29
M  V30 29 1 29 30
M  V30 30 2 5 31
M  V30 31 1 31 32
M  V30 32 2 32 33
M  V30 33 1 33 3
M  V30 34 1 30 6
M  V30 35 1 23 12
M  V30 36 1 30 24
M  V30 37 1 22 19
M  V30 38 1 1 34
M  V30 39 1 1 35
M  V30 40 1 1 36
M  V30 41 1 4 37
M  V30 42 1 7 38
M  V30 43 1 11 39
M  V30 44 1 12 40 CFG=3
M  V30 45 1 13 41
M  V30 46 1 13 42
M  V30 47 1 14 43
M  V30 48 1 14 44
M  V30 49 1 15 45
M  V30 50 1 15 46
M  V30 51 1 20 47
M  V30 52 1 20 48
M  V30 53 1 21 49
M  V30 54 1 21 50
M  V30 55 1 22 51
M  V30 56 1 22 52
M  V30 57 1 23 53
M  V30 58 1 23 54
M  V30 59 1 26 55
M  V30 60 1 26 56
M  V30 61 1 28 57
M  V30 62 1 31 58
M  V30 63 1 32 59
M  V30 END BOND
M  V30 END CTAB
M  END
>  <Dataset>  (785) 
ChEMBL_Kinases

>  <Ligand_Instance>  (785) 
nan

>  <PDB_ID>  (785) 
nan

>  <Standardized_SMILES>  (785) 
COc1cc(-c2cc(C(=O)N[C@@H]3CCCN(C(=O)C4(N)CC4)C3)c3c(N)ncnn23)ccn1

>  <Name>  (785) 
nan

>  <Pocket>  (785) 
nan

>  <ATP_Site>  (785) 
nan

>  <Peripheral>  (785) 
nan

>  <Num_H_Atoms_ProtBoundConf>  (785) 
nan

>  <Num_Resolved_Atoms>  (785) 
nan

>  <Num_Not_Resolved_Atoms>  (785) 
nan

$$$$
CHEMBL3093244
     RDKit          3D

  0  0  0  0  0  0  0  0  0  0999 V3000
M  V30 BEGIN CTAB
M  V30 COUNTS 63 68 0 0 0
M  V30 BEGIN ATOM
M  V30 1 N 1.037395 -0.651713 4.106632 0
M  V30 2 C 1.705876 0.208699 3.192277 0
M  V30 3 N 2.565063 1.157366 3.606007 0
M  V30 4 C 3.185296 1.959950 2.723459 0
M  V30 5 C 2.910236 1.776870 1.379039 0
M  V30 6 C 3.637621 2.699056 0.505178 0
M  V30 7 C 4.043967 3.999836 0.722291 0
M  V30 8 N 4.685149 4.353050 -0.430268 0
M  V30 9 N 4.672703 3.346461 -1.287765 0
M  V30 10 C 5.263202 3.356238 -2.608606 0
M  V30 11 C 4.953559 4.736411 -3.212264 0
M  V30 12 C 3.650498 4.684755 -3.976620 0
M  V30 13 N 3.816778 3.920129 -5.166054 0
M  V30 14 C 4.553086 2.728689 -4.914697 0
M  V30 15 C 4.580435 2.292437 -3.459888 0
M  V30 16 C 4.025509 2.277624 -0.752587 0
M  V30 17 C 2.040581 0.823555 0.890392 0
M  V30 18 C 1.418088 0.011268 1.846792 0
M  V30 19 C 0.491622 -1.019217 1.387397 0
M  V30 20 N 0.081684 -1.363029 0.153148 0
M  V30 21 C -0.788736 -2.386074 0.223284 0
M  V30 22 C -1.548352 -3.188780 -0.598242 0
M  V30 23 C -2.366433 -4.200218 -0.139684 0
M  V30 24 C -2.434695 -4.429716 1.221334 0
M  V30 25 N -3.257249 -5.458964 1.772332 0
M  V30 26 C -4.597319 -5.226017 2.153522 0
M  V30 27 O -5.025653 -4.041822 1.976576 0
M  V30 28 N -5.521397 -6.143915 2.706855 0
M  V30 29 C -6.850709 -5.677778 3.021256 0
M  V30 30 C -7.719575 -5.836154 1.954067 0
M  V30 31 C -9.041718 -5.417072 2.136207 0
M  V30 32 C -9.394411 -4.877027 3.357432 0
M  V30 33 F -10.656435 -4.448358 3.608821 0
M  V30 34 C -8.530838 -4.718753 4.421362 0
M  V30 35 C -7.213915 -5.137995 4.235033 0
M  V30 36 C -1.708609 -3.678248 2.152621 0
M  V30 37 C -0.907718 -2.674582 1.589624 0
M  V30 38 O -0.125842 -1.828995 2.209340 0
M  V30 39 H 1.050503 -1.584335 4.574654 0
M  V30 40 H 0.161602 -0.196315 4.496475 0
M  V30 41 H 3.867883 2.707798 3.104298 0
M  V30 42 H 3.861469 4.557793 1.632307 0
M  V30 43 H 6.352132 3.243434 -2.561495 0
M  V30 44 H 5.808198 5.017588 -3.856768 0
M  V30 45 H 4.858120 5.520230 -2.437528 0
M  V30 46 H 2.862924 4.329752 -3.289899 0
M  V30 47 H 3.404376 5.731532 -4.267845 0
M  V30 48 H 2.845799 3.634039 -5.489792 0
M  V30 49 H 5.610003 2.881533 -5.290797 0
M  V30 50 H 4.162415 1.911507 -5.549873 0
M  V30 51 H 5.187498 1.379736 -3.416371 0
M  V30 52 H 3.552129 2.188648 -3.118315 0
M  V30 53 H 3.887402 1.342439 -1.262035 0
M  V30 54 H 1.867350 0.726872 -0.151293 0
M  V30 55 H -1.451701 -2.957686 -1.662917 0
M  V30 56 H -2.946254 -4.805780 -0.823451 0
M  V30 57 H -2.914797 -6.434466 1.922427 0
M  V30 58 H -5.125260 -7.117520 2.837812 0
M  V30 59 H -7.459575 -6.255872 0.994968 0
M  V30 60 H -9.824969 -5.480584 1.389865 0
M  V30 61 H -8.758275 -4.308833 5.374369 0
M  V30 62 H -6.424221 -5.085147 4.955679 0
M  V30 63 H -1.718957 -3.806902 3.210216 0
M  V30 END ATOM
M  V30 BEGIN BOND
M  V30 1 1 1 2
M  V30 2 2 2 3
M  V30 3 1 3 4
M  V30 4 2 4 5
M  V30 5 1 5 6
M  V30 6 1 6 7
M  V30 7 2 7 8
M  V30 8 1 8 9
M  V30 9 1 9 10
M  V30 10 1 10 11
M  V30 11 1 11 12
M  V30 12 1 12 13
M  V30 13 1 13 14
M  V30 14 1 14 15
M  V30 15 1 9 16
M  V30 16 1 5 17
M  V30 17 2 17 18
M  V30 18 1 18 19
M  V30 19 2 19 20
M  V30 20 1 20 21
M  V30 21 2 21 22
M  V30 22 1 22 23
M  V30 23 2 23 24
M  V30 24 1 24 25
M  V30 25 1 25 26
M  V30 26 2 26 27
M  V30 27 1 26 28
M  V30 28 1 28 29
M  V30 29 2 29 30
M  V30 30 1 30 31
M  V30 31 2 31 32
M  V30 32 1 32 33
M  V30 33 1 32 34
M  V30 34 2 34 35
M  V30 35 1 24 36
M  V30 36 2 36 37
M  V30 37 1 37 38
M  V30 38 1 18 2
M  V30 39 1 38 19
M  V30 40 2 16 6
M  V30 41 1 37 21
M  V30 42 1 15 10
M  V30 43 1 35 29
M  V30 44 1 1 39
M  V30 45 1 1 40
M  V30 46 1 4 41
M  V30 47 1 7 42
M  V30 48 1 10 43
M  V30 49 1 11 44
M  V30 50 1 11 45
M  V30 51 1 12 46
M  V30 52 1 12 47
M  V30 53 1 13 48
M  V30 54 1 14 49
M  V30 55 1 14 50
M  V30 56 1 15 51
M  V30 57 1 15 52
M  V30 58 1 16 53
M  V30 59 1 17 54
M  V30 60 1 22 55
M  V30 61 1 23 56
M  V30 62 1 25 57
M  V30 63 1 28 58
M  V30 64 1 30 59
M  V30 65 1 31 60
M  V30 66 1 34 61
M  V30 67 1 35 62
M  V30 68 1 36 63
M  V30 END BOND
M  V30 END CTAB
M  END
>  <Dataset>  (786) 
ChEMBL_Kinases

>  <Ligand_Instance>  (786) 
nan

>  <PDB_ID>  (786) 
nan

>  <Standardized_SMILES>  (786) 
Nc1ncc(-c2cnn(C3CCNCC3)c2)cc1-c1nc2ccc(NC(=O)Nc3ccc(F)cc3)cc2o1

>  <Name>  (786) 
nan

>  <Pocket>  (786) 
nan

>  <ATP_Site>  (786) 
nan

>  <Peripheral>  (786) 
nan

>  <Num_H_Atoms_ProtBoundConf>  (786) 
nan

>  <Num_Resolved_Atoms>  (786) 
nan

>  <Num_Not_Resolved_Atoms>  (786) 
nan

$$$$
CHEMBL3093245
     RDKit          3D

  0  0  0  0  0  0  0  0  0  0999 V3000
M  V30 BEGIN CTAB
M  V30 COUNTS 61 66 0 0 0
M  V30 BEGIN ATOM
M  V30 1 N -1.525849 -0.643527 3.821400 0
M  V30 2 C -0.422683 0.159845 3.443943 0
M  V30 3 N 0.305182 0.991697 4.199404 0
M  V30 4 C 1.339176 1.715013 3.742468 0
M  V30 5 C 1.693682 1.604520 2.391292 0
M  V30 6 C 2.825680 2.416136 1.959816 0
M  V30 7 C 3.147274 3.646315 2.491732 0
M  V30 8 N 4.229841 4.103770 1.869833 0
M  V30 9 N 4.651709 3.245235 0.947891 0
M  V30 10 C 5.778861 3.325964 0.038150 0
M  V30 11 C 6.143919 4.783843 -0.131674 0
M  V30 12 C 4.883615 5.536282 -0.457201 0
M  V30 13 N 3.884006 4.680433 -1.042447 0
M  V30 14 C 4.452937 3.774341 -2.036839 0
M  V30 15 C 5.395856 2.839479 -1.356454 0
M  V30 16 C 3.794004 2.180642 0.980802 0
M  V30 17 C 0.945886 0.741394 1.586788 0
M  V30 18 C -0.108873 0.022867 2.116946 0
M  V30 19 C -0.703232 -0.788555 1.039987 0
M  V30 20 N -0.518046 -1.022382 -0.251577 0
M  V30 21 C -1.477479 -1.915049 -0.597632 0
M  V30 22 C -1.828228 -2.552702 -1.765095 0
M  V30 23 C -2.860257 -3.447203 -1.918163 0
M  V30 24 C -3.624539 -3.738273 -0.791283 0
M  V30 25 N -4.736011 -4.610285 -0.653086 0
M  V30 26 C -4.325176 -5.920550 -0.306578 0
M  V30 27 O -3.120876 -6.271774 -0.143739 0
M  V30 28 C -5.300904 -6.996110 -0.106894 0
M  V30 29 C -4.858115 -8.269137 0.189578 0
M  V30 30 C -5.721567 -9.353310 0.397462 0
M  V30 31 C -7.088497 -9.140768 0.301592 0
M  V30 32 C -7.563544 -7.872394 0.004839 0
M  V30 33 C -6.660673 -6.852926 -0.187515 0
M  V30 34 C -3.298126 -3.115142 0.395680 0
M  V30 35 C -2.257629 -2.220946 0.524536 0
M  V30 36 O -1.718051 -1.495176 1.468619 0
M  V30 37 H -1.537011 -1.598831 4.253563 0
M  V30 38 H -2.562706 -0.460541 3.752491 0
M  V30 39 H 1.804249 2.327116 4.489683 0
M  V30 40 H 2.696200 4.243546 3.267582 0
M  V30 41 H 6.639725 2.717326 0.364695 0
M  V30 42 H 6.860249 4.938175 -0.965446 0
M  V30 43 H 6.558887 5.175173 0.825668 0
M  V30 44 H 5.082545 6.367349 -1.170628 0
M  V30 45 H 4.414489 6.004093 0.444905 0
M  V30 46 H 3.118168 5.237382 -1.470378 0
M  V30 47 H 4.877565 4.326285 -2.897908 0
M  V30 48 H 3.601772 3.197476 -2.443715 0
M  V30 49 H 6.291581 2.628767 -1.961744 0
M  V30 50 H 4.875690 1.873387 -1.202105 0
M  V30 51 H 3.773140 1.263828 0.398392 0
M  V30 52 H 1.340892 0.763268 0.571124 0
M  V30 53 H -1.237063 -2.331456 -2.640604 0
M  V30 54 H -3.171717 -3.963105 -2.789164 0
M  V30 55 H -5.738965 -4.355678 -0.782287 0
M  V30 56 H -3.817991 -8.516712 0.280612 0
M  V30 57 H -5.356523 -10.348511 0.630789 0
M  V30 58 H -7.795831 -9.938416 0.453800 0
M  V30 59 H -8.633356 -7.642739 -0.083565 0
M  V30 60 H -7.056622 -5.863606 -0.418559 0
M  V30 61 H -3.808452 -3.245763 1.361648 0
M  V30 END ATOM
M  V30 BEGIN BOND
M  V30 1 1 1 2
M  V30 2 2 2 3
M  V30 3 1 3 4
M  V30 4 2 4 5
M  V30 5 1 5 6
M  V30 6 1 6 7
M  V30 7 2 7 8
M  V30 8 1 8 9
M  V30 9 1 9 10
M  V30 10 1 10 11
M  V30 11 1 11 12
M  V30 12 1 12 13
M  V30 13 1 13 14
M  V30 14 1 14 15
M  V30 15 1 9 16
M  V30 16 1 5 17
M  V30 17 2 17 18
M  V30 18 1 18 19
M  V30 19 2 19 20
M  V30 20 1 20 21
M  V30 21 2 21 22
M  V30 22 1 22 23
M  V30 23 2 23 24
M  V30 24 1 24 25
M  V30 25 1 25 26
M  V30 26 2 26 27
M  V30 27 1 26 28
M  V30 28 2 28 29
M  V30 29 1 29 30
M  V30 30 2 30 31
M  V30 31 1 31 32
M  V30 32 2 32 33
M  V30 33 1 24 34
M  V30 34 2 34 35
M  V30 35 1 35 36
M  V30 36 1 18 2
M  V30 37 1 36 19
M  V30 38 2 16 6
M  V30 39 1 35 21
M  V30 40 1 15 10
M  V30 41 1 33 28
M  V30 42 1 1 37
M  V30 43 1 1 38
M  V30 44 1 4 39
M  V30 45 1 7 40
M  V30 46 1 10 41
M  V30 47 1 11 42
M  V30 48 1 11 43
M  V30 49 1 12 44
M  V30 50 1 12 45
M  V30 51 1 13 46
M  V30 52 1 14 47
M  V30 53 1 14 48
M  V30 54 1 15 49
M  V30 55 1 15 50
M  V30 56 1 16 51
M  V30 57 1 17 52
M  V30 58 1 22 53
M  V30 59 1 23 54
M  V30 60 1 25 55
M  V30 61 1 29 56
M  V30 62 1 30 57
M  V30 63 1 31 58
M  V30 64 1 32 59
M  V30 65 1 33 60
M  V30 66 1 34 61
M  V30 END BOND
M  V30 END CTAB
M  END
>  <Dataset>  (787) 
ChEMBL_Kinases

>  <Ligand_Instance>  (787) 
nan

>  <PDB_ID>  (787) 
nan

>  <Standardized_SMILES>  (787) 
Nc1ncc(-c2cnn(C3CCNCC3)c2)cc1-c1nc2ccc(NC(=O)c3ccccc3)cc2o1

>  <Name>  (787) 
nan

>  <Pocket>  (787) 
nan

>  <ATP_Site>  (787) 
nan

>  <Peripheral>  (787) 
nan

>  <Num_H_Atoms_ProtBoundConf>  (787) 
nan

>  <Num_Resolved_Atoms>  (787) 
nan

>  <Num_Not_Resolved_Atoms>  (787) 
nan

$$$$
CHEMBL3681200
     RDKit          3D

  0  0  0  0  0  0  0  0  0  0999 V3000
M  V30 BEGIN CTAB
M  V30 COUNTS 65 69 0 0 0
M  V30 BEGIN ATOM
M  V30 1 C 3.748771 -0.595397 8.327632 0
M  V30 2 O 3.326430 -0.897458 7.008069 0
M  V30 3 C 3.882165 -0.154961 5.950766 0
M  V30 4 C 3.385007 -0.544530 4.701907 0
M  V30 5 C 3.816824 0.076479 3.543483 0
M  V30 6 C 3.381661 -0.215898 2.182322 0
M  V30 7 C 3.074584 0.810835 1.279652 0
M  V30 8 C 2.687084 0.203124 0.076522 0
M  V30 9 C 2.299218 1.073941 -1.046410 0
M  V30 10 O 2.943700 1.897622 -1.733096 0
M  V30 11 N 0.908792 0.919080 -1.383683 0
M  V30 12 C 0.063226 1.543357 -2.382001 0 CFG=1
M  V30 13 C -0.498355 0.593407 -3.389143 0
M  V30 14 C -2.002395 0.504293 -3.263292 0
M  V30 15 C -2.366203 0.092187 -1.846546 0 CFG=2
M  V30 16 N -3.769808 -0.251247 -1.736173 0
M  V30 17 C -4.066252 -1.599025 -1.488181 0
M  V30 18 O -3.204435 -2.531229 -1.356276 0
M  V30 19 C -5.423475 -2.144877 -1.342626 0
M  V30 20 C -5.546649 -3.529436 -0.746691 0
M  V30 21 N -5.004820 -3.627108 0.581765 0
M  V30 22 C -6.606224 -1.255043 -1.145916 0
M  V30 23 C -6.393093 -1.848441 -2.518145 0
M  V30 24 C -1.976061 1.226599 -0.928012 0
M  V30 25 C -1.075490 2.231461 -1.651330 0
M  V30 26 C 2.767211 -1.157800 0.275349 0
M  V30 27 C 2.480577 -2.150658 -0.625453 0
M  V30 28 N 2.041489 -1.833699 -1.950983 0
M  V30 29 N 2.630018 -3.409129 -0.205288 0
M  V30 30 C 3.049344 -3.618013 1.069232 0
M  V30 31 N 3.327931 -2.613633 1.945747 0
M  V30 32 N 3.182136 -1.373080 1.534988 0
M  V30 33 C 4.761748 1.092624 3.712389 0
M  V30 34 C 5.227810 1.446688 4.966500 0
M  V30 35 N 4.782640 0.821563 6.062013 0
M  V30 36 H 3.208887 -1.281796 9.030521 0
M  V30 37 H 4.829694 -0.744660 8.473266 0
M  V30 38 H 3.428670 0.448497 8.578525 0
M  V30 39 H 2.651767 -1.333180 4.553493 0
M  V30 40 H 3.135120 1.871778 1.501177 0
M  V30 41 H 0.259516 0.246090 -0.884734 0
M  V30 42 H 0.601258 2.329968 -2.949385 0
M  V30 43 H -0.272135 0.898763 -4.446318 0
M  V30 44 H -0.018531 -0.375372 -3.254793 0
M  V30 45 H -2.405942 1.494243 -3.510852 0
M  V30 46 H -2.319738 -0.261798 -4.003317 0
M  V30 47 H -1.726287 -0.818306 -1.654566 0
M  V30 48 H -4.532723 0.448002 -1.831244 0
M  V30 49 H -6.636169 -3.769025 -0.662428 0
M  V30 50 H -5.119516 -4.264577 -1.467626 0
M  V30 51 H -4.517748 -4.537391 0.752777 0
M  V30 52 H -5.712452 -3.420628 1.324122 0
M  V30 53 H -6.477437 -0.167850 -0.993083 0
M  V30 54 H -7.488511 -1.672922 -0.603739 0
M  V30 55 H -5.985366 -1.204921 -3.320544 0
M  V30 56 H -7.056203 -2.692578 -2.826216 0
M  V30 57 H -1.500782 0.806933 -0.036114 0
M  V30 58 H -2.890391 1.795177 -0.627342 0
M  V30 59 H -0.604289 2.870839 -0.846544 0
M  V30 60 H -1.637167 2.918401 -2.283943 0
M  V30 61 H 2.982592 -1.660673 -2.379506 0
M  V30 62 H 0.999848 -1.949322 -1.771702 0
M  V30 63 H 3.142734 -4.667212 1.330192 0
M  V30 64 H 5.171755 1.651141 2.861012 0
M  V30 65 H 5.973377 2.251977 5.074607 0
M  V30 END ATOM
M  V30 BEGIN BOND
M  V30 1 1 1 2
M  V30 2 1 2 3
M  V30 3 2 3 4
M  V30 4 1 4 5
M  V30 5 1 5 6
M  V30 6 2 6 7
M  V30 7 1 7 8
M  V30 8 1 8 9
M  V30 9 2 9 10
M  V30 10 1 9 11
M  V30 11 1 11 12
M  V30 12 1 12 13
M  V30 13 1 13 14
M  V30 14 1 14 15
M  V30 15 1 15 16
M  V30 16 1 16 17
M  V30 17 2 17 18
M  V30 18 1 17 19
M  V30 19 1 19 20
M  V30 20 1 20 21
M  V30 21 1 19 22
M  V30 22 1 22 23
M  V30 23 1 15 24
M  V30 24 1 24 25
M  V30 25 2 8 26
M  V30 26 1 26 27
M  V30 27 1 27 28
M  V30 28 2 27 29
M  V30 29 1 29 30
M  V30 30 2 30 31
M  V30 31 1 31 32
M  V30 32 2 5 33
M  V30 33 1 33 34
M  V30 34 2 34 35
M  V30 35 1 35 3
M  V30 36 1 32 6
M  V30 37 1 25 12
M  V30 38 1 32 26
M  V30 39 1 23 19
M  V30 40 1 1 36
M  V30 41 1 1 37
M  V30 42 1 1 38
M  V30 43 1 4 39
M  V30 44 1 7 40
M  V30 45 1 11 41
M  V30 46 1 12 42 CFG=3
M  V30 47 1 13 43
M  V30 48 1 13 44
M  V30 49 1 14 45
M  V30 50 1 14 46
M  V30 51 1 15 47 CFG=1
M  V30 52 1 16 48
M  V30 53 1 20 49
M  V30 54 1 20 50
M  V30 55 1 21 51
M  V30 56 1 21 52
M  V30 57 1 22 53
M  V30 58 1 22 54
M  V30 59 1 23 55
M  V30 60 1 23 56
M  V30 61 1 24 57
M  V30 62 1 24 58
M  V30 63 1 25 59
M  V30 64 1 25 60
M  V30 65 1 28 61
M  V30 66 1 28 62
M  V30 67 1 30 63
M  V30 68 1 33 64
M  V30 69 1 34 65
M  V30 END BOND
M  V30 END CTAB
M  END
>  <Dataset>  (788) 
ChEMBL_Kinases

>  <Ligand_Instance>  (788) 
nan

>  <PDB_ID>  (788) 
nan

>  <Standardized_SMILES>  (788) 
COc1cc(-c2cc(C(=O)N[C@H]3CC[C@H](NC(=O)C4(CN)CC4)CC3)c3c(N)ncnn23)ccn1

>  <Name>  (788) 
nan

>  <Pocket>  (788) 
nan

>  <ATP_Site>  (788) 
nan

>  <Peripheral>  (788) 
nan

>  <Num_H_Atoms_ProtBoundConf>  (788) 
nan

>  <Num_Resolved_Atoms>  (788) 
nan

>  <Num_Not_Resolved_Atoms>  (788) 
nan

$$$$
CHEMBL3701747
     RDKit          3D

  0  0  0  0  0  0  0  0  0  0999 V3000
M  V30 BEGIN CTAB
M  V30 COUNTS 56 61 0 0 0
M  V30 BEGIN ATOM
M  V30 1 C 3.497280 -1.975906 4.179591 0
M  V30 2 C 4.596908 -1.148497 3.557007 0
M  V30 3 O 5.781944 -1.339202 4.264442 0
M  V30 4 C 4.249334 0.292038 3.264904 0
M  V30 5 C 4.009896 -0.015594 1.818466 0
M  V30 6 N 4.751799 0.884997 0.936948 0
M  V30 7 C 2.628173 -0.234492 1.385675 0
M  V30 8 C 1.529104 -0.176802 2.194212 0
M  V30 9 C 0.241772 -0.389534 1.748721 0
M  V30 10 C 0.014984 -0.677121 0.425836 0
M  V30 11 C -1.236293 -0.932290 -0.276207 0
M  V30 12 N -1.410472 -2.184448 -0.757558 0
M  V30 13 C -2.615147 -2.286340 -1.384952 0
M  V30 14 N -3.193190 -1.065408 -1.285344 0
M  V30 15 C -2.375107 -0.231637 -0.617747 0
M  V30 16 C -2.483599 1.163230 -0.230822 0
M  V30 17 C -2.578980 1.664227 1.051953 0
M  V30 18 C -2.675826 2.982926 1.395610 0
M  V30 19 C -2.680168 3.910629 0.378963 0
M  V30 20 C -2.589280 3.508617 -0.938598 0
M  V30 21 C -2.492071 2.142284 -1.232939 0
M  V30 22 C -4.493011 -0.766590 -1.833494 0
M  V30 23 O -5.086832 -1.861158 -2.470742 0
M  V30 24 C -4.565308 -3.119671 -2.610133 0
M  V30 25 C -5.171162 -4.170002 -3.240354 0
M  V30 26 C -4.554019 -5.416088 -3.328700 0
M  V30 27 N -3.322724 -5.586590 -2.774734 0
M  V30 28 C -2.675972 -4.588139 -2.140709 0
M  V30 29 C -3.318980 -3.363819 -2.071998 0
M  V30 30 C 1.130316 -0.741225 -0.421635 0
M  V30 31 C 2.428223 -0.521492 0.054758 0
M  V30 32 C 4.728508 -1.329790 2.039128 0
M  V30 33 H 3.896126 -2.783394 4.829181 0
M  V30 34 H 2.894929 -2.490343 3.385353 0
M  V30 35 H 2.832814 -1.371711 4.833259 0
M  V30 36 H 5.847960 -2.326826 4.398082 0
M  V30 37 H 5.178209 0.904546 3.393073 0
M  V30 38 H 3.456713 0.749141 3.848782 0
M  V30 39 H 4.903988 0.476177 -0.009979 0
M  V30 40 H 5.709874 0.998054 1.362752 0
M  V30 41 H 1.648646 0.042494 3.225556 0
M  V30 42 H -0.638233 -0.357568 2.336609 0
M  V30 43 H -2.578250 0.934022 1.847777 0
M  V30 44 H -2.745879 3.268508 2.433849 0
M  V30 45 H -2.759293 4.949786 0.700985 0
M  V30 46 H -2.595658 4.259596 -1.706349 0
M  V30 47 H -2.423012 1.891669 -2.295283 0
M  V30 48 H -4.348969 0.069665 -2.579143 0
M  V30 49 H -5.207495 -0.390788 -1.068765 0
M  V30 50 H -6.160619 -4.009987 -3.678216 0
M  V30 51 H -5.036535 -6.257105 -3.832291 0
M  V30 52 H -1.688997 -4.745942 -1.703666 0
M  V30 53 H 1.067442 -0.963909 -1.499093 0
M  V30 54 H 3.275406 -0.580074 -0.639845 0
M  V30 55 H 4.200459 -2.230288 1.689991 0
M  V30 56 H 5.823780 -1.268701 1.770678 0
M  V30 END ATOM
M  V30 BEGIN BOND
M  V30 1 1 1 2
M  V30 2 1 2 3
M  V30 3 1 2 4
M  V30 4 1 4 5
M  V30 5 1 5 6
M  V30 6 1 5 7
M  V30 7 2 7 8
M  V30 8 1 8 9
M  V30 9 2 9 10
M  V30 10 1 10 11
M  V30 11 1 11 12
M  V30 12 2 12 13
M  V30 13 1 13 14
M  V30 14 1 14 15
M  V30 15 1 15 16
M  V30 16 2 16 17
M  V30 17 1 17 18
M  V30 18 2 18 19
M  V30 19 1 19 20
M  V30 20 2 20 21
M  V30 21 1 14 22
M  V30 22 1 22 23
M  V30 23 1 23 24
M  V30 24 2 24 25
M  V30 25 1 25 26
M  V30 26 2 26 27
M  V30 27 1 27 28
M  V30 28 2 28 29
M  V30 29 1 10 30
M  V30 30 2 30 31
M  V30 31 1 5 32
M  V30 32 1 32 2
M  V30 33 1 31 7
M  V30 34 2 15 11
M  V30 35 1 21 16
M  V30 36 1 29 24
M  V30 37 1 29 13
M  V30 38 1 1 33
M  V30 39 1 1 34
M  V30 40 1 1 35
M  V30 41 1 3 36
M  V30 42 1 4 37
M  V30 43 1 4 38
M  V30 44 1 6 39
M  V30 45 1 6 40
M  V30 46 1 8 41
M  V30 47 1 9 42
M  V30 48 1 17 43
M  V30 49 1 18 44
M  V30 50 1 19 45
M  V30 51 1 20 46
M  V30 52 1 21 47
M  V30 53 1 22 48
M  V30 54 1 22 49
M  V30 55 1 25 50
M  V30 56 1 26 51
M  V30 57 1 28 52
M  V30 58 1 30 53
M  V30 59 1 31 54
M  V30 60 1 32 55
M  V30 61 1 32 56
M  V30 END BOND
M  V30 END CTAB
M  END
>  <Dataset>  (789) 
ChEMBL_Kinases

>  <Ligand_Instance>  (789) 
nan

>  <PDB_ID>  (789) 
nan

>  <Standardized_SMILES>  (789) 
CC1(O)CC(N)(c2ccc(-c3nc4n(c3-c3ccccc3)COc3ccncc3-4)cc2)C1

>  <Name>  (789) 
nan

>  <Pocket>  (789) 
nan

>  <ATP_Site>  (789) 
nan

>  <Peripheral>  (789) 
nan

>  <Num_H_Atoms_ProtBoundConf>  (789) 
nan

>  <Num_Resolved_Atoms>  (789) 
nan

>  <Num_Not_Resolved_Atoms>  (789) 
nan

$$$$
CHEMBL3681199
     RDKit          3D

  0  0  0  0  0  0  0  0  0  0999 V3000
M  V30 BEGIN CTAB
M  V30 COUNTS 66 69 0 0 0
M  V30 BEGIN ATOM
M  V30 1 C 6.286048 -6.035643 2.462747 0
M  V30 2 O 5.452300 -5.176922 1.683314 0
M  V30 3 C 5.524516 -3.794853 1.816421 0
M  V30 4 C 4.703527 -2.991116 1.047187 0
M  V30 5 C 4.772875 -1.599911 1.178161 0
M  V30 6 C 3.923974 -0.711458 0.387253 0
M  V30 7 C 3.230098 0.389445 0.889940 0
M  V30 8 C 2.563616 0.927672 -0.218772 0
M  V30 9 C 1.745667 2.113105 0.036215 0
M  V30 10 O 2.124233 3.334834 0.053999 0
M  V30 11 N 0.343293 1.879003 0.299558 0
M  V30 12 C -0.689068 2.865326 0.583885 0 CFG=1
M  V30 13 C -1.832305 2.837775 -0.383163 0
M  V30 14 C -3.155222 2.481775 0.296102 0
M  V30 15 C -2.920729 1.136907 0.951442 0 CFG=2
M  V30 16 N -4.177694 0.542831 1.391026 0
M  V30 17 C -4.674387 -0.603046 0.769566 0
M  V30 18 O -4.035575 -1.147893 -0.194371 0
M  V30 19 C -5.924461 -1.337673 1.083595 0
M  V30 20 C -6.121371 -2.532664 0.188464 0
M  V30 21 C -6.200714 -2.143395 -1.272333 0
M  V30 22 C -5.036329 -3.560905 0.425622 0
M  V30 23 O -7.344391 -3.109333 0.528765 0
M  V30 24 C -1.949855 1.330076 2.060551 0
M  V30 25 C -1.250506 2.671751 1.984887 0
M  V30 26 C 2.855781 0.170043 -1.333999 0
M  V30 27 C 2.390157 0.380343 -2.614930 0
M  V30 28 N 1.515797 1.456933 -2.933200 0
M  V30 29 N 2.797150 -0.479619 -3.565490 0
M  V30 30 C 3.627769 -1.474496 -3.176855 0
M  V30 31 N 4.045905 -1.622716 -1.901761 0
M  V30 32 N 3.681058 -0.812921 -0.931212 0
M  V30 33 C 5.678650 -1.047563 2.092141 0
M  V30 34 C 6.483674 -1.880818 2.844526 0
M  V30 35 N 6.381978 -3.214916 2.684421 0
M  V30 36 H 5.779002 -6.242800 3.436791 0
M  V30 37 H 6.420204 -6.994649 1.922181 0
M  V30 38 H 7.252569 -5.584149 2.688328 0
M  V30 39 H 3.989528 -3.379882 0.330100 0
M  V30 40 H 3.270864 0.674536 1.933450 0
M  V30 41 H -0.106901 0.922041 0.314519 0
M  V30 42 H -0.247313 3.904847 0.579483 0
M  V30 43 H -1.656953 2.181387 -1.249269 0
M  V30 44 H -2.017478 3.861394 -0.816274 0
M  V30 45 H -3.946968 2.424889 -0.482396 0
M  V30 46 H -3.482878 3.246241 1.002062 0
M  V30 47 H -2.565741 0.478306 0.120503 0
M  V30 48 H -4.767751 0.919220 2.169505 0
M  V30 49 H -6.781067 -0.646566 0.971023 0
M  V30 50 H -5.824587 -1.723044 2.120007 0
M  V30 51 H -6.458881 -1.080241 -1.408848 0
M  V30 52 H -6.987787 -2.727396 -1.831497 0
M  V30 53 H -5.244473 -2.449940 -1.754395 0
M  V30 54 H -4.514806 -3.374997 1.386569 0
M  V30 55 H -4.328722 -3.616257 -0.447469 0
M  V30 56 H -5.441144 -4.595490 0.511075 0
M  V30 57 H -7.163185 -3.813637 1.200846 0
M  V30 58 H -1.193328 0.514937 2.132545 0
M  V30 59 H -2.555836 1.375620 3.013052 0
M  V30 60 H -0.348809 2.682638 2.668398 0
M  V30 61 H -1.894310 3.519841 2.231899 0
M  V30 62 H 0.566956 1.293705 -2.521033 0
M  V30 63 H 1.941121 2.213983 -3.505818 0
M  V30 64 H 4.043826 -2.253703 -3.838335 0
M  V30 65 H 5.785668 0.018095 2.244836 0
M  V30 66 H 7.220503 -1.563186 3.581699 0
M  V30 END ATOM
M  V30 BEGIN BOND
M  V30 1 1 1 2
M  V30 2 1 2 3
M  V30 3 2 3 4
M  V30 4 1 4 5
M  V30 5 1 5 6
M  V30 6 2 6 7
M  V30 7 1 7 8
M  V30 8 1 8 9
M  V30 9 2 9 10
M  V30 10 1 9 11
M  V30 11 1 11 12
M  V30 12 1 12 13
M  V30 13 1 13 14
M  V30 14 1 14 15
M  V30 15 1 15 16
M  V30 16 1 16 17
M  V30 17 2 17 18
M  V30 18 1 17 19
M  V30 19 1 19 20
M  V30 20 1 20 21
M  V30 21 1 20 22
M  V30 22 1 20 23
M  V30 23 1 15 24
M  V30 24 1 24 25
M  V30 25 2 8 26
M  V30 26 1 26 27
M  V30 27 1 27 28
M  V30 28 2 27 29
M  V30 29 1 29 30
M  V30 30 2 30 31
M  V30 31 1 31 32
M  V30 32 2 5 33
M  V30 33 1 33 34
M  V30 34 2 34 35
M  V30 35 1 35 3
M  V30 36 1 32 6
M  V30 37 1 25 12
M  V30 38 1 32 26
M  V30 39 1 1 36
M  V30 40 1 1 37
M  V30 41 1 1 38
M  V30 42 1 4 39
M  V30 43 1 7 40
M  V30 44 1 11 41
M  V30 45 1 12 42 CFG=1
M  V30 46 1 13 43
M  V30 47 1 13 44
M  V30 48 1 14 45
M  V30 49 1 14 46
M  V30 50 1 15 47 CFG=3
M  V30 51 1 16 48
M  V30 52 1 19 49
M  V30 53 1 19 50
M  V30 54 1 21 51
M  V30 55 1 21 52
M  V30 56 1 21 53
M  V30 57 1 22 54
M  V30 58 1 22 55
M  V30 59 1 22 56
M  V30 60 1 23 57
M  V30 61 1 24 58
M  V30 62 1 24 59
M  V30 63 1 25 60
M  V30 64 1 25 61
M  V30 65 1 28 62
M  V30 66 1 28 63
M  V30 67 1 30 64
M  V30 68 1 33 65
M  V30 69 1 34 66
M  V30 END BOND
M  V30 END CTAB
M  END
>  <Dataset>  (790) 
ChEMBL_Kinases

>  <Ligand_Instance>  (790) 
nan

>  <PDB_ID>  (790) 
nan

>  <Standardized_SMILES>  (790) 
COc1cc(-c2cc(C(=O)N[C@H]3CC[C@H](NC(=O)CC(C)(C)O)CC3)c3c(N)ncnn23)ccn1

>  <Name>  (790) 
nan

>  <Pocket>  (790) 
nan

>  <ATP_Site>  (790) 
nan

>  <Peripheral>  (790) 
nan

>  <Num_H_Atoms_ProtBoundConf>  (790) 
nan

>  <Num_Resolved_Atoms>  (790) 
nan

>  <Num_Not_Resolved_Atoms>  (790) 
nan

$$$$
CHEMBL4586588
     RDKit          3D

  0  0  0  0  0  0  0  0  0  0999 V3000
M  V30 BEGIN CTAB
M  V30 COUNTS 41 43 0 0 0
M  V30 BEGIN ATOM
M  V30 1 C 0.331335 -4.670879 3.553835 0
M  V30 2 O -0.770470 -3.784086 3.355299 0
M  V30 3 C -0.696533 -2.775138 2.404573 0
M  V30 4 C 0.453943 -2.642887 1.656828 0
M  V30 5 C 0.458433 -1.621223 0.732616 0
M  V30 6 N 1.625852 -1.458490 -0.065383 0
M  V30 7 C 2.065339 -0.504077 -1.023080 0
M  V30 8 C 2.328723 -0.867131 -2.338054 0
M  V30 9 C 2.758269 -0.006287 -3.322866 0
M  V30 10 N 2.925713 1.274767 -2.951623 0
M  V30 11 C 2.702982 1.740996 -1.710976 0
M  V30 12 C 2.902105 3.073536 -1.403623 0
M  V30 13 C 2.661636 3.504260 -0.101840 0
M  V30 14 C 2.230173 2.621219 0.876429 0
M  V30 15 C 2.050051 1.302702 0.505060 0
M  V30 16 C 2.274931 0.834858 -0.767685 0
M  V30 17 C -0.645509 -0.807277 0.601252 0
M  V30 18 C -1.791583 -0.949262 1.355367 0
M  V30 19 O -2.864190 -0.086809 1.163123 0
M  V30 20 C -2.701857 0.915598 0.170052 0
M  V30 21 C -1.809374 -1.968698 2.284843 0
M  V30 22 O -2.941309 -2.153320 3.069702 0
M  V30 23 C -3.012905 -1.456291 4.321148 0
M  V30 24 H 1.221742 -4.018025 3.663467 0
M  V30 25 H 0.200862 -5.267209 4.474678 0
M  V30 26 H 0.447112 -5.356925 2.706205 0
M  V30 27 H 1.317374 -3.284228 1.763704 0
M  V30 28 H 2.410627 -2.133640 -0.023599 0
M  V30 29 H 2.190534 -1.900392 -2.624953 0
M  V30 30 H 2.939732 -0.373485 -4.322625 0
M  V30 31 H 3.237781 3.782491 -2.146333 0
M  V30 32 H 2.814699 4.550417 0.151938 0
M  V30 33 H 2.047446 2.981610 1.893616 0
M  V30 34 H 1.719087 0.649546 1.299539 0
M  V30 35 H -0.546477 -0.025828 -0.157888 0
M  V30 36 H -1.827432 1.558122 0.378056 0
M  V30 37 H -3.632052 1.483943 0.011982 0
M  V30 38 H -2.469647 0.449808 -0.830711 0
M  V30 39 H -2.783377 -2.135301 5.170033 0
M  V30 40 H -4.006433 -0.957230 4.447416 0
M  V30 41 H -2.264499 -0.615807 4.335560 0
M  V30 END ATOM
M  V30 BEGIN BOND
M  V30 1 1 1 2
M  V30 2 1 2 3
M  V30 3 2 3 4
M  V30 4 1 4 5
M  V30 5 1 5 6
M  V30 6 1 6 7
M  V30 7 2 7 8
M  V30 8 1 8 9
M  V30 9 2 9 10
M  V30 10 1 10 11
M  V30 11 2 11 12
M  V30 12 1 12 13
M  V30 13 2 13 14
M  V30 14 1 14 15
M  V30 15 2 15 16
M  V30 16 2 5 17
M  V30 17 1 17 18
M  V30 18 1 18 19
M  V30 19 1 19 20
M  V30 20 2 18 21
M  V30 21 1 21 22
M  V30 22 1 22 23
M  V30 23 1 21 3
M  V30 24 1 16 7
M  V30 25 1 16 11
M  V30 26 1 1 24
M  V30 27 1 1 25
M  V30 28 1 1 26
M  V30 29 1 4 27
M  V30 30 1 6 28
M  V30 31 1 8 29
M  V30 32 1 9 30
M  V30 33 1 12 31
M  V30 34 1 13 32
M  V30 35 1 14 33
M  V30 36 1 15 34
M  V30 37 1 17 35
M  V30 38 1 20 36
M  V30 39 1 20 37
M  V30 40 1 20 38
M  V30 41 1 23 39
M  V30 42 1 23 40
M  V30 43 1 23 41
M  V30 END BOND
M  V30 END CTAB
M  END
>  <Dataset>  (791) 
ChEMBL_Kinases

>  <Ligand_Instance>  (791) 
nan

>  <PDB_ID>  (791) 
nan

>  <Standardized_SMILES>  (791) 
COc1cc(Nc2ccnc3ccccc23)cc(OC)c1OC

>  <Name>  (791) 
nan

>  <Pocket>  (791) 
nan

>  <ATP_Site>  (791) 
nan

>  <Peripheral>  (791) 
nan

>  <Num_H_Atoms_ProtBoundConf>  (791) 
nan

>  <Num_Resolved_Atoms>  (791) 
nan

>  <Num_Not_Resolved_Atoms>  (791) 
nan

$$$$
CHEMBL3681198
     RDKit          3D

  0  0  0  0  0  0  0  0  0  0999 V3000
M  V30 BEGIN CTAB
M  V30 COUNTS 43 46 0 0 0
M  V30 BEGIN ATOM
M  V30 1 N -0.693224 -0.527073 4.179621 0
M  V30 2 C -1.191348 0.572835 3.403516 0
M  V30 3 N -2.177218 1.317569 3.878062 0
M  V30 4 C -2.653489 2.352767 3.176190 0
M  V30 5 N -2.119454 2.645519 1.960168 0
M  V30 6 N -1.126901 1.914168 1.457547 0
M  V30 7 C -0.385941 1.927036 0.308579 0
M  V30 8 C -0.656200 2.956466 -0.713372 0
M  V30 9 C 0.495520 3.570377 -1.209648 0
M  V30 10 C 0.246056 4.528884 -2.185361 0
M  V30 11 N -0.987423 4.862630 -2.637433 0
M  V30 12 C -2.084453 4.241262 -2.128057 0
M  V30 13 C -1.901049 3.281049 -1.157688 0
M  V30 14 C 0.521721 0.894758 0.345334 0
M  V30 15 C 0.362802 0.207457 1.533656 0
M  V30 16 C 1.193336 -0.954134 1.797415 0
M  V30 17 O 1.995657 -1.017596 2.769000 0
M  V30 18 N 1.095435 -2.093024 0.903446 0
M  V30 19 C 1.800867 -3.353276 0.933108 0
M  V30 20 C 0.946206 -4.480168 1.480562 0
M  V30 21 C 1.966225 -5.562576 1.813809 0
M  V30 22 O 2.412775 -6.036594 0.577455 0
M  V30 23 C 3.167104 -5.087784 -0.068924 0
M  V30 24 C 2.403051 -3.790910 -0.348709 0
M  V30 25 C -0.658889 0.877116 2.172789 0
M  V30 26 H -0.923950 -1.539087 3.955198 0
M  V30 27 H -0.119352 -0.068036 4.921254 0
M  V30 28 H -3.465862 2.952757 3.586035 0
M  V30 29 H 1.486090 3.317371 -0.861218 0
M  V30 30 H 1.120020 5.036892 -2.605008 0
M  V30 31 H -3.105127 4.453236 -2.439592 0
M  V30 32 H -2.666945 2.712706 -0.671830 0
M  V30 33 H 1.162926 0.828579 -0.546630 0
M  V30 34 H 0.433290 -2.089534 0.068567 0
M  V30 35 H 2.599383 -3.228006 1.685814 0
M  V30 36 H 0.305239 -4.928253 0.693268 0
M  V30 37 H 0.436140 -4.213091 2.405481 0
M  V30 38 H 2.826043 -5.042153 2.300346 0
M  V30 39 H 1.591859 -6.328106 2.491242 0
M  V30 40 H 4.016549 -4.813859 0.595374 0
M  V30 41 H 3.507714 -5.534280 -1.034393 0
M  V30 42 H 1.659026 -4.067695 -1.127702 0
M  V30 43 H 3.140756 -3.075579 -0.768479 0
M  V30 END ATOM
M  V30 BEGIN BOND
M  V30 1 1 1 2
M  V30 2 2 2 3
M  V30 3 1 3 4
M  V30 4 2 4 5
M  V30 5 1 5 6
M  V30 6 1 6 7
M  V30 7 1 7 8
M  V30 8 2 8 9
M  V30 9 1 9 10
M  V30 10 2 10 11
M  V30 11 1 11 12
M  V30 12 2 12 13
M  V30 13 2 7 14
M  V30 14 1 14 15
M  V30 15 1 15 16
M  V30 16 2 16 17
M  V30 17 1 16 18
M  V30 18 1 18 19
M  V30 19 1 19 20
M  V30 20 1 20 21
M  V30 21 1 21 22
M  V30 22 1 22 23
M  V30 23 1 23 24
M  V30 24 2 15 25
M  V30 25 1 25 2
M  V30 26 1 25 6
M  V30 27 1 13 8
M  V30 28 1 24 19
M  V30 29 1 1 26
M  V30 30 1 1 27
M  V30 31 1 4 28
M  V30 32 1 9 29
M  V30 33 1 10 30
M  V30 34 1 12 31
M  V30 35 1 13 32
M  V30 36 1 14 33
M  V30 37 1 18 34
M  V30 38 1 19 35
M  V30 39 1 20 36
M  V30 40 1 20 37
M  V30 41 1 21 38
M  V30 42 1 21 39
M  V30 43 1 23 40
M  V30 44 1 23 41
M  V30 45 1 24 42
M  V30 46 1 24 43
M  V30 END BOND
M  V30 END CTAB
M  END
>  <Dataset>  (792) 
ChEMBL_Kinases

>  <Ligand_Instance>  (792) 
nan

>  <PDB_ID>  (792) 
nan

>  <Standardized_SMILES>  (792) 
Nc1ncnn2c(-c3ccncc3)cc(C(=O)NC3CCOCC3)c12

>  <Name>  (792) 
nan

>  <Pocket>  (792) 
nan

>  <ATP_Site>  (792) 
nan

>  <Peripheral>  (792) 
nan

>  <Num_H_Atoms_ProtBoundConf>  (792) 
nan

>  <Num_Resolved_Atoms>  (792) 
nan

>  <Num_Not_Resolved_Atoms>  (792) 
nan

$$$$
CHEMBL3093247
     RDKit          3D

  0  0  0  0  0  0  0  0  0  0999 V3000
M  V30 BEGIN CTAB
M  V30 COUNTS 61 66 0 0 0
M  V30 BEGIN ATOM
M  V30 1 N 1.326035 -3.400137 3.732022 0
M  V30 2 C 1.867933 -2.092942 3.548484 0
M  V30 3 N 2.722007 -1.530031 4.424221 0
M  V30 4 C 3.237361 -0.289748 4.251217 0
M  V30 5 C 2.887066 0.448314 3.137449 0
M  V30 6 C 3.380017 1.796661 2.847566 0
M  V30 7 C 3.739635 2.841351 3.701027 0
M  V30 8 N 4.129924 3.874307 2.908575 0
M  V30 9 N 4.040579 3.553124 1.644950 0
M  V30 10 C 4.387836 4.445472 0.530182 0
M  V30 11 C 3.809647 3.887573 -0.775856 0
M  V30 12 C 2.293185 4.025317 -0.649416 0
M  V30 13 N 1.990738 5.410774 -0.910324 0
M  V30 14 C 3.001492 6.311787 -0.453988 0
M  V30 15 C 3.819940 5.815169 0.702715 0
M  V30 16 C 3.580912 2.277072 1.559967 0
M  V30 17 C 2.009849 -0.150198 2.253626 0
M  V30 18 C 1.472783 -1.399585 2.400266 0
M  V30 19 C 0.550146 -1.945145 1.407622 0
M  V30 20 N 0.116880 -1.337059 0.267209 0
M  V30 21 C -0.711752 -2.241877 -0.300317 0
M  V30 22 C -1.427902 -2.140139 -1.479738 0
M  V30 23 C -2.239086 -3.166423 -1.925242 0
M  V30 24 C -2.280222 -4.301276 -1.103170 0
M  V30 25 N -3.135891 -5.353357 -1.595019 0
M  V30 26 C -4.428166 -5.148597 -1.067532 0
M  V30 27 O -4.529150 -4.137189 -0.321417 0
M  V30 28 C -5.613795 -5.965521 -1.294925 0
M  V30 29 C -6.780020 -5.574836 -0.669874 0
M  V30 30 C -7.938051 -6.299191 -0.839601 0
M  V30 31 C -7.928787 -7.409809 -1.631623 0
M  V30 32 F -9.112446 -8.071300 -1.749683 0
M  V30 33 C -6.777863 -7.830280 -2.273411 0
M  V30 34 C -5.611144 -7.088433 -2.093782 0
M  V30 35 C -1.587905 -4.430004 0.060668 0
M  V30 36 C -0.783663 -3.392341 0.486729 0
M  V30 37 O 0.008093 -3.132357 1.500763 0
M  V30 38 H 0.287680 -3.562051 3.784381 0
M  V30 39 H 1.756570 -4.348411 3.839970 0
M  V30 40 H 3.921475 0.168484 4.945992 0
M  V30 41 H 3.684698 2.752807 4.790247 0
M  V30 42 H 5.490810 4.427360 0.397090 0
M  V30 43 H 4.198671 4.573444 -1.566382 0
M  V30 44 H 4.133999 2.849151 -0.905163 0
M  V30 45 H 1.991776 3.788250 0.389710 0
M  V30 46 H 1.798562 3.369624 -1.395448 0
M  V30 47 H 1.018776 5.687537 -0.736385 0
M  V30 48 H 2.504159 7.246302 -0.122769 0
M  V30 49 H 3.671875 6.548162 -1.327176 0
M  V30 50 H 4.704100 6.515717 0.763717 0
M  V30 51 H 3.231650 5.936243 1.636713 0
M  V30 52 H 3.396724 1.714955 0.659453 0
M  V30 53 H 1.720973 0.407190 1.374670 0
M  V30 54 H -1.360654 -1.232049 -2.084742 0
M  V30 55 H -2.794617 -3.085264 -2.842424 0
M  V30 56 H -3.027480 -6.202181 -2.228909 0
M  V30 57 H -6.831913 -4.686067 -0.022480 0
M  V30 58 H -8.841268 -5.960533 -0.330018 0
M  V30 59 H -6.823645 -8.719228 -2.891389 0
M  V30 60 H -4.704272 -7.400357 -2.585314 0
M  V30 61 H -1.642679 -5.308847 0.661747 0
M  V30 END ATOM
M  V30 BEGIN BOND
M  V30 1 1 1 2
M  V30 2 2 2 3
M  V30 3 1 3 4
M  V30 4 2 4 5
M  V30 5 1 5 6
M  V30 6 1 6 7
M  V30 7 2 7 8
M  V30 8 1 8 9
M  V30 9 1 9 10
M  V30 10 1 10 11
M  V30 11 1 11 12
M  V30 12 1 12 13
M  V30 13 1 13 14
M  V30 14 1 14 15
M  V30 15 1 9 16
M  V30 16 1 5 17
M  V30 17 2 17 18
M  V30 18 1 18 19
M  V30 19 2 19 20
M  V30 20 1 20 21
M  V30 21 2 21 22
M  V30 22 1 22 23
M  V30 23 2 23 24
M  V30 24 1 24 25
M  V30 25 1 25 26
M  V30 26 2 26 27
M  V30 27 1 26 28
M  V30 28 2 28 29
M  V30 29 1 29 30
M  V30 30 2 30 31
M  V30 31 1 31 32
M  V30 32 1 31 33
M  V30 33 2 33 34
M  V30 34 1 24 35
M  V30 35 2 35 36
M  V30 36 1 36 37
M  V30 37 1 18 2
M  V30 38 1 37 19
M  V30 39 2 16 6
M  V30 40 1 36 21
M  V30 41 1 15 10
M  V30 42 1 34 28
M  V30 43 1 1 38
M  V30 44 1 1 39
M  V30 45 1 4 40
M  V30 46 1 7 41
M  V30 47 1 10 42
M  V30 48 1 11 43
M  V30 49 1 11 44
M  V30 50 1 12 45
M  V30 51 1 12 46
M  V30 52 1 13 47
M  V30 53 1 14 48
M  V30 54 1 14 49
M  V30 55 1 15 50
M  V30 56 1 15 51
M  V30 57 1 16 52
M  V30 58 1 17 53
M  V30 59 1 22 54
M  V30 60 1 23 55
M  V30 61 1 25 56
M  V30 62 1 29 57
M  V30 63 1 30 58
M  V30 64 1 33 59
M  V30 65 1 34 60
M  V30 66 1 35 61
M  V30 END BOND
M  V30 END CTAB
M  END
>  <Dataset>  (793) 
ChEMBL_Kinases

>  <Ligand_Instance>  (793) 
nan

>  <PDB_ID>  (793) 
nan

>  <Standardized_SMILES>  (793) 
Nc1ncc(-c2cnn(C3CCNCC3)c2)cc1-c1nc2ccc(NC(=O)c3ccc(F)cc3)cc2o1

>  <Name>  (793) 
nan

>  <Pocket>  (793) 
nan

>  <ATP_Site>  (793) 
nan

>  <Peripheral>  (793) 
nan

>  <Num_H_Atoms_ProtBoundConf>  (793) 
nan

>  <Num_Resolved_Atoms>  (793) 
nan

>  <Num_Not_Resolved_Atoms>  (793) 
nan

$$$$
CHEMBL3093248
     RDKit          3D

  0  0  0  0  0  0  0  0  0  0999 V3000
M  V30 BEGIN CTAB
M  V30 COUNTS 65 70 0 0 0
M  V30 BEGIN ATOM
M  V30 1 C 2.431164 -1.892985 5.105394 0
M  V30 2 O 2.784830 -1.918800 3.779901 0
M  V30 3 C 2.993757 -1.019117 2.813725 0
M  V30 4 C 3.328927 -1.566604 1.550607 0
M  V30 5 C 3.541436 -0.604986 0.517714 0
M  V30 6 C 3.370292 0.714395 1.002328 0
M  V30 7 C 3.269139 1.645344 -0.197603 0
M  V30 8 O 1.944423 1.478091 -0.162730 0
M  V30 9 N 3.217873 2.581087 -1.396211 0
M  V30 10 C 1.615864 2.638756 -1.684753 0
M  V30 11 C 1.499965 1.676474 -2.416042 0
M  V30 12 C 0.168175 1.089079 -2.259661 0
M  V30 13 C -0.519122 1.872131 -1.287646 0
M  V30 14 N -1.736985 1.446697 -0.879768 0
M  V30 15 C -2.141664 2.320600 0.117436 0
M  V30 16 C -3.314910 2.234445 0.902047 0
M  V30 17 C -3.179779 0.742686 1.174511 0
M  V30 18 C -3.711341 -0.391932 1.779184 0
M  V30 19 C -3.340676 -1.832665 1.631862 0
M  V30 20 C -3.690273 -3.013287 1.827731 0
M  V30 21 N -3.022832 -3.941330 1.147512 0
M  V30 22 N -2.116305 -3.341181 0.391967 0
M  V30 23 C -1.171650 -3.748238 -0.629011 0
M  V30 24 C -1.203244 -2.771962 -1.815810 0
M  V30 25 C -0.726609 -3.581029 -3.005301 0
M  V30 26 N 0.334091 -4.459494 -2.553012 0
M  V30 27 C 1.087921 -3.938700 -1.461590 0
M  V30 28 C 0.232064 -3.815278 -0.176156 0
M  V30 29 C -2.240294 -1.936176 0.625906 0
M  V30 30 C -4.879827 0.007280 2.425412 0
M  V30 31 N -5.234006 1.370087 2.332244 0
M  V30 32 C -4.410597 2.135889 1.623799 0
M  V30 33 N -4.648371 3.580500 1.436327 0
M  V30 34 O -1.231822 3.180342 0.254464 0
M  V30 35 C -0.207333 3.030406 -0.492566 0
M  V30 36 C 1.101493 3.588760 -0.694256 0
M  V30 37 C 3.055266 1.220371 2.211202 0
M  V30 38 C 2.850175 0.285108 3.185104 0
M  V30 39 H 2.750564 -0.987306 5.629418 0
M  V30 40 H 1.321256 -2.047784 5.271364 0
M  V30 41 H 2.868260 -2.828293 5.563326 0
M  V30 42 H 3.398680 -2.610270 1.507518 0
M  V30 43 H 3.809969 -1.029645 -0.415020 0
M  V30 44 H 4.209585 2.311402 -1.006095 0
M  V30 45 H 2.090673 1.141519 -3.125029 0
M  V30 46 H -0.276893 0.266688 -2.745146 0
M  V30 47 H -2.171570 0.218786 0.894859 0
M  V30 48 H -4.495045 -2.927978 2.571661 0
M  V30 49 H -1.507144 -4.757668 -0.973656 0
M  V30 50 H -0.483919 -1.962720 -1.615496 0
M  V30 51 H -2.202232 -2.327663 -1.966690 0
M  V30 52 H -1.599859 -4.203942 -3.318448 0
M  V30 53 H -0.416931 -2.950618 -3.873655 0
M  V30 54 H 0.961762 -4.655075 -3.341865 0
M  V30 55 H 1.640502 -3.015060 -1.691894 0
M  V30 56 H 1.877746 -4.713810 -1.235500 0
M  V30 57 H 0.458089 -4.598219 0.565143 0
M  V30 58 H 0.525174 -2.803990 0.249074 0
M  V30 59 H -1.545930 -1.327318 0.081287 0
M  V30 60 H -5.473411 -0.681255 2.963357 0
M  V30 61 H -4.284433 4.355128 2.015623 0
M  V30 62 H -5.237094 4.041269 0.700233 0
M  V30 63 H 1.436732 4.419185 -0.237806 0
M  V30 64 H 2.979502 2.331439 2.260656 0
M  V30 65 H 2.585690 0.670629 4.153315 0
M  V30 END ATOM
M  V30 BEGIN BOND
M  V30 1 1 1 2
M  V30 2 1 2 3
M  V30 3 2 3 4
M  V30 4 1 4 5
M  V30 5 2 5 6
M  V30 6 1 6 7
M  V30 7 2 7 8
M  V30 8 1 7 9
M  V30 9 1 9 10
M  V30 10 2 10 11
M  V30 11 1 11 12
M  V30 12 2 12 13
M  V30 13 1 13 14
M  V30 14 2 14 15
M  V30 15 1 15 16
M  V30 16 2 16 17
M  V30 17 1 17 18
M  V30 18 1 18 19
M  V30 19 1 19 20
M  V30 20 2 20 21
M  V30 21 1 21 22
M  V30 22 1 22 23
M  V30 23 1 23 24
M  V30 24 1 24 25
M  V30 25 1 25 26
M  V30 26 1 26 27
M  V30 27 1 27 28
M  V30 28 1 22 29
M  V30 29 2 18 30
M  V30 30 1 30 31
M  V30 31 2 31 32
M  V30 32 1 32 33
M  V30 33 1 15 34
M  V30 34 1 34 35
M  V30 35 2 35 36
M  V30 36 1 6 37
M  V30 37 2 37 38
M  V30 38 1 38 3
M  V30 39 1 36 10
M  V30 40 1 35 13
M  V30 41 1 32 16
M  V30 42 2 29 19
M  V30 43 1 28 23
M  V30 44 1 1 39
M  V30 45 1 1 40
M  V30 46 1 1 41
M  V30 47 1 4 42
M  V30 48 1 5 43
M  V30 49 1 9 44
M  V30 50 1 11 45
M  V30 51 1 12 46
M  V30 52 1 17 47
M  V30 53 1 20 48
M  V30 54 1 23 49
M  V30 55 1 24 50
M  V30 56 1 24 51
M  V30 57 1 25 52
M  V30 58 1 25 53
M  V30 59 1 26 54
M  V30 60 1 27 55
M  V30 61 1 27 56
M  V30 62 1 28 57
M  V30 63 1 28 58
M  V30 64 1 29 59
M  V30 65 1 30 60
M  V30 66 1 33 61
M  V30 67 1 33 62
M  V30 68 1 36 63
M  V30 69 1 37 64
M  V30 70 1 38 65
M  V30 END BOND
M  V30 END CTAB
M  END
>  <Dataset>  (794) 
ChEMBL_Kinases

>  <Ligand_Instance>  (794) 
nan

>  <PDB_ID>  (794) 
nan

>  <Standardized_SMILES>  (794) 
COc1ccc(C(=O)Nc2ccc3nc(-c4cc(-c5cnn(C6CCNCC6)c5)cnc4N)oc3c2)cc1

>  <Name>  (794) 
nan

>  <Pocket>  (794) 
nan

>  <ATP_Site>  (794) 
nan

>  <Peripheral>  (794) 
nan

>  <Num_H_Atoms_ProtBoundConf>  (794) 
nan

>  <Num_Resolved_Atoms>  (794) 
nan

>  <Num_Not_Resolved_Atoms>  (794) 
nan

$$$$
CHEMBL3681197
     RDKit          3D

  0  0  0  0  0  0  0  0  0  0999 V3000
M  V30 BEGIN CTAB
M  V30 COUNTS 52 55 0 0 0
M  V30 BEGIN ATOM
M  V30 1 C 0.156493 -4.539721 5.631525 0
M  V30 2 C 0.283656 -3.471614 4.588795 0
M  V30 3 O -0.525911 -2.517714 4.474321 0
M  V30 4 N 1.400862 -3.596231 3.706311 0
M  V30 5 C 1.542413 -2.559538 2.679512 0
M  V30 6 C 2.802619 -1.790319 2.942860 0
M  V30 7 C 3.238661 -0.921694 1.814606 0
M  V30 8 C 2.923721 -1.426946 0.443721 0
M  V30 9 N 1.800132 -0.694690 -0.101202 0
M  V30 10 C 1.533643 0.171211 -1.225940 0
M  V30 11 O 2.533717 0.351914 -1.938984 0
M  V30 12 C 0.143046 0.654861 -1.291433 0
M  V30 13 C -0.344161 1.922055 -1.047981 0
M  V30 14 C -1.707834 1.836429 -1.240688 0
M  V30 15 C -2.531741 3.026764 -1.053982 0
M  V30 16 C -2.297151 4.310119 -1.511610 0
M  V30 17 C -3.237119 5.271828 -1.195901 0
M  V30 18 N -4.344034 5.014100 -0.479271 0
M  V30 19 C -4.574177 3.764421 -0.033832 0
M  V30 20 C -3.670059 2.731123 -0.309943 0
M  V30 21 N -2.073643 0.589085 -1.587514 0
M  V30 22 N -3.261865 0.088385 -1.857704 0
M  V30 23 C -3.415864 -1.198571 -2.187146 0
M  V30 24 N -2.315597 -1.995056 -2.239904 0
M  V30 25 C -1.133542 -1.457121 -1.961503 0
M  V30 26 N -0.031632 -2.320401 -2.030422 0
M  V30 27 C -0.939490 -0.132638 -1.618262 0
M  V30 28 C 2.740234 -2.906147 0.484483 0
M  V30 29 C 1.542619 -3.234384 1.330131 0
M  V30 30 H -0.738771 -4.246695 6.248711 0
M  V30 31 H -0.102016 -5.521651 5.181948 0
M  V30 32 H 1.015723 -4.596971 6.305711 0
M  V30 33 H 2.135327 -4.340763 3.702155 0
M  V30 34 H 0.697202 -1.813946 2.772655 0
M  V30 35 H 2.572689 -1.101126 3.807258 0
M  V30 36 H 3.634254 -2.426544 3.332939 0
M  V30 37 H 4.348549 -0.783640 1.905000 0
M  V30 38 H 2.823108 0.118111 1.893738 0
M  V30 39 H 3.808393 -1.236731 -0.233530 0
M  V30 40 H 1.041523 -0.929608 0.578412 0
M  V30 41 H 0.343086 2.695324 -0.775662 0
M  V30 42 H -1.391834 4.423421 -2.075336 0
M  V30 43 H -3.010275 6.271766 -1.576013 0
M  V30 44 H -5.481871 3.620152 0.535922 0
M  V30 45 H -3.965379 1.785837 0.099714 0
M  V30 46 H -4.409102 -1.560158 -2.398922 0
M  V30 47 H 0.764850 -2.550899 -2.689879 0
M  V30 48 H 0.809686 -2.710458 -2.497728 0
M  V30 49 H 3.634664 -3.350272 0.968660 0
M  V30 50 H 2.544374 -3.351505 -0.517094 0
M  V30 51 H 0.638505 -2.908403 0.789876 0
M  V30 52 H 1.413660 -4.351293 1.442109 0
M  V30 END ATOM
M  V30 BEGIN BOND
M  V30 1 1 1 2
M  V30 2 2 2 3
M  V30 3 1 2 4
M  V30 4 1 4 5
M  V30 5 1 5 6
M  V30 6 1 6 7
M  V30 7 1 7 8
M  V30 8 1 8 9
M  V30 9 1 9 10
M  V30 10 2 10 11
M  V30 11 1 10 12
M  V30 12 1 12 13
M  V30 13 2 13 14
M  V30 14 1 14 15
M  V30 15 2 15 16
M  V30 16 1 16 17
M  V30 17 2 17 18
M  V30 18 1 18 19
M  V30 19 2 19 20
M  V30 20 1 14 21
M  V30 21 1 21 22
M  V30 22 2 22 23
M  V30 23 1 23 24
M  V30 24 2 24 25
M  V30 25 1 25 26
M  V30 26 1 25 27
M  V30 27 1 8 28
M  V30 28 1 28 29
M  V30 29 1 29 5
M  V30 30 2 27 12
M  V30 31 1 20 15
M  V30 32 1 27 21
M  V30 33 1 1 30
M  V30 34 1 1 31
M  V30 35 1 1 32
M  V30 36 1 4 33
M  V30 37 1 5 34
M  V30 38 1 6 35
M  V30 39 1 6 36
M  V30 40 1 7 37
M  V30 41 1 7 38
M  V30 42 1 8 39
M  V30 43 1 9 40
M  V30 44 1 13 41
M  V30 45 1 16 42
M  V30 46 1 17 43
M  V30 47 1 19 44
M  V30 48 1 20 45
M  V30 49 1 23 46
M  V30 50 1 26 47
M  V30 51 1 26 48
M  V30 52 1 28 49
M  V30 53 1 28 50
M  V30 54 1 29 51
M  V30 55 1 29 52
M  V30 END BOND
M  V30 END CTAB
M  END
>  <Dataset>  (795) 
ChEMBL_Kinases

>  <Ligand_Instance>  (795) 
nan

>  <PDB_ID>  (795) 
nan

>  <Standardized_SMILES>  (795) 
CC(=O)NC1CCC(NC(=O)c2cc(-c3ccncc3)n3ncnc(N)c23)CC1

>  <Name>  (795) 
nan

>  <Pocket>  (795) 
nan

>  <ATP_Site>  (795) 
nan

>  <Peripheral>  (795) 
nan

>  <Num_H_Atoms_ProtBoundConf>  (795) 
nan

>  <Num_Resolved_Atoms>  (795) 
nan

>  <Num_Not_Resolved_Atoms>  (795) 
nan

$$$$
CHEMBL3681196
     RDKit          3D

  0  0  0  0  0  0  0  0  0  0999 V3000
M  V30 BEGIN CTAB
M  V30 COUNTS 43 45 0 0 0
M  V30 BEGIN ATOM
M  V30 1 C -3.390690 -5.329391 1.393808 0
M  V30 2 N -3.935595 -4.452093 0.384025 0
M  V30 3 C -2.992477 -4.215018 -0.671274 0
M  V30 4 C -1.787557 -3.403033 -0.245652 0
M  V30 5 C -2.211133 -2.060115 0.257677 0
M  V30 6 N -1.120531 -1.214907 0.686615 0
M  V30 7 C -0.075832 -0.820334 -0.199624 0
M  V30 8 O -0.092975 -1.219646 -1.412460 0
M  V30 9 C 0.994745 0.047619 0.342327 0
M  V30 10 C 0.841529 1.428945 0.395865 0
M  V30 11 C 1.989365 1.962755 0.943047 0
M  V30 12 C 2.361515 3.345149 1.227953 0
M  V30 13 C 1.324048 4.045478 1.845741 0
M  V30 14 C 1.464595 5.365489 2.201609 0
M  V30 15 N 2.643016 5.989230 1.940771 0
M  V30 16 C 3.648420 5.320925 1.345435 0
M  V30 17 C 3.532453 3.985774 0.975215 0
M  V30 18 N 2.822918 0.941371 1.217913 0
M  V30 19 N 4.035417 0.842403 1.739538 0
M  V30 20 C 4.657738 -0.356597 1.907729 0
M  V30 21 N 4.073494 -1.525052 1.550767 0
M  V30 22 C 2.823533 -1.460769 1.010071 0
M  V30 23 N 2.174096 -2.671445 0.621322 0
M  V30 24 C 2.246059 -0.221526 0.865045 0
M  V30 25 H -4.174966 -5.387221 2.202293 0
M  V30 26 H -3.219838 -6.330935 0.968662 0
M  V30 27 H -2.443173 -4.913582 1.835450 0
M  V30 28 H -4.349436 -3.587167 0.773000 0
M  V30 29 H -3.513630 -3.588974 -1.441285 0
M  V30 30 H -2.718128 -5.192308 -1.108854 0
M  V30 31 H -1.128387 -3.940272 0.457104 0
M  V30 32 H -1.173954 -3.274887 -1.182274 0
M  V30 33 H -2.832906 -1.586761 -0.536788 0
M  V30 34 H -2.888231 -2.225275 1.119706 0
M  V30 35 H -1.073145 -0.862798 1.688855 0
M  V30 36 H 0.024713 2.096264 0.097579 0
M  V30 37 H 0.342123 3.632383 2.095747 0
M  V30 38 H 0.686700 5.941207 2.680366 0
M  V30 39 H 4.596869 5.786509 1.124311 0
M  V30 40 H 4.275750 3.384262 0.501236 0
M  V30 41 H 5.658476 -0.440449 2.337832 0
M  V30 42 H 1.963200 -3.415268 1.347922 0
M  V30 43 H 1.916781 -2.799321 -0.395536 0
M  V30 END ATOM
M  V30 BEGIN BOND
M  V30 1 1 1 2
M  V30 2 1 2 3
M  V30 3 1 3 4
M  V30 4 1 4 5
M  V30 5 1 5 6
M  V30 6 1 6 7
M  V30 7 2 7 8
M  V30 8 1 7 9
M  V30 9 1 9 10
M  V30 10 2 10 11
M  V30 11 1 11 12
M  V30 12 2 12 13
M  V30 13 1 13 14
M  V30 14 2 14 15
M  V30 15 1 15 16
M  V30 16 2 16 17
M  V30 17 1 11 18
M  V30 18 1 18 19
M  V30 19 2 19 20
M  V30 20 1 20 21
M  V30 21 2 21 22
M  V30 22 1 22 23
M  V30 23 1 22 24
M  V30 24 2 24 9
M  V30 25 1 17 12
M  V30 26 1 24 18
M  V30 27 1 1 25
M  V30 28 1 1 26
M  V30 29 1 1 27
M  V30 30 1 2 28
M  V30 31 1 3 29
M  V30 32 1 3 30
M  V30 33 1 4 31
M  V30 34 1 4 32
M  V30 35 1 5 33
M  V30 36 1 5 34
M  V30 37 1 6 35
M  V30 38 1 10 36
M  V30 39 1 13 37
M  V30 40 1 14 38
M  V30 41 1 16 39
M  V30 42 1 17 40
M  V30 43 1 20 41
M  V30 44 1 23 42
M  V30 45 1 23 43
M  V30 END BOND
M  V30 END CTAB
M  END
>  <Dataset>  (796) 
ChEMBL_Kinases

>  <Ligand_Instance>  (796) 
nan

>  <PDB_ID>  (796) 
nan

>  <Standardized_SMILES>  (796) 
CNCCCNC(=O)c1cc(-c2ccncc2)n2ncnc(N)c12

>  <Name>  (796) 
nan

>  <Pocket>  (796) 
nan

>  <ATP_Site>  (796) 
nan

>  <Peripheral>  (796) 
nan

>  <Num_H_Atoms_ProtBoundConf>  (796) 
nan

>  <Num_Resolved_Atoms>  (796) 
nan

>  <Num_Not_Resolved_Atoms>  (796) 
nan

$$$$
CHEMBL3681195
     RDKit          3D

  0  0  0  0  0  0  0  0  0  0999 V3000
M  V30 BEGIN CTAB
M  V30 COUNTS 56 59 0 0 0
M  V30 BEGIN ATOM
M  V30 1 C 6.935605 -0.293756 3.273277 0
M  V30 2 C 6.957106 -1.447351 2.282564 0
M  V30 3 O 6.333971 -1.070323 1.067891 0
M  V30 4 C 4.995679 -0.707481 1.074197 0
M  V30 5 O 4.255950 -0.696033 2.090421 0
M  V30 6 N 4.374240 -0.316054 -0.118344 0
M  V30 7 C 3.006661 0.085832 -0.347416 0 CFG=1
M  V30 8 C 2.906438 1.576090 -0.624215 0
M  V30 9 C 1.465522 1.980663 -0.814577 0
M  V30 10 C 0.650580 1.004684 -1.602729 0 CFG=2
M  V30 11 N -0.265107 0.239586 -0.782683 0
M  V30 12 C -1.654997 0.297045 -0.908380 0
M  V30 13 O -2.301840 1.018720 -1.742741 0
M  V30 14 C -2.710706 -0.385660 -0.192185 0
M  V30 15 C -3.655797 -0.033219 0.744750 0
M  V30 16 C -4.420964 -1.122613 1.099338 0
M  V30 17 C -5.526292 -1.196815 2.047442 0
M  V30 18 C -5.631860 -2.246909 2.956457 0
M  V30 19 C -6.747838 -2.200573 3.803871 0
M  V30 20 N -7.682506 -1.237954 3.787091 0
M  V30 21 C -7.586384 -0.207449 2.900960 0
M  V30 22 C -6.502261 -0.222316 2.054393 0
M  V30 23 N -3.934772 -2.161723 0.364765 0
M  V30 24 N -4.363688 -3.424774 0.376345 0
M  V30 25 C -3.779080 -4.344179 -0.404109 0
M  V30 26 N -2.752329 -3.985739 -1.203379 0
M  V30 27 C -2.353956 -2.711900 -1.186466 0
M  V30 28 N -1.295342 -2.377738 -2.063908 0
M  V30 29 C -2.936688 -1.748037 -0.394341 0
M  V30 30 C 1.576672 0.151856 -2.407708 0
M  V30 31 C 2.527531 -0.660904 -1.562694 0
M  V30 32 H 7.964213 0.154459 3.372584 0
M  V30 33 H 6.194971 0.459714 2.919677 0
M  V30 34 H 6.689536 -0.640642 4.296434 0
M  V30 35 H 6.501872 -2.361512 2.721380 0
M  V30 36 H 8.012044 -1.685874 2.049204 0
M  V30 37 H 4.967098 -0.303065 -0.997983 0
M  V30 38 H 2.432567 -0.169527 0.568293 0
M  V30 39 H 3.448636 1.770280 -1.566477 0
M  V30 40 H 3.280655 2.194730 0.195925 0
M  V30 41 H 0.944913 2.058453 0.188142 0
M  V30 42 H 1.363058 3.000072 -1.235946 0
M  V30 43 H 0.042265 1.596718 -2.345283 0
M  V30 44 H 0.041267 -0.416066 -0.032470 0
M  V30 45 H -3.731232 0.963102 1.105178 0
M  V30 46 H -4.879093 -2.993395 2.942636 0
M  V30 47 H -6.841564 -3.015327 4.522164 0
M  V30 48 H -8.352520 0.554770 2.910397 0
M  V30 49 H -6.475346 0.622027 1.366838 0
M  V30 50 H -4.202106 -5.332230 -0.317722 0
M  V30 51 H -0.981428 -2.072697 -3.008647 0
M  V30 52 H -0.358178 -2.462609 -1.549066 0
M  V30 53 H 1.007111 -0.513149 -3.105467 0
M  V30 54 H 2.192229 0.821367 -3.049967 0
M  V30 55 H 2.063933 -1.604396 -1.220889 0
M  V30 56 H 3.415057 -0.986043 -2.173980 0
M  V30 END ATOM
M  V30 BEGIN BOND
M  V30 1 1 1 2
M  V30 2 1 2 3
M  V30 3 1 3 4
M  V30 4 2 4 5
M  V30 5 1 4 6
M  V30 6 1 6 7
M  V30 7 1 7 8
M  V30 8 1 8 9
M  V30 9 1 9 10
M  V30 10 1 10 11
M  V30 11 1 11 12
M  V30 12 2 12 13
M  V30 13 1 12 14
M  V30 14 1 14 15
M  V30 15 2 15 16
M  V30 16 1 16 17
M  V30 17 2 17 18
M  V30 18 1 18 19
M  V30 19 2 19 20
M  V30 20 1 20 21
M  V30 21 2 21 22
M  V30 22 1 16 23
M  V30 23 1 23 24
M  V30 24 2 24 25
M  V30 25 1 25 26
M  V30 26 2 26 27
M  V30 27 1 27 28
M  V30 28 1 27 29
M  V30 29 1 10 30
M  V30 30 1 30 31
M  V30 31 1 31 7
M  V30 32 2 29 14
M  V30 33 1 22 17
M  V30 34 1 29 23
M  V30 35 1 1 32
M  V30 36 1 1 33
M  V30 37 1 1 34
M  V30 38 1 2 35
M  V30 39 1 2 36
M  V30 40 1 6 37
M  V30 41 1 7 38 CFG=1
M  V30 42 1 8 39
M  V30 43 1 8 40
M  V30 44 1 9 41
M  V30 45 1 9 42
M  V30 46 1 10 43 CFG=3
M  V30 47 1 11 44
M  V30 48 1 15 45
M  V30 49 1 18 46
M  V30 50 1 19 47
M  V30 51 1 21 48
M  V30 52 1 22 49
M  V30 53 1 25 50
M  V30 54 1 28 51
M  V30 55 1 28 52
M  V30 56 1 30 53
M  V30 57 1 30 54
M  V30 58 1 31 55
M  V30 59 1 31 56
M  V30 END BOND
M  V30 END CTAB
M  END
>  <Dataset>  (797) 
ChEMBL_Kinases

>  <Ligand_Instance>  (797) 
nan

>  <PDB_ID>  (797) 
nan

>  <Standardized_SMILES>  (797) 
CCOC(=O)N[C@H]1CC[C@H](NC(=O)c2cc(-c3ccncc3)n3ncnc(N)c23)CC1

>  <Name>  (797) 
nan

>  <Pocket>  (797) 
nan

>  <ATP_Site>  (797) 
nan

>  <Peripheral>  (797) 
nan

>  <Num_H_Atoms_ProtBoundConf>  (797) 
nan

>  <Num_Resolved_Atoms>  (797) 
nan

>  <Num_Not_Resolved_Atoms>  (797) 
nan

$$$$
CHEMBL4586530
     RDKit          3D

  0  0  0  0  0  0  0  0  0  0999 V3000
M  V30 BEGIN CTAB
M  V30 COUNTS 45 47 0 0 0
M  V30 BEGIN ATOM
M  V30 1 C -1.864738 -3.683810 5.327473 0
M  V30 2 O -2.817319 -3.196657 4.395820 0
M  V30 3 C -2.453210 -2.653544 3.171309 0
M  V30 4 C -1.191099 -2.484689 2.641090 0
M  V30 5 C -1.049432 -1.916642 1.391572 0
M  V30 6 C -2.089492 -1.497805 0.619699 0
M  V30 7 C -1.819036 -0.945082 -0.622313 0
M  V30 8 N -0.544929 -0.770384 -1.171858 0
M  V30 9 C 0.591550 -0.047903 -0.814438 0
M  V30 10 C 0.668850 0.832707 0.244871 0
M  V30 11 C 1.798948 1.544370 0.592866 0
M  V30 12 O 1.838449 2.415354 1.658152 0
M  V30 13 C 0.806011 2.724577 2.534227 0
M  V30 14 C 2.944346 1.377885 -0.159405 0
M  V30 15 O 4.105755 2.074338 0.154710 0
M  V30 16 C 4.997473 1.445980 1.059416 0
M  V30 17 C 2.872206 0.489943 -1.230247 0
M  V30 18 O 4.051596 0.357870 -1.955723 0
M  V30 19 C 4.082473 -0.530995 -3.076482 0
M  V30 20 C 1.735950 -0.215625 -1.567764 0
M  V30 21 C -2.987345 -0.568239 -1.299250 0
M  V30 22 C -4.272624 -0.713744 -0.818627 0
M  V30 23 N -4.399253 -1.264445 0.402182 0
M  V30 24 C -3.355418 -1.664489 1.144980 0
M  V30 25 C -3.529448 -2.233974 2.401819 0
M  V30 26 H -2.253732 -4.541794 5.908470 0
M  V30 27 H -0.990989 -4.115346 4.756076 0
M  V30 28 H -1.424375 -2.883016 5.949421 0
M  V30 29 H -0.396301 -2.830682 3.287243 0
M  V30 30 H -0.035637 -1.825869 1.049792 0
M  V30 31 H -0.579066 -1.359751 -2.030096 0
M  V30 32 H -0.248714 0.943776 0.819672 0
M  V30 33 H -0.081668 2.097763 2.493122 0
M  V30 34 H 1.235496 2.831642 3.550399 0
M  V30 35 H 0.468414 3.768949 2.271437 0
M  V30 36 H 5.022600 2.042306 2.016853 0
M  V30 37 H 4.655931 0.438531 1.378608 0
M  V30 38 H 6.005630 1.328589 0.621773 0
M  V30 39 H 3.649813 -1.511256 -2.721332 0
M  V30 40 H 3.397311 -0.166935 -3.852696 0
M  V30 41 H 5.102646 -0.733060 -3.409017 0
M  V30 42 H 1.729676 -0.896499 -2.412421 0
M  V30 43 H -2.882210 -0.125212 -2.281932 0
M  V30 44 H -5.107781 -0.389062 -1.423702 0
M  V30 45 H -4.558477 -2.321073 2.724396 0
M  V30 END ATOM
M  V30 BEGIN BOND
M  V30 1 1 1 2
M  V30 2 1 2 3
M  V30 3 2 3 4
M  V30 4 1 4 5
M  V30 5 2 5 6
M  V30 6 1 6 7
M  V30 7 1 7 8
M  V30 8 1 8 9
M  V30 9 2 9 10
M  V30 10 1 10 11
M  V30 11 1 11 12
M  V30 12 1 12 13
M  V30 13 2 11 14
M  V30 14 1 14 15
M  V30 15 1 15 16
M  V30 16 1 14 17
M  V30 17 1 17 18
M  V30 18 1 18 19
M  V30 19 2 17 20
M  V30 20 2 7 21
M  V30 21 1 21 22
M  V30 22 2 22 23
M  V30 23 1 23 24
M  V30 24 2 24 25
M  V30 25 1 25 3
M  V30 26 1 24 6
M  V30 27 1 20 9
M  V30 28 1 1 26
M  V30 29 1 1 27
M  V30 30 1 1 28
M  V30 31 1 4 29
M  V30 32 1 5 30
M  V30 33 1 8 31
M  V30 34 1 10 32
M  V30 35 1 13 33
M  V30 36 1 13 34
M  V30 37 1 13 35
M  V30 38 1 16 36
M  V30 39 1 16 37
M  V30 40 1 16 38
M  V30 41 1 19 39
M  V30 42 1 19 40
M  V30 43 1 19 41
M  V30 44 1 20 42
M  V30 45 1 21 43
M  V30 46 1 22 44
M  V30 47 1 25 45
M  V30 END BOND
M  V30 END CTAB
M  END
>  <Dataset>  (798) 
ChEMBL_Kinases

>  <Ligand_Instance>  (798) 
nan

>  <PDB_ID>  (798) 
nan

>  <Standardized_SMILES>  (798) 
COc1ccc2c(Nc3cc(OC)c(OC)c(OC)c3)ccnc2c1

>  <Name>  (798) 
nan

>  <Pocket>  (798) 
nan

>  <ATP_Site>  (798) 
nan

>  <Peripheral>  (798) 
nan

>  <Num_H_Atoms_ProtBoundConf>  (798) 
nan

>  <Num_Resolved_Atoms>  (798) 
nan

>  <Num_Not_Resolved_Atoms>  (798) 
nan

$$$$
CHEMBL3681194
     RDKit          3D

  0  0  0  0  0  0  0  0  0  0999 V3000
M  V30 BEGIN CTAB
M  V30 COUNTS 60 63 0 0 0
M  V30 BEGIN ATOM
M  V30 1 C 4.281467 -0.130160 5.459730 0
M  V30 2 C 4.327495 -1.442326 4.692061 0
M  V30 3 O 3.769244 -1.188153 3.389698 0
M  V30 4 C 4.451788 -0.254647 2.622094 0
M  V30 5 O 5.483916 0.423425 2.828277 0
M  V30 6 N 3.867029 0.002053 1.325054 0
M  V30 7 C 4.291759 0.899528 0.265340 0
M  V30 8 C 3.474518 2.167884 0.333527 0
M  V30 9 C 2.192479 2.148862 -0.396455 0
M  V30 10 C 2.035655 1.180637 -1.521849 0
M  V30 11 N 1.395663 -0.057586 -1.213975 0
M  V30 12 C 0.067432 -0.234063 -0.955939 0
M  V30 13 O -0.233881 1.019156 -1.088345 0
M  V30 14 C -1.039816 -1.077901 -0.638620 0
M  V30 15 C -2.353702 -0.723984 -0.825833 0
M  V30 16 C -3.124118 -1.780061 -0.403522 0
M  V30 17 C -4.580736 -1.732784 -0.416349 0
M  V30 18 C -5.130854 -2.257722 0.771311 0
M  V30 19 C -6.467019 -2.321988 1.053314 0
M  V30 20 N -7.333852 -1.850825 0.134716 0
M  V30 21 C -6.846882 -1.343075 -1.009907 0
M  V30 22 O -7.650778 -0.818523 -2.048365 0
M  V30 23 C -9.047705 -0.883198 -1.770110 0
M  V30 24 C -5.492458 -1.263710 -1.327873 0
M  V30 25 N -2.354940 -2.773382 0.035492 0
M  V30 26 N -2.678848 -3.949333 0.523977 0
M  V30 27 C -1.767941 -4.834466 0.927912 0
M  V30 28 N -0.484865 -4.461372 0.812066 0
M  V30 29 C -0.178035 -3.265469 0.315057 0
M  V30 30 N 1.195978 -3.006226 0.276306 0
M  V30 31 C -1.091959 -2.339769 -0.109178 0
M  V30 32 C 3.375723 0.892800 -2.074405 0
M  V30 33 C 4.325913 0.277763 -1.075275 0
M  V30 34 H 3.595808 -0.206246 6.355548 0
M  V30 35 H 5.255478 0.180448 5.863148 0
M  V30 36 H 3.840087 0.684397 4.855644 0
M  V30 37 H 5.360187 -1.799933 4.530402 0
M  V30 38 H 3.731946 -2.166234 5.242377 0
M  V30 39 H 3.008023 -0.492351 1.026132 0
M  V30 40 H 5.319963 1.205003 0.549877 0
M  V30 41 H 3.285040 2.347249 1.417661 0
M  V30 42 H 4.131362 3.039556 0.035890 0
M  V30 43 H 1.322652 2.173169 0.316879 0
M  V30 44 H 2.099289 3.171861 -0.866253 0
M  V30 45 H 1.414248 1.705999 -2.262618 0
M  V30 46 H 1.830627 -1.002021 -1.172438 0
M  V30 47 H -2.758971 0.209037 -1.234209 0
M  V30 48 H -4.523917 -2.666644 1.582240 0
M  V30 49 H -6.875677 -2.723963 1.966784 0
M  V30 50 H -9.535506 -0.027205 -2.307082 0
M  V30 51 H -9.461953 -1.836102 -2.156610 0
M  V30 52 H -9.269894 -0.806737 -0.682302 0
M  V30 53 H -5.039224 -0.876739 -2.207007 0
M  V30 54 H -2.154816 -5.781995 1.313143 0
M  V30 55 H 2.058811 -3.463069 -0.137407 0
M  V30 56 H 2.206676 -2.798581 0.258348 0
M  V30 57 H 3.814030 1.845836 -2.451763 0
M  V30 58 H 3.276818 0.234251 -2.957600 0
M  V30 59 H 4.021134 -0.780986 -0.960556 0
M  V30 60 H 5.326783 0.265651 -1.543291 0
M  V30 END ATOM
M  V30 BEGIN BOND
M  V30 1 1 1 2
M  V30 2 1 2 3
M  V30 3 1 3 4
M  V30 4 2 4 5
M  V30 5 1 4 6
M  V30 6 1 6 7
M  V30 7 1 7 8
M  V30 8 1 8 9
M  V30 9 1 9 10
M  V30 10 1 10 11
M  V30 11 1 11 12
M  V30 12 2 12 13
M  V30 13 1 12 14
M  V30 14 1 14 15
M  V30 15 2 15 16
M  V30 16 1 16 17
M  V30 17 2 17 18
M  V30 18 1 18 19
M  V30 19 2 19 20
M  V30 20 1 20 21
M  V30 21 1 21 22
M  V30 22 1 22 23
M  V30 23 2 21 24
M  V30 24 1 16 25
M  V30 25 1 25 26
M  V30 26 2 26 27
M  V30 27 1 27 28
M  V30 28 2 28 29
M  V30 29 1 29 30
M  V30 30 1 29 31
M  V30 31 1 10 32
M  V30 32 1 32 33
M  V30 33 1 33 7
M  V30 34 2 31 14
M  V30 35 1 24 17
M  V30 36 1 31 25
M  V30 37 1 1 34
M  V30 38 1 1 35
M  V30 39 1 1 36
M  V30 40 1 2 37
M  V30 41 1 2 38
M  V30 42 1 6 39
M  V30 43 1 7 40
M  V30 44 1 8 41
M  V30 45 1 8 42
M  V30 46 1 9 43
M  V30 47 1 9 44
M  V30 48 1 10 45
M  V30 49 1 11 46
M  V30 50 1 15 47
M  V30 51 1 18 48
M  V30 52 1 19 49
M  V30 53 1 23 50
M  V30 54 1 23 51
M  V30 55 1 23 52
M  V30 56 1 24 53
M  V30 57 1 27 54
M  V30 58 1 30 55
M  V30 59 1 30 56
M  V30 60 1 32 57
M  V30 61 1 32 58
M  V30 62 1 33 59
M  V30 63 1 33 60
M  V30 END BOND
M  V30 END CTAB
M  END
>  <Dataset>  (799) 
ChEMBL_Kinases

>  <Ligand_Instance>  (799) 
nan

>  <PDB_ID>  (799) 
nan

>  <Standardized_SMILES>  (799) 
CCOC(=O)NC1CCC(NC(=O)c2cc(-c3ccnc(OC)c3)n3ncnc(N)c23)CC1

>  <Name>  (799) 
nan

>  <Pocket>  (799) 
nan

>  <ATP_Site>  (799) 
nan

>  <Peripheral>  (799) 
nan

>  <Num_H_Atoms_ProtBoundConf>  (799) 
nan

>  <Num_Resolved_Atoms>  (799) 
nan

>  <Num_Not_Resolved_Atoms>  (799) 
nan

$$$$
CHEMBL3093250
     RDKit          3D

  0  0  0  0  0  0  0  0  0  0999 V3000
M  V30 BEGIN CTAB
M  V30 COUNTS 61 66 0 0 0
M  V30 BEGIN ATOM
M  V30 1 C 7.009556 -5.644224 4.060428 0
M  V30 2 O 7.374326 -4.296389 4.145684 0
M  V30 3 C 6.752244 -3.268902 3.441184 0
M  V30 4 C 7.190379 -1.979070 3.598642 0
M  V30 5 C 6.535253 -1.004218 2.874782 0
M  V30 6 C 5.482338 -1.237911 2.014336 0
M  V30 7 C 4.813776 -0.178739 1.265193 0
M  V30 8 C 5.435535 0.965257 0.806912 0
M  V30 9 C 4.709928 1.907675 0.107062 0
M  V30 10 C 3.371968 1.747593 -0.154676 0
M  V30 11 N 2.368216 2.426830 -0.784010 0
M  V30 12 C 1.244786 1.697652 -0.681235 0
M  V30 13 C -0.063492 2.056166 -1.216382 0
M  V30 14 C -1.159582 1.237712 -1.058045 0
M  V30 15 C -2.432270 1.491213 -1.526497 0
M  V30 16 C -3.473556 0.504882 -1.263845 0
M  V30 17 C -3.179636 -0.840117 -1.188153 0
M  V30 18 N -4.317886 -1.510556 -0.937359 0
M  V30 19 N -5.318389 -0.638072 -0.851949 0
M  V30 20 C -6.683586 -0.986244 -0.592572 0
M  V30 21 C -6.934043 -1.338484 0.853667 0
M  V30 22 C -5.948962 -2.392329 1.260732 0
M  V30 23 N -5.824667 -3.425343 0.265199 0
M  V30 24 C -6.981386 -3.444328 -0.584667 0
M  V30 25 C -7.049233 -2.193187 -1.429462 0
M  V30 26 C -4.843942 0.618668 -1.046921 0
M  V30 27 C -2.588502 2.696927 -2.220479 0
M  V30 28 N -1.524855 3.500034 -2.379111 0
M  V30 29 C -0.292313 3.229129 -1.911632 0
M  V30 30 N 0.788606 4.138297 -2.123483 0
M  V30 31 O 1.496004 0.595405 -0.018585 0
M  V30 32 C 2.781428 0.573125 0.328342 0
M  V30 33 C 3.469796 -0.395411 1.032670 0
M  V30 34 C 5.088659 -2.557954 1.899976 0
M  V30 35 C 5.704849 -3.581060 2.598589 0
M  V30 36 H 5.958095 -5.836252 4.377788 0
M  V30 37 H 7.211916 -5.992895 3.032719 0
M  V30 38 H 7.689856 -6.206746 4.734868 0
M  V30 39 H 8.022983 -1.716095 4.265904 0
M  V30 40 H 6.868635 0.026971 2.986500 0
M  V30 41 H 6.485208 1.093938 1.010509 0
M  V30 42 H 5.173911 2.828365 -0.270376 0
M  V30 43 H -0.985800 0.314300 -0.511789 0
M  V30 44 H -2.260213 -1.423208 -1.286688 0
M  V30 45 H -7.385313 -0.164923 -0.874796 0
M  V30 46 H -7.957318 -1.747005 0.953666 0
M  V30 47 H -6.803128 -0.456849 1.513716 0
M  V30 48 H -6.233726 -2.901639 2.211412 0
M  V30 49 H -4.953185 -1.891732 1.356163 0
M  V30 50 H -5.645501 -4.354247 0.696639 0
M  V30 51 H -7.902695 -3.569571 0.043812 0
M  V30 52 H -6.947125 -4.355011 -1.222242 0
M  V30 53 H -8.101084 -2.089770 -1.815277 0
M  V30 54 H -6.362274 -2.317079 -2.307453 0
M  V30 55 H -5.346778 1.561542 -1.050519 0
M  V30 56 H -3.586040 2.892181 -2.585579 0
M  V30 57 H 1.390402 3.878563 -2.936053 0
M  V30 58 H 1.054248 5.013653 -1.584909 0
M  V30 59 H 2.936797 -1.281529 1.374089 0
M  V30 60 H 4.287448 -2.836031 1.262085 0
M  V30 61 H 5.361522 -4.603571 2.476908 0
M  V30 END ATOM
M  V30 BEGIN BOND
M  V30 1 1 1 2
M  V30 2 1 2 3
M  V30 3 2 3 4
M  V30 4 1 4 5
M  V30 5 2 5 6
M  V30 6 1 6 7
M  V30 7 2 7 8
M  V30 8 1 8 9
M  V30 9 2 9 10
M  V30 10 1 10 11
M  V30 11 2 11 12
M  V30 12 1 12 13
M  V30 13 2 13 14
M  V30 14 1 14 15
M  V30 15 1 15 16
M  V30 16 1 16 17
M  V30 17 2 17 18
M  V30 18 1 18 19
M  V30 19 1 19 20
M  V30 20 1 20 21
M  V30 21 1 21 22
M  V30 22 1 22 23
M  V30 23 1 23 24
M  V30 24 1 24 25
M  V30 25 1 19 26
M  V30 26 2 15 27
M  V30 27 1 27 28
M  V30 28 2 28 29
M  V30 29 1 29 30
M  V30 30 1 12 31
M  V30 31 1 31 32
M  V30 32 2 32 33
M  V30 33 1 6 34
M  V30 34 2 34 35
M  V30 35 1 35 3
M  V30 36 1 33 7
M  V30 37 1 32 10
M  V30 38 1 29 13
M  V30 39 2 26 16
M  V30 40 1 25 20
M  V30 41 1 1 36
M  V30 42 1 1 37
M  V30 43 1 1 38
M  V30 44 1 4 39
M  V30 45 1 5 40
M  V30 46 1 8 41
M  V30 47 1 9 42
M  V30 48 1 14 43
M  V30 49 1 17 44
M  V30 50 1 20 45
M  V30 51 1 21 46
M  V30 52 1 21 47
M  V30 53 1 22 48
M  V30 54 1 22 49
M  V30 55 1 23 50
M  V30 56 1 24 51
M  V30 57 1 24 52
M  V30 58 1 25 53
M  V30 59 1 25 54
M  V30 60 1 26 55
M  V30 61 1 27 56
M  V30 62 1 30 57
M  V30 63 1 30 58
M  V30 64 1 33 59
M  V30 65 1 34 60
M  V30 66 1 35 61
M  V30 END BOND
M  V30 END CTAB
M  END
>  <Dataset>  (800) 
ChEMBL_Kinases

>  <Ligand_Instance>  (800) 
nan

>  <PDB_ID>  (800) 
nan

>  <Standardized_SMILES>  (800) 
COc1ccc(-c2ccc3nc(-c4cc(-c5cnn(C6CCNCC6)c5)cnc4N)oc3c2)cc1

>  <Name>  (800) 
nan

>  <Pocket>  (800) 
nan

>  <ATP_Site>  (800) 
nan

>  <Peripheral>  (800) 
nan

>  <Num_H_Atoms_ProtBoundConf>  (800) 
nan

>  <Num_Resolved_Atoms>  (800) 
nan

>  <Num_Not_Resolved_Atoms>  (800) 
nan

$$$$
CHEMBL3093246
     RDKit          3D

  0  0  0  0  0  0  0  0  0  0999 V3000
M  V30 BEGIN CTAB
M  V30 COUNTS 64 69 0 0 0
M  V30 BEGIN ATOM
M  V30 1 N 5.464365 -2.482618 2.560000 0
M  V30 2 C 5.196504 -1.727026 1.399217 0
M  V30 3 N 6.238792 -1.299526 0.629171 0
M  V30 4 C 6.011217 -0.575993 -0.485067 0
M  V30 5 C 4.757710 -0.212941 -0.936094 0
M  V30 6 C 4.499167 0.560490 -2.126045 0
M  V30 7 C 5.115727 0.690678 -3.352846 0
M  V30 8 N 4.429464 1.577345 -4.109707 0
M  V30 9 N 3.385808 2.031163 -3.420281 0
M  V30 10 C 2.410590 3.003819 -3.905068 0
M  V30 11 C 1.523301 2.450485 -4.992558 0
M  V30 12 C 0.072431 2.421191 -4.551117 0
M  V30 13 N -0.406294 3.701154 -4.110803 0
M  V30 14 C 0.435735 4.331341 -3.124721 0
M  V30 15 C 1.522405 3.379068 -2.737492 0
M  V30 16 C 3.414917 1.425291 -2.218978 0
M  V30 17 C 3.722899 -0.658426 -0.138645 0
M  V30 18 C 3.916898 -1.399845 1.006917 0
M  V30 19 C 2.766237 -1.830628 1.792427 0
M  V30 20 N 2.773936 -2.553227 2.926634 0
M  V30 21 C 1.508423 -2.755134 3.363629 0
M  V30 22 C 0.837047 -3.377063 4.404089 0
M  V30 23 C -0.540665 -3.322745 4.449237 0
M  V30 24 C -1.308260 -2.670143 3.496923 0
M  V30 25 N -2.732381 -2.612500 3.542296 0
M  V30 26 C -3.697379 -3.489759 2.988535 0
M  V30 27 O -3.191545 -4.468018 2.361610 0
M  V30 28 C -5.117574 -3.203695 3.179381 0
M  V30 29 C -5.662229 -2.132884 3.866306 0
M  V30 30 C -7.038367 -2.039368 3.932934 0
M  V30 31 C -7.856928 -2.978396 3.336978 0
M  V30 32 C -9.313595 -2.704175 3.519306 0
M  V30 33 F -10.112502 -3.762027 3.190729 0
M  V30 34 F -9.574421 -2.288327 4.831303 0
M  V30 35 F -9.581087 -1.586835 2.720396 0
M  V30 36 C -7.320226 -4.051237 2.648762 0
M  V30 37 C -5.942398 -4.138174 2.586364 0
M  V30 38 C -0.668490 -2.040634 2.447564 0
M  V30 39 C 0.709027 -2.107273 2.421766 0
M  V30 40 O 1.507244 -1.582655 1.522191 0
M  V30 41 H 5.058272 -3.342158 2.956372 0
M  V30 42 H 6.232116 -2.118761 3.166328 0
M  V30 43 H 6.865173 -0.242397 -1.089710 0
M  V30 44 H 6.021339 0.115598 -3.578673 0
M  V30 45 H 2.946824 3.924524 -4.268919 0
M  V30 46 H 1.811925 1.394452 -5.135626 0
M  V30 47 H 1.617871 3.030598 -5.933733 0
M  V30 48 H -0.123663 1.612611 -3.833924 0
M  V30 49 H -0.518168 2.182997 -5.482756 0
M  V30 50 H -0.436844 4.341208 -4.936155 0
M  V30 51 H -0.120664 4.571833 -2.187078 0
M  V30 52 H 0.865535 5.309384 -3.467526 0
M  V30 53 H 1.035674 2.442369 -2.376117 0
M  V30 54 H 2.186012 3.814940 -1.960933 0
M  V30 55 H 2.659988 1.619223 -1.443643 0
M  V30 56 H 2.701943 -0.424873 -0.408459 0
M  V30 57 H 1.446342 -3.869942 5.120392 0
M  V30 58 H -1.062276 -3.813648 5.270204 0
M  V30 59 H -2.953869 -1.753343 4.091535 0
M  V30 60 H -4.957140 -1.450189 4.298959 0
M  V30 61 H -7.386344 -1.170339 4.490149 0
M  V30 62 H -8.024037 -4.744749 2.209262 0
M  V30 63 H -5.587769 -5.009844 2.027422 0
M  V30 64 H -1.223280 -1.525625 1.691104 0
M  V30 END ATOM
M  V30 BEGIN BOND
M  V30 1 1 1 2
M  V30 2 2 2 3
M  V30 3 1 3 4
M  V30 4 2 4 5
M  V30 5 1 5 6
M  V30 6 1 6 7
M  V30 7 2 7 8
M  V30 8 1 8 9
M  V30 9 1 9 10
M  V30 10 1 10 11
M  V30 11 1 11 12
M  V30 12 1 12 13
M  V30 13 1 13 14
M  V30 14 1 14 15
M  V30 15 1 9 16
M  V30 16 1 5 17
M  V30 17 2 17 18
M  V30 18 1 18 19
M  V30 19 2 19 20
M  V30 20 1 20 21
M  V30 21 2 21 22
M  V30 22 1 22 23
M  V30 23 2 23 24
M  V30 24 1 24 25
M  V30 25 1 25 26
M  V30 26 2 26 27
M  V30 27 1 26 28
M  V30 28 2 28 29
M  V30 29 1 29 30
M  V30 30 2 30 31
M  V30 31 1 31 32
M  V30 32 1 32 33
M  V30 33 1 32 34
M  V30 34 1 32 35
M  V30 35 1 31 36
M  V30 36 2 36 37
M  V30 37 1 24 38
M  V30 38 2 38 39
M  V30 39 1 39 40
M  V30 40 1 18 2
M  V30 41 1 40 19
M  V30 42 2 16 6
M  V30 43 1 39 21
M  V30 44 1 15 10
M  V30 45 1 37 28
M  V30 46 1 1 41
M  V30 47 1 1 42
M  V30 48 1 4 43
M  V30 49 1 7 44
M  V30 50 1 10 45
M  V30 51 1 11 46
M  V30 52 1 11 47
M  V30 53 1 12 48
M  V30 54 1 12 49
M  V30 55 1 13 50
M  V30 56 1 14 51
M  V30 57 1 14 52
M  V30 58 1 15 53
M  V30 59 1 15 54
M  V30 60 1 16 55
M  V30 61 1 17 56
M  V30 62 1 22 57
M  V30 63 1 23 58
M  V30 64 1 25 59
M  V30 65 1 29 60
M  V30 66 1 30 61
M  V30 67 1 36 62
M  V30 68 1 37 63
M  V30 69 1 38 64
M  V30 END BOND
M  V30 END CTAB
M  END
>  <Dataset>  (801) 
ChEMBL_Kinases

>  <Ligand_Instance>  (801) 
nan

>  <PDB_ID>  (801) 
nan

>  <Standardized_SMILES>  (801) 
Nc1ncc(-c2cnn(C3CCNCC3)c2)cc1-c1nc2ccc(NC(=O)c3ccc(C(F)(F)F)cc3)cc2o1

>  <Name>  (801) 
nan

>  <Pocket>  (801) 
nan

>  <ATP_Site>  (801) 
nan

>  <Peripheral>  (801) 
nan

>  <Num_H_Atoms_ProtBoundConf>  (801) 
nan

>  <Num_Resolved_Atoms>  (801) 
nan

>  <Num_Not_Resolved_Atoms>  (801) 
nan

$$$$
CHEMBL4278759
     RDKit          3D

  0  0  0  0  0  0  0  0  0  0999 V3000
M  V30 BEGIN CTAB
M  V30 COUNTS 50 53 0 0 0
M  V30 BEGIN ATOM
M  V30 1 C 2.125280 -4.820376 1.934422 0
M  V30 2 C 3.518384 -4.342080 1.616426 0
M  V30 3 N 3.459542 -2.978420 1.147761 0
M  V30 4 C 4.810191 -2.611521 0.870593 0
M  V30 5 C 5.016996 -1.220481 0.357717 0
M  V30 6 C 2.326892 -2.145661 0.982960 0
M  V30 7 N 1.059818 -2.500824 1.246498 0
M  V30 8 C -0.014788 -1.710650 1.087850 0
M  V30 9 C 0.274052 -0.452461 0.611760 0
M  V30 10 C 1.548183 -0.026997 0.329677 0
M  V30 11 N 2.553608 -0.899022 0.524074 0
M  V30 12 N 2.002976 1.285034 -0.054551 0
M  V30 13 C 1.283954 2.437314 0.463977 0
M  V30 14 N 1.932246 3.602576 0.784733 0
M  V30 15 N 1.002831 4.444633 1.252994 0
M  V30 16 C -0.229088 3.864050 1.246295 0
M  V30 17 C -1.523513 4.438363 1.678068 0
M  V30 18 C -0.084291 2.594833 0.751427 0
M  V30 19 N -1.053081 1.592251 0.488672 0
M  V30 20 C -0.955434 0.286477 0.412453 0
M  V30 21 C -2.195698 -0.365217 0.077091 0
M  V30 22 C -3.346992 0.433705 0.133988 0
M  V30 23 C -4.621328 0.060116 -0.227535 0
M  V30 24 C -4.830654 -1.214323 -0.696587 0
M  V30 25 C -6.180281 -1.672731 -1.099005 0
M  V30 26 C -3.753582 -2.065126 -0.786537 0
M  V30 27 C -2.528629 -1.592094 -0.401750 0
M  V30 28 H 1.637554 -4.226228 2.739977 0
M  V30 29 H 1.539277 -4.791884 0.983042 0
M  V30 30 H 2.233030 -5.891094 2.280070 0
M  V30 31 H 3.851671 -4.961749 0.732982 0
M  V30 32 H 4.212577 -4.483264 2.473984 0
M  V30 33 H 5.415516 -2.680429 1.818606 0
M  V30 34 H 5.325081 -3.309887 0.170608 0
M  V30 35 H 6.135646 -1.134588 0.182709 0
M  V30 36 H 4.583961 -1.054929 -0.649201 0
M  V30 37 H 4.787840 -0.416537 1.070177 0
M  V30 38 H -1.014937 -1.967864 1.353057 0
M  V30 39 H 2.828699 1.364051 -0.657871 0
M  V30 40 H 1.251108 5.403837 1.565180 0
M  V30 41 H -2.114945 4.874599 0.846059 0
M  V30 42 H -2.183206 3.642126 2.128283 0
M  V30 43 H -1.348706 5.245132 2.441360 0
M  V30 44 H -3.326380 1.478016 0.491011 0
M  V30 45 H -5.478868 0.704254 -0.167649 0
M  V30 46 H -6.258435 -2.729741 -0.722857 0
M  V30 47 H -6.198884 -1.774678 -2.203328 0
M  V30 48 H -6.982503 -1.029323 -0.739001 0
M  V30 49 H -3.875456 -3.062086 -1.146014 0
M  V30 50 H -1.715711 -2.260536 -0.555393 0
M  V30 END ATOM
M  V30 BEGIN BOND
M  V30 1 1 1 2
M  V30 2 1 2 3
M  V30 3 1 3 4
M  V30 4 1 4 5
M  V30 5 1 3 6
M  V30 6 2 6 7
M  V30 7 1 7 8
M  V30 8 2 8 9
M  V30 9 1 9 10
M  V30 10 2 10 11
M  V30 11 1 10 12
M  V30 12 1 12 13
M  V30 13 2 13 14
M  V30 14 1 14 15
M  V30 15 1 15 16
M  V30 16 1 16 17
M  V30 17 2 16 18
M  V30 18 1 18 19
M  V30 19 2 19 20
M  V30 20 1 20 21
M  V30 21 2 21 22
M  V30 22 1 22 23
M  V30 23 2 23 24
M  V30 24 1 24 25
M  V30 25 1 24 26
M  V30 26 2 26 27
M  V30 27 1 11 6
M  V30 28 1 18 13
M  V30 29 1 27 21
M  V30 30 1 20 9
M  V30 31 1 1 28
M  V30 32 1 1 29
M  V30 33 1 1 30
M  V30 34 1 2 31
M  V30 35 1 2 32
M  V30 36 1 4 33
M  V30 37 1 4 34
M  V30 38 1 5 35
M  V30 39 1 5 36
M  V30 40 1 5 37
M  V30 41 1 8 38
M  V30 42 1 12 39
M  V30 43 1 15 40
M  V30 44 1 17 41
M  V30 45 1 17 42
M  V30 46 1 17 43
M  V30 47 1 22 44
M  V30 48 1 23 45
M  V30 49 1 25 46
M  V30 50 1 25 47
M  V30 51 1 25 48
M  V30 52 1 26 49
M  V30 53 1 27 50
M  V30 END BOND
M  V30 END CTAB
M  END
>  <Dataset>  (802) 
ChEMBL_Kinases

>  <Ligand_Instance>  (802) 
nan

>  <PDB_ID>  (802) 
nan

>  <Standardized_SMILES>  (802) 
CCN(CC)c1ncc2c(n1)Nc1n[nH]c(C)c1N=C2c1ccc(C)cc1

>  <Name>  (802) 
nan

>  <Pocket>  (802) 
nan

>  <ATP_Site>  (802) 
nan

>  <Peripheral>  (802) 
nan

>  <Num_H_Atoms_ProtBoundConf>  (802) 
nan

>  <Num_Resolved_Atoms>  (802) 
nan

>  <Num_Not_Resolved_Atoms>  (802) 
nan

$$$$
CHEMBL3680505
     RDKit          3D

  0  0  0  0  0  0  0  0  0  0999 V3000
M  V30 BEGIN CTAB
M  V30 COUNTS 67 70 0 0 0
M  V30 BEGIN ATOM
M  V30 1 C 8.720549 -2.967214 6.250768 0
M  V30 2 O 7.501012 -3.404078 5.642689 0
M  V30 3 C 6.703858 -2.515268 4.936208 0
M  V30 4 C 6.982076 -1.157767 4.743960 0
M  V30 5 C 6.087368 -0.380191 4.008881 0
M  V30 6 C 4.929337 -0.873764 3.452202 0
M  V30 7 C 4.066068 0.025830 2.700352 0
M  V30 8 O 4.466873 1.212640 2.608360 0
M  V30 9 N 2.856290 -0.332301 2.091423 0
M  V30 10 C 1.942197 0.445640 1.341280 0
M  V30 11 C 2.065380 1.781314 1.039621 0
M  V30 12 C 1.173215 2.534910 0.308915 0
M  V30 13 C 0.040808 1.894439 -0.172145 0
M  V30 14 C -0.113411 0.554820 0.112588 0
M  V30 15 C -1.315594 -0.200505 -0.378093 0
M  V30 16 C -1.064813 -0.539655 -1.836322 0
M  V30 17 C 0.195111 -1.396427 -1.947072 0
M  V30 18 N 0.384412 -1.689882 -3.359033 0
M  V30 19 C -0.676873 -2.574871 -3.828981 0
M  V30 20 C 1.652316 -2.400095 -3.481575 0
M  V30 21 N -2.551075 0.511323 -0.192499 0
M  V30 22 C -3.809490 -0.058249 -0.539272 0
M  V30 23 N -3.842449 -1.300987 -1.045501 0
M  V30 24 C -4.956393 -1.958378 -1.408165 0
M  V30 25 N -6.147763 -1.321952 -1.253491 0
M  V30 26 C -6.160403 -0.059040 -0.743064 0
M  V30 27 C -7.410935 0.510728 -0.621198 0
M  V30 28 C -8.681349 -0.072376 -0.965790 0
M  V30 29 N -8.573460 -1.384096 -1.478956 0
M  V30 30 O -9.804954 0.475037 -0.847008 0
M  V30 31 C -7.439804 1.806351 -0.099822 0
M  V30 32 C -6.278851 2.455832 0.263546 0
M  V30 33 C -5.045113 1.860356 0.130038 0
M  V30 34 C -5.008281 0.601716 -0.375757 0
M  V30 35 C 0.820136 -0.138669 0.850625 0
M  V30 36 C 4.697826 -2.217037 3.668491 0
M  V30 37 C 5.548902 -3.028348 4.386571 0
M  V30 38 F 5.221538 -4.344672 4.538617 0
M  V30 39 H 9.055500 -3.658834 7.027962 0
M  V30 40 H 8.543516 -1.974079 6.738679 0
M  V30 41 H 9.494561 -2.809716 5.495170 0
M  V30 42 H 7.879013 -0.788877 5.178747 0
M  V30 43 H 6.400730 0.633654 3.928018 0
M  V30 44 H 2.643646 -1.341569 2.245964 0
M  V30 45 H 2.924452 2.333579 1.385663 0
M  V30 46 H 1.318599 3.571272 0.104023 0
M  V30 47 H -0.712158 2.407439 -0.754394 0
M  V30 48 H -1.406233 -1.166854 0.156152 0
M  V30 49 H -1.860894 -1.113547 -2.303538 0
M  V30 50 H -0.936403 0.408783 -2.394517 0
M  V30 51 H 1.067947 -0.880603 -1.539614 0
M  V30 52 H 0.063962 -2.366874 -1.447012 0
M  V30 53 H -1.128318 -3.135370 -2.963444 0
M  V30 54 H -0.247221 -3.378235 -4.483145 0
M  V30 55 H -1.434211 -2.045629 -4.420773 0
M  V30 56 H 2.421909 -1.589874 -3.603855 0
M  V30 57 H 1.627109 -3.074581 -4.350843 0
M  V30 58 H 1.875024 -2.929198 -2.519844 0
M  V30 59 H -2.413372 1.457738 0.211383 0
M  V30 60 H -4.786323 -2.953229 -1.796352 0
M  V30 61 H -8.557696 -2.349246 -1.814137 0
M  V30 62 H -8.507033 -2.347528 -1.847516 0
M  V30 63 H -8.406296 2.253300 -0.002890 0
M  V30 64 H -6.370868 3.451830 0.658363 0
M  V30 65 H -4.156544 2.384880 0.419148 0
M  V30 66 H 0.642015 -1.200256 1.043464 0
M  V30 67 H 3.802088 -2.653705 3.252523 0
M  V30 END ATOM
M  V30 BEGIN BOND
M  V30 1 1 1 2
M  V30 2 1 2 3
M  V30 3 2 3 4
M  V30 4 1 4 5
M  V30 5 2 5 6
M  V30 6 1 6 7
M  V30 7 2 7 8
M  V30 8 1 7 9
M  V30 9 1 9 10
M  V30 10 2 10 11
M  V30 11 1 11 12
M  V30 12 2 12 13
M  V30 13 1 13 14
M  V30 14 1 14 15
M  V30 15 1 15 16
M  V30 16 1 16 17
M  V30 17 1 17 18
M  V30 18 1 18 19
M  V30 19 1 18 20
M  V30 20 1 15 21
M  V30 21 1 21 22
M  V30 22 2 22 23
M  V30 23 1 23 24
M  V30 24 2 24 25
M  V30 25 1 25 26
M  V30 26 2 26 27
M  V30 27 1 27 28
M  V30 28 1 28 29
M  V30 29 2 28 30
M  V30 30 1 27 31
M  V30 31 2 31 32
M  V30 32 1 32 33
M  V30 33 2 33 34
M  V30 34 2 14 35
M  V30 35 1 6 36
M  V30 36 2 36 37
M  V30 37 1 37 38
M  V30 38 1 37 3
M  V30 39 1 35 10
M  V30 40 1 34 22
M  V30 41 1 34 26
M  V30 42 1 1 39
M  V30 43 1 1 40
M  V30 44 1 1 41
M  V30 45 1 4 42
M  V30 46 1 5 43
M  V30 47 1 9 44
M  V30 48 1 11 45
M  V30 49 1 12 46
M  V30 50 1 13 47
M  V30 51 1 15 48
M  V30 52 1 16 49
M  V30 53 1 16 50
M  V30 54 1 17 51
M  V30 55 1 17 52
M  V30 56 1 19 53
M  V30 57 1 19 54
M  V30 58 1 19 55
M  V30 59 1 20 56
M  V30 60 1 20 57
M  V30 61 1 20 58
M  V30 62 1 21 59
M  V30 63 1 24 60
M  V30 64 1 29 61
M  V30 65 1 29 62
M  V30 66 1 31 63
M  V30 67 1 32 64
M  V30 68 1 33 65
M  V30 69 1 35 66
M  V30 70 1 36 67
M  V30 END BOND
M  V30 END CTAB
M  END
>  <Dataset>  (803) 
ChEMBL_Kinases

>  <Ligand_Instance>  (803) 
nan

>  <PDB_ID>  (803) 
nan

>  <Standardized_SMILES>  (803) 
COc1ccc(C(=O)Nc2cccc(C(CCN(C)C)Nc3ncnc4c(C(N)=O)cccc34)c2)cc1F

>  <Name>  (803) 
nan

>  <Pocket>  (803) 
nan

>  <ATP_Site>  (803) 
nan

>  <Peripheral>  (803) 
nan

>  <Num_H_Atoms_ProtBoundConf>  (803) 
nan

>  <Num_Resolved_Atoms>  (803) 
nan

>  <Num_Not_Resolved_Atoms>  (803) 
nan

$$$$
CHEMBL4278727
     RDKit          3D

  0  0  0  0  0  0  0  0  0  0999 V3000
M  V30 BEGIN CTAB
M  V30 COUNTS 47 51 0 0 0
M  V30 BEGIN ATOM
M  V30 1 N -3.821632 -6.914302 -0.088486 0
M  V30 2 C -3.252417 -5.682142 0.362654 0
M  V30 3 N -2.627296 -4.912118 -0.574206 0
M  V30 4 C -2.062934 -3.735879 -0.239694 0
M  V30 5 O -1.452126 -2.961953 -1.102258 0
M  V30 6 C -0.892719 -1.811960 -0.809831 0
M  V30 7 C -0.272829 -1.071408 -1.795003 0
M  V30 8 C 0.303648 0.132195 -1.448017 0
M  V30 9 C 0.316342 0.670108 -0.185842 0
M  V30 10 C 0.929854 1.943686 0.165998 0
M  V30 11 C 1.532677 2.683859 -0.749102 0
M  V30 12 C 2.166014 4.003512 -0.372398 0
M  V30 13 C 2.889636 3.631577 0.933303 0
M  V30 14 C 1.769337 3.497335 1.944225 0
M  V30 15 C 0.851092 2.371054 1.575212 0
M  V30 16 O 3.831248 4.552016 1.294758 0
M  V30 17 C 4.989974 3.863076 1.602291 0
M  V30 18 C 4.719330 2.408621 1.389183 0
M  V30 19 O 3.475084 2.388085 0.799517 0
M  V30 20 C -0.316946 -0.116817 0.746201 0
M  V30 21 C -0.917234 -1.330529 0.481970 0
M  V30 22 C -1.544087 -2.092746 1.445931 0
M  V30 23 O -1.552847 -1.629834 2.621663 0
M  V30 24 C -2.115615 -3.292331 1.086698 0
M  V30 25 C -2.741833 -4.049835 2.059372 0
M  V30 26 C -3.317311 -5.265851 1.677487 0
M  V30 27 C -3.986681 -6.104217 2.648533 0
M  V30 28 O -4.483785 -7.177237 2.266662 0
M  V30 29 O -4.086366 -5.742324 3.984828 0
M  V30 30 H -4.800748 -7.249938 -0.314541 0
M  V30 31 H -3.254054 -7.759700 -0.277908 0
M  V30 32 H -0.257183 -1.455004 -2.806411 0
M  V30 33 H 0.767980 0.651663 -2.272550 0
M  V30 34 H 1.612046 2.409169 -1.789240 0
M  V30 35 H 1.398630 4.755873 -0.116841 0
M  V30 36 H 2.890781 4.323977 -1.133348 0
M  V30 37 H 2.173600 3.424084 2.969809 0
M  V30 38 H 1.172190 4.447990 1.857348 0
M  V30 39 H 1.094815 1.541950 2.289129 0
M  V30 40 H -0.215918 2.634392 1.836694 0
M  V30 41 H 5.809834 4.156582 0.891192 0
M  V30 42 H 5.347748 4.003371 2.629607 0
M  V30 43 H 4.740499 1.831598 2.344574 0
M  V30 44 H 5.487089 1.929692 0.719263 0
M  V30 45 H -0.382565 0.184338 1.782505 0
M  V30 46 H -2.789130 -3.710981 3.104943 0
M  V30 47 H -4.535105 -6.316966 4.685719 0
M  V30 END ATOM
M  V30 BEGIN BOND
M  V30 1 1 1 2
M  V30 2 2 2 3
M  V30 3 1 3 4
M  V30 4 1 4 5
M  V30 5 1 5 6
M  V30 6 2 6 7
M  V30 7 1 7 8
M  V30 8 2 8 9
M  V30 9 1 9 10
M  V30 10 2 10 11
M  V30 11 1 11 12
M  V30 12 1 12 13
M  V30 13 1 13 14
M  V30 14 1 14 15
M  V30 15 1 13 16
M  V30 16 1 16 17
M  V30 17 1 17 18
M  V30 18 1 18 19
M  V30 19 1 9 20
M  V30 20 2 20 21
M  V30 21 1 21 22
M  V30 22 2 22 23
M  V30 23 1 22 24
M  V30 24 1 24 25
M  V30 25 2 25 26
M  V30 26 1 26 27
M  V30 27 2 27 28
M  V30 28 1 27 29
M  V30 29 1 26 2
M  V30 30 2 24 4
M  V30 31 1 21 6
M  V30 32 1 15 10
M  V30 33 1 19 13
M  V30 34 1 1 30
M  V30 35 1 1 31
M  V30 36 1 7 32
M  V30 37 1 8 33
M  V30 38 1 11 34
M  V30 39 1 12 35
M  V30 40 1 12 36
M  V30 41 1 14 37
M  V30 42 1 14 38
M  V30 43 1 15 39
M  V30 44 1 15 40
M  V30 45 1 17 41
M  V30 46 1 17 42
M  V30 47 1 18 43
M  V30 48 1 18 44
M  V30 49 1 20 45
M  V30 50 1 25 46
M  V30 51 1 29 47
M  V30 END BOND
M  V30 END CTAB
M  END
>  <Dataset>  (804) 
ChEMBL_Kinases

>  <Ligand_Instance>  (804) 
nan

>  <PDB_ID>  (804) 
nan

>  <Standardized_SMILES>  (804) 
Nc1nc2oc3ccc(C4=CCC5(CC4)OCCO5)cc3c(=O)c2cc1C(=O)O

>  <Name>  (804) 
nan

>  <Pocket>  (804) 
nan

>  <ATP_Site>  (804) 
nan

>  <Peripheral>  (804) 
nan

>  <Num_H_Atoms_ProtBoundConf>  (804) 
nan

>  <Num_Resolved_Atoms>  (804) 
nan

>  <Num_Not_Resolved_Atoms>  (804) 
nan

$$$$
CHEMBL4278681
     RDKit          3D

  0  0  0  0  0  0  0  0  0  0999 V3000
M  V30 BEGIN CTAB
M  V30 COUNTS 42 45 0 0 0
M  V30 BEGIN ATOM
M  V30 1 C -1.425983 -6.800296 1.344968 0
M  V30 2 O -1.798244 -5.968046 0.263679 0
M  V30 3 C -1.337644 -4.659181 0.248159 0
M  V30 4 C -1.727343 -3.871054 -0.835814 0
M  V30 5 C -1.361495 -2.554398 -1.008405 0
M  V30 6 C -0.559306 -1.964825 -0.057181 0
M  V30 7 C -0.165633 -0.651547 -0.182859 0
M  V30 8 N -0.548984 0.157011 -1.268539 0
M  V30 9 C -0.103936 1.525595 -1.343861 0
M  V30 10 C -0.332522 2.517009 -2.286298 0
M  V30 11 C 0.302579 3.673433 -1.932556 0
M  V30 12 C 0.335583 4.966184 -2.627959 0
M  V30 13 N 0.907645 3.359069 -0.775495 0
M  V30 14 N 0.690954 2.116900 -0.405373 0
M  V30 15 N 0.617267 -0.139120 0.782047 0
M  V30 16 C 1.019603 -0.856338 1.845374 0
M  V30 17 C 1.867811 -0.298978 2.889762 0
M  V30 18 C 2.307497 1.007454 2.842199 0
M  V30 19 C 3.119625 1.601955 3.806811 0
M  V30 20 C 3.504635 0.821459 4.878945 0
M  V30 21 C 3.066997 -0.490167 4.932844 0
M  V30 22 C 2.263408 -1.059803 3.967585 0
M  V30 23 N 0.619434 -2.132517 1.939114 0
M  V30 24 C -0.163902 -2.724903 1.019752 0
M  V30 25 C -0.535534 -4.043151 1.183933 0
M  V30 26 H -1.905678 -6.481732 2.296656 0
M  V30 27 H -1.576217 -7.872537 1.110332 0
M  V30 28 H -0.323555 -6.661665 1.495117 0
M  V30 29 H -2.365654 -4.296207 -1.618012 0
M  V30 30 H -1.700317 -2.003549 -1.873141 0
M  V30 31 H -1.135178 -0.087490 -2.071376 0
M  V30 32 H -0.939923 2.341479 -3.163395 0
M  V30 33 H -0.526648 5.570326 -2.278972 0
M  V30 34 H 0.249985 4.874926 -3.732977 0
M  V30 35 H 1.296761 5.468098 -2.396130 0
M  V30 36 H 1.504199 4.011356 -0.191952 0
M  V30 37 H 2.020614 1.638680 2.014615 0
M  V30 38 H 3.419747 2.651386 3.683011 0
M  V30 39 H 4.133848 1.284862 5.624596 0
M  V30 40 H 3.424749 -1.012694 5.811780 0
M  V30 41 H 1.964320 -2.096358 4.085460 0
M  V30 42 H -0.238673 -4.653171 2.015273 0
M  V30 END ATOM
M  V30 BEGIN BOND
M  V30 1 1 1 2
M  V30 2 1 2 3
M  V30 3 2 3 4
M  V30 4 1 4 5
M  V30 5 2 5 6
M  V30 6 1 6 7
M  V30 7 1 7 8
M  V30 8 1 8 9
M  V30 9 1 9 10
M  V30 10 2 10 11
M  V30 11 1 11 12
M  V30 12 1 11 13
M  V30 13 1 13 14
M  V30 14 2 7 15
M  V30 15 1 15 16
M  V30 16 1 16 17
M  V30 17 2 17 18
M  V30 18 1 18 19
M  V30 19 2 19 20
M  V30 20 1 20 21
M  V30 21 2 21 22
M  V30 22 2 16 23
M  V30 23 1 23 24
M  V30 24 2 24 25
M  V30 25 1 25 3
M  V30 26 1 24 6
M  V30 27 2 14 9
M  V30 28 1 22 17
M  V30 29 1 1 26
M  V30 30 1 1 27
M  V30 31 1 1 28
M  V30 32 1 4 29
M  V30 33 1 5 30
M  V30 34 1 8 31
M  V30 35 1 10 32
M  V30 36 1 12 33
M  V30 37 1 12 34
M  V30 38 1 12 35
M  V30 39 1 13 36
M  V30 40 1 18 37
M  V30 41 1 19 38
M  V30 42 1 20 39
M  V30 43 1 21 40
M  V30 44 1 22 41
M  V30 45 1 25 42
M  V30 END BOND
M  V30 END CTAB
M  END
>  <Dataset>  (805) 
ChEMBL_Kinases

>  <Ligand_Instance>  (805) 
nan

>  <PDB_ID>  (805) 
nan

>  <Standardized_SMILES>  (805) 
COc1ccc2c(Nc3cc(C)[nH]n3)nc(-c3ccccc3)nc2c1

>  <Name>  (805) 
nan

>  <Pocket>  (805) 
nan

>  <ATP_Site>  (805) 
nan

>  <Peripheral>  (805) 
nan

>  <Num_H_Atoms_ProtBoundConf>  (805) 
nan

>  <Num_Resolved_Atoms>  (805) 
nan

>  <Num_Not_Resolved_Atoms>  (805) 
nan

$$$$
CHEMBL3680504
     RDKit          3D

  0  0  0  0  0  0  0  0  0  0999 V3000
M  V30 BEGIN CTAB
M  V30 COUNTS 57 60 0 0 0
M  V30 BEGIN ATOM
M  V30 1 C 4.095700 -2.214790 4.330240 0
M  V30 2 C 4.647909 -2.638109 2.987824 0
M  V30 3 C 3.715737 -3.749226 2.482971 0
M  V30 4 C 4.518292 -1.483379 2.058689 0
M  V30 5 C 5.627285 -0.915012 1.339336 0
M  V30 6 S 4.732195 0.464005 0.388977 0
M  V30 7 C 3.166907 0.020278 1.105998 0
M  V30 8 C 1.817347 0.703092 0.835175 0
M  V30 9 O 0.701285 0.407502 1.328829 0
M  V30 10 N 1.840077 1.774138 -0.063444 0
M  V30 11 C 0.498705 2.291785 -0.197898 0
M  V30 12 C -0.024637 3.294727 0.598424 0
M  V30 13 C -1.321661 3.733906 0.404105 0
M  V30 14 C -2.039060 3.129742 -0.600586 0
M  V30 15 C -1.537489 2.124522 -1.410219 0
M  V30 16 C -2.415589 1.532906 -2.481975 0 CFG=1
M  V30 17 C -1.999322 1.997272 -3.843239 0
M  V30 18 N -2.257589 0.088740 -2.421709 0
M  V30 19 C -2.607366 -0.546934 -1.184955 0
M  V30 20 N -3.056529 0.175644 -0.145561 0
M  V30 21 C -3.400700 -0.350323 1.037361 0
M  V30 22 N -3.315293 -1.669537 1.262914 0
M  V30 23 C -2.867570 -2.424458 0.239381 0
M  V30 24 C -2.736364 -3.790597 0.348970 0
M  V30 25 C -3.111293 -4.354499 1.635821 0
M  V30 26 N -3.587561 -3.602505 2.743389 0
M  V30 27 O -3.241654 -5.350453 2.369790 0
M  V30 28 C -2.294400 -4.663046 -0.616661 0
M  V30 29 C -1.947416 -4.089265 -1.824833 0
M  V30 30 C -2.057920 -2.717312 -1.996543 0
M  V30 31 C -2.504410 -1.919831 -0.990950 0
M  V30 32 C -0.247804 1.705080 -1.198859 0
M  V30 33 N 3.339751 -0.927065 1.856839 0
M  V30 34 H 3.259453 -1.490057 4.116307 0
M  V30 35 H 4.861128 -1.761482 4.971910 0
M  V30 36 H 3.595324 -3.085468 4.806952 0
M  V30 37 H 5.677511 -2.995103 3.048132 0
M  V30 38 H 4.256742 -4.253042 1.669789 0
M  V30 39 H 3.452355 -4.456281 3.267407 0
M  V30 40 H 2.811302 -3.239253 2.072607 0
M  V30 41 H 6.657712 -1.340623 1.464922 0
M  V30 42 H 2.679178 2.158307 -0.569947 0
M  V30 43 H 0.623613 3.713916 1.372646 0
M  V30 44 H -1.729706 4.521997 1.031797 0
M  V30 45 H -3.068453 3.488974 -0.744416 0
M  V30 46 H -3.463137 1.835176 -2.272717 0
M  V30 47 H -2.418610 1.248119 -4.577570 0
M  V30 48 H -2.424095 2.985313 -4.097726 0
M  V30 49 H -0.895234 2.097913 -3.927824 0
M  V30 50 H -1.908819 -0.403881 -3.251769 0
M  V30 51 H -3.736524 0.393489 1.741754 0
M  V30 52 H -4.369815 -3.018843 3.106880 0
M  V30 53 H -4.483379 -3.050713 2.899351 0
M  V30 54 H -2.238031 -5.723017 -0.401854 0
M  V30 55 H -1.591522 -4.740728 -2.621905 0
M  V30 56 H -1.770455 -2.349551 -2.958995 0
M  V30 57 H 0.155914 0.914092 -1.832243 0
M  V30 END ATOM
M  V30 BEGIN BOND
M  V30 1 1 1 2
M  V30 2 1 2 3
M  V30 3 1 2 4
M  V30 4 2 4 5
M  V30 5 1 5 6
M  V30 6 1 6 7
M  V30 7 1 7 8
M  V30 8 2 8 9
M  V30 9 1 8 10
M  V30 10 1 10 11
M  V30 11 2 11 12
M  V30 12 1 12 13
M  V30 13 2 13 14
M  V30 14 1 14 15
M  V30 15 1 15 16
M  V30 16 1 16 17
M  V30 17 1 16 18
M  V30 18 1 18 19
M  V30 19 2 19 20
M  V30 20 1 20 21
M  V30 21 2 21 22
M  V30 22 1 22 23
M  V30 23 2 23 24
M  V30 24 1 24 25
M  V30 25 1 25 26
M  V30 26 2 25 27
M  V30 27 1 24 28
M  V30 28 2 28 29
M  V30 29 1 29 30
M  V30 30 2 30 31
M  V30 31 2 15 32
M  V30 32 2 7 33
M  V30 33 1 33 4
M  V30 34 1 32 11
M  V30 35 1 31 19
M  V30 36 1 31 23
M  V30 37 1 1 34
M  V30 38 1 1 35
M  V30 39 1 1 36
M  V30 40 1 2 37
M  V30 41 1 3 38
M  V30 42 1 3 39
M  V30 43 1 3 40
M  V30 44 1 5 41
M  V30 45 1 10 42
M  V30 46 1 12 43
M  V30 47 1 13 44
M  V30 48 1 14 45
M  V30 49 1 16 46 CFG=1
M  V30 50 1 17 47
M  V30 51 1 17 48
M  V30 52 1 17 49
M  V30 53 1 18 50
M  V30 54 1 21 51
M  V30 55 1 26 52
M  V30 56 1 26 53
M  V30 57 1 28 54
M  V30 58 1 29 55
M  V30 59 1 30 56
M  V30 60 1 32 57
M  V30 END BOND
M  V30 END CTAB
M  END
>  <Dataset>  (806) 
ChEMBL_Kinases

>  <Ligand_Instance>  (806) 
nan

>  <PDB_ID>  (806) 
nan

>  <Standardized_SMILES>  (806) 
CC(C)c1csc(C(=O)Nc2cccc([C@@H](C)Nc3ncnc4c(C(N)=O)cccc34)c2)n1

>  <Name>  (806) 
nan

>  <Pocket>  (806) 
nan

>  <ATP_Site>  (806) 
nan

>  <Peripheral>  (806) 
nan

>  <Num_H_Atoms_ProtBoundConf>  (806) 
nan

>  <Num_Resolved_Atoms>  (806) 
nan

>  <Num_Not_Resolved_Atoms>  (806) 
nan

$$$$
CHEMBL3701729
     RDKit          3D

  0  0  0  0  0  0  0  0  0  0999 V3000
M  V30 BEGIN CTAB
M  V30 COUNTS 53 58 0 0 0
M  V30 BEGIN ATOM
M  V30 1 N -0.578097 -3.998150 4.933462 0
M  V30 2 C -0.682576 -4.414141 3.550326 0
M  V30 3 C -0.463258 -3.361161 2.543997 0
M  V30 4 C 0.185326 -3.508187 1.336045 0
M  V30 5 C 0.343617 -2.441028 0.453679 0
M  V30 6 C -0.183705 -1.228986 0.854759 0
M  V30 7 C -0.055518 -0.072630 -0.025692 0
M  V30 8 N -0.778101 -0.190243 -1.180153 0
M  V30 9 C -0.578750 0.949517 -1.909178 0
M  V30 10 N 0.250447 1.734271 -1.200287 0
M  V30 11 C 0.594917 1.145546 -0.039799 0
M  V30 12 C 1.431893 1.481546 1.105610 0
M  V30 13 C 2.480949 0.610438 1.299492 0
M  V30 14 C 3.364862 0.815275 2.362310 0
M  V30 15 C 3.146674 1.906731 3.194157 0
M  V30 16 C 2.101890 2.789417 3.015270 0
M  V30 17 C 1.240468 2.556720 1.948007 0
M  V30 18 C 0.753377 3.045878 -1.565832 0
M  V30 19 O 0.267227 3.488587 -2.819200 0
M  V30 20 C -0.591999 2.724439 -3.599899 0
M  V30 21 C -1.049628 3.184610 -4.829053 0
M  V30 22 C -1.902023 2.455467 -5.630744 0
M  V30 23 C -2.307037 1.201344 -5.160674 0
M  V30 24 C -1.879558 0.700025 -3.944278 0
M  V30 25 C -1.025103 1.482807 -3.188946 0
M  V30 26 C -0.841069 -1.043822 2.060145 0
M  V30 27 C -0.988647 -2.120203 2.925512 0
M  V30 28 C -0.124693 -5.767603 3.280094 0
M  V30 29 C -1.390509 -6.098818 2.520141 0
M  V30 30 C -2.077586 -5.029150 3.347458 0
M  V30 31 H -1.505194 -3.660909 5.294875 0
M  V30 32 H 0.174774 -3.280890 5.047061 0
M  V30 33 H 0.561755 -4.480552 1.103997 0
M  V30 34 H 0.848155 -2.578878 -0.475537 0
M  V30 35 H 2.742750 -0.264187 0.718361 0
M  V30 36 H 4.231283 0.194030 2.614423 0
M  V30 37 H 3.815304 2.088704 4.024783 0
M  V30 38 H 1.918259 3.640510 3.649319 0
M  V30 39 H 0.393318 3.177657 1.710729 0
M  V30 40 H 1.863312 3.061540 -1.640468 0
M  V30 41 H 0.426982 3.810216 -0.825406 0
M  V30 42 H -0.702229 4.178082 -5.158618 0
M  V30 43 H -2.215217 2.863099 -6.560870 0
M  V30 44 H -2.971300 0.597068 -5.756477 0
M  V30 45 H -2.197912 -0.259053 -3.601646 0
M  V30 46 H -1.244856 -0.073459 2.341550 0
M  V30 47 H -1.507209 -1.939940 3.860619 0
M  V30 48 H 0.819678 -5.813327 2.709853 0
M  V30 49 H -0.139915 -6.365026 4.228913 0
M  V30 50 H -1.364343 -5.886947 1.423805 0
M  V30 51 H -1.751451 -7.136716 2.668563 0
M  V30 52 H -2.501490 -5.492576 4.266213 0
M  V30 53 H -2.772177 -4.390922 2.786832 0
M  V30 END ATOM
M  V30 BEGIN BOND
M  V30 1 1 1 2
M  V30 2 1 2 3
M  V30 3 2 3 4
M  V30 4 1 4 5
M  V30 5 2 5 6
M  V30 6 1 6 7
M  V30 7 1 7 8
M  V30 8 2 8 9
M  V30 9 1 9 10
M  V30 10 1 10 11
M  V30 11 1 11 12
M  V30 12 2 12 13
M  V30 13 1 13 14
M  V30 14 2 14 15
M  V30 15 1 15 16
M  V30 16 2 16 17
M  V30 17 1 10 18
M  V30 18 1 18 19
M  V30 19 1 19 20
M  V30 20 2 20 21
M  V30 21 1 21 22
M  V30 22 2 22 23
M  V30 23 1 23 24
M  V30 24 2 24 25
M  V30 25 1 6 26
M  V30 26 2 26 27
M  V30 27 1 2 28
M  V30 28 1 28 29
M  V30 29 1 29 30
M  V30 30 1 30 2
M  V30 31 1 27 3
M  V30 32 2 11 7
M  V30 33 1 17 12
M  V30 34 1 25 20
M  V30 35 1 25 9
M  V30 36 1 1 31
M  V30 37 1 1 32
M  V30 38 1 4 33
M  V30 39 1 5 34
M  V30 40 1 13 35
M  V30 41 1 14 36
M  V30 42 1 15 37
M  V30 43 1 16 38
M  V30 44 1 17 39
M  V30 45 1 18 40
M  V30 46 1 18 41
M  V30 47 1 21 42
M  V30 48 1 22 43
M  V30 49 1 23 44
M  V30 50 1 24 45
M  V30 51 1 26 46
M  V30 52 1 27 47
M  V30 53 1 28 48
M  V30 54 1 28 49
M  V30 55 1 29 50
M  V30 56 1 29 51
M  V30 57 1 30 52
M  V30 58 1 30 53
M  V30 END BOND
M  V30 END CTAB
M  END
>  <Dataset>  (807) 
ChEMBL_Kinases

>  <Ligand_Instance>  (807) 
nan

>  <PDB_ID>  (807) 
nan

>  <Standardized_SMILES>  (807) 
NC1(c2ccc(-c3nc4n(c3-c3ccccc3)COc3ccccc3-4)cc2)CCC1

>  <Name>  (807) 
nan

>  <Pocket>  (807) 
nan

>  <ATP_Site>  (807) 
nan

>  <Peripheral>  (807) 
nan

>  <Num_H_Atoms_ProtBoundConf>  (807) 
nan

>  <Num_Resolved_Atoms>  (807) 
nan

>  <Num_Not_Resolved_Atoms>  (807) 
nan

$$$$
CHEMBL4278387
     RDKit          3D

  0  0  0  0  0  0  0  0  0  0999 V3000
M  V30 BEGIN CTAB
M  V30 COUNTS 44 48 0 0 0
M  V30 BEGIN ATOM
M  V30 1 C -3.045435 -7.234912 -0.031011 0
M  V30 2 C -2.920173 -5.767678 0.175494 0
M  V30 3 C -1.897639 -4.925514 -0.257459 0
M  V30 4 C -2.219360 -3.631397 0.174686 0
M  V30 5 N -1.515723 -2.449574 -0.024035 0
M  V30 6 C -1.395088 -1.358846 -0.908848 0
M  V30 7 N -0.468994 -0.395459 -0.628255 0
M  V30 8 C -0.290386 0.667407 -1.410766 0
M  V30 9 C 0.729575 1.631039 -1.010685 0
M  V30 10 C 0.921013 2.737041 -1.812237 0
M  V30 11 C 1.894856 3.660379 -1.432797 0
M  V30 12 C 2.612467 3.403041 -0.264576 0
M  V30 13 C 3.591369 4.324450 0.123047 0
M  V30 14 C 4.380852 4.190000 1.267255 0
M  V30 15 C 4.157428 3.069772 2.041024 0
M  V30 16 C 3.198366 2.150294 1.677081 0
M  V30 17 C 2.424034 2.293691 0.543973 0
M  V30 18 C 1.452527 1.399447 0.140040 0
M  V30 19 N -1.027816 0.829096 -2.520168 0
M  V30 20 C -1.971514 -0.048769 -2.905111 0
M  V30 21 C -2.750701 0.079438 -4.035957 0
M  V30 22 C -3.697202 -0.861153 -4.363721 0
M  V30 23 C -3.862675 -1.967635 -3.522192 0
M  V30 24 C -3.064650 -2.049822 -2.411014 0
M  V30 25 C -2.110337 -1.125103 -2.058152 0
M  V30 26 N -3.402152 -3.747328 0.839074 0
M  V30 27 N -3.819447 -4.998128 0.843321 0
M  V30 28 H -3.680036 -7.383887 -0.937064 0
M  V30 29 H -2.073398 -7.695463 -0.259067 0
M  V30 30 H -3.453667 -7.663556 0.886739 0
M  V30 31 H -1.022700 -5.219982 -0.820530 0
M  V30 32 H -0.888025 -2.453835 0.813482 0
M  V30 33 H 0.344381 2.887681 -2.697726 0
M  V30 34 H 2.102175 4.553480 -2.012173 0
M  V30 35 H 3.748207 5.197316 -0.502381 0
M  V30 36 H 5.115008 4.965564 1.477527 0
M  V30 37 H 4.758343 2.945481 2.932721 0
M  V30 38 H 3.011643 1.253351 2.286429 0
M  V30 39 H 1.289797 0.517785 0.766104 0
M  V30 40 H -2.546311 0.969164 -4.620169 0
M  V30 41 H -4.290892 -0.723387 -5.263517 0
M  V30 42 H -4.613083 -2.696036 -3.798919 0
M  V30 43 H -3.260441 -2.928107 -1.824763 0
M  V30 44 H -4.717544 -5.270391 1.312361 0
M  V30 END ATOM
M  V30 BEGIN BOND
M  V30 1 1 1 2
M  V30 2 2 2 3
M  V30 3 1 3 4
M  V30 4 1 4 5
M  V30 5 1 5 6
M  V30 6 2 6 7
M  V30 7 1 7 8
M  V30 8 1 8 9
M  V30 9 2 9 10
M  V30 10 1 10 11
M  V30 11 2 11 12
M  V30 12 1 12 13
M  V30 13 2 13 14
M  V30 14 1 14 15
M  V30 15 2 15 16
M  V30 16 1 16 17
M  V30 17 2 17 18
M  V30 18 2 8 19
M  V30 19 1 19 20
M  V30 20 2 20 21
M  V30 21 1 21 22
M  V30 22 2 22 23
M  V30 23 1 23 24
M  V30 24 2 24 25
M  V30 25 2 4 26
M  V30 26 1 26 27
M  V30 27 1 27 2
M  V30 28 1 25 6
M  V30 29 1 18 9
M  V30 30 1 25 20
M  V30 31 1 17 12
M  V30 32 1 1 28
M  V30 33 1 1 29
M  V30 34 1 1 30
M  V30 35 1 3 31
M  V30 36 1 5 32
M  V30 37 1 10 33
M  V30 38 1 11 34
M  V30 39 1 13 35
M  V30 40 1 14 36
M  V30 41 1 15 37
M  V30 42 1 16 38
M  V30 43 1 18 39
M  V30 44 1 21 40
M  V30 45 1 22 41
M  V30 46 1 23 42
M  V30 47 1 24 43
M  V30 48 1 27 44
M  V30 END BOND
M  V30 END CTAB
M  END
>  <Dataset>  (808) 
ChEMBL_Kinases

>  <Ligand_Instance>  (808) 
nan

>  <PDB_ID>  (808) 
nan

>  <Standardized_SMILES>  (808) 
Cc1cc(Nc2nc(-c3ccc4ccccc4c3)nc3ccccc23)n[nH]1

>  <Name>  (808) 
nan

>  <Pocket>  (808) 
nan

>  <ATP_Site>  (808) 
nan

>  <Peripheral>  (808) 
nan

>  <Num_H_Atoms_ProtBoundConf>  (808) 
nan

>  <Num_Resolved_Atoms>  (808) 
nan

>  <Num_Not_Resolved_Atoms>  (808) 
nan

$$$$
CHEMBL4278353
     RDKit          3D

  0  0  0  0  0  0  0  0  0  0999 V3000
M  V30 BEGIN CTAB
M  V30 COUNTS 36 39 0 0 0
M  V30 BEGIN ATOM
M  V30 1 O -0.924955 -2.242963 3.220788 0
M  V30 2 C -1.661168 -3.184776 2.766727 0
M  V30 3 N -1.204543 -3.726605 1.541337 0
M  V30 4 C -0.003479 -2.998940 1.199129 0
M  V30 5 C 1.208585 -3.485576 1.649522 0
M  V30 6 N 2.274871 -2.731144 1.276195 0
M  V30 7 C 2.165354 -1.613057 0.536386 0
M  V30 8 C 0.951007 -1.179473 0.120101 0
M  V30 9 C 0.773194 0.072065 -0.712294 0
M  V30 10 C 1.736044 0.878322 -1.128279 0
M  V30 11 C 1.475771 1.979564 -1.872028 0
M  V30 12 C 2.424914 2.957128 -2.401271 0
M  V30 13 C 3.717167 2.668162 -2.789961 0
M  V30 14 N 4.276858 3.811753 -3.215024 0
M  V30 15 N 3.379765 4.787010 -3.101790 0
M  V30 16 C 2.208031 4.308090 -2.599550 0
M  V30 17 C 0.063906 2.160238 -2.146620 0
M  V30 18 S -0.706015 0.688528 -1.277196 0
M  V30 19 C -0.192676 -1.866793 0.441317 0
M  V30 20 C -2.869363 -3.579894 3.560318 0
M  V30 21 C -2.883339 -3.182322 4.975099 0
M  V30 22 C -3.722237 -2.369541 4.067509 0
M  V30 23 H -1.812178 -4.507514 1.161469 0
M  V30 24 H 1.263911 -4.380056 2.237841 0
M  V30 25 H 3.056183 -1.055855 0.272557 0
M  V30 26 H 2.789781 0.669522 -0.874947 0
M  V30 27 H 4.150934 1.670086 -2.737987 0
M  V30 28 H 3.555970 5.785848 -3.364480 0
M  V30 29 H 1.288974 4.834499 -2.388043 0
M  V30 30 H -0.345519 3.072717 -2.784778 0
M  V30 31 H -1.155995 -1.538594 0.121152 0
M  V30 32 H -3.486951 -4.401193 3.145922 0
M  V30 33 H -3.429389 -3.784418 5.754893 0
M  V30 34 H -1.933990 -2.759871 5.397847 0
M  V30 35 H -3.403371 -1.373134 3.684402 0
M  V30 36 H -4.812387 -2.508682 4.058720 0
M  V30 END ATOM
M  V30 BEGIN BOND
M  V30 1 2 1 2
M  V30 2 1 2 3
M  V30 3 1 3 4
M  V30 4 2 4 5
M  V30 5 1 5 6
M  V30 6 2 6 7
M  V30 7 1 7 8
M  V30 8 1 8 9
M  V30 9 2 9 10
M  V30 10 1 10 11
M  V30 11 1 11 12
M  V30 12 1 12 13
M  V30 13 2 13 14
M  V30 14 1 14 15
M  V30 15 1 15 16
M  V30 16 2 11 17
M  V30 17 1 17 18
M  V30 18 2 8 19
M  V30 19 1 2 20
M  V30 20 1 20 21
M  V30 21 1 21 22
M  V30 22 1 19 4
M  V30 23 1 22 20
M  V30 24 1 18 9
M  V30 25 2 16 12
M  V30 26 1 3 23
M  V30 27 1 5 24
M  V30 28 1 7 25
M  V30 29 1 10 26
M  V30 30 1 13 27
M  V30 31 1 15 28
M  V30 32 1 16 29
M  V30 33 1 17 30
M  V30 34 1 19 31
M  V30 35 1 20 32
M  V30 36 1 21 33
M  V30 37 1 21 34
M  V30 38 1 22 35
M  V30 39 1 22 36
M  V30 END BOND
M  V30 END CTAB
M  END
>  <Dataset>  (809) 
ChEMBL_Kinases

>  <Ligand_Instance>  (809) 
nan

>  <PDB_ID>  (809) 
nan

>  <Standardized_SMILES>  (809) 
O=C(Nc1cncc(-c2cc(-c3cn[nH]c3)cs2)c1)C1CC1

>  <Name>  (809) 
nan

>  <Pocket>  (809) 
nan

>  <ATP_Site>  (809) 
nan

>  <Peripheral>  (809) 
nan

>  <Num_H_Atoms_ProtBoundConf>  (809) 
nan

>  <Num_Resolved_Atoms>  (809) 
nan

>  <Num_Not_Resolved_Atoms>  (809) 
nan

$$$$
CHEMBL3680570
     RDKit          3D

  0  0  0  0  0  0  0  0  0  0999 V3000
M  V30 BEGIN CTAB
M  V30 COUNTS 55 58 0 0 0
M  V30 BEGIN ATOM
M  V30 1 C 1.358313 -1.811052 2.888602 0
M  V30 2 C 0.645883 -0.544861 3.332758 0 CFG=1
M  V30 3 N 1.470185 0.622640 3.114521 0
M  V30 4 C 1.872878 0.954044 1.792273 0
M  V30 5 N 1.498733 0.218293 0.752730 0
M  V30 6 C 1.849106 0.493048 -0.516665 0
M  V30 7 N 2.619355 1.557598 -0.812821 0
M  V30 8 C 3.039568 2.351924 0.182046 0
M  V30 9 C 3.841574 3.468527 -0.071724 0
M  V30 10 C 4.213369 3.751158 -1.469012 0
M  V30 11 N 5.023170 4.876956 -1.757401 0
M  V30 12 O 3.792007 2.974534 -2.349968 0
M  V30 13 C 4.284211 4.297580 0.946637 0
M  V30 14 C 3.898444 3.974299 2.231958 0
M  V30 15 C 3.110752 2.872827 2.453517 0
M  V30 16 C 2.656490 2.033254 1.470024 0
M  V30 17 C -0.653355 -0.503474 2.617359 0
M  V30 18 C -1.353276 0.684629 2.652384 0
M  V30 19 C -2.565101 0.740849 1.997052 0
M  V30 20 C -3.071612 -0.348989 1.324644 0
M  V30 21 C -2.385798 -1.540373 1.280439 0
M  V30 22 N -2.994661 -2.594464 0.564530 0
M  V30 23 C -2.508825 -3.901757 0.363659 0
M  V30 24 O -1.409072 -4.269982 0.845115 0
M  V30 25 C -2.976478 -5.101818 -0.329998 0
M  V30 26 C -4.355817 -5.291801 -0.767771 0
M  V30 27 C -3.384496 -4.880960 -1.794270 0
M  V30 28 C -2.835590 -5.903665 -2.777156 0
M  V30 29 C -3.457017 -3.504060 -2.357045 0
M  V30 30 C -1.189928 -1.573310 1.935239 0
M  V30 31 H 0.861508 -2.713745 3.316129 0
M  V30 32 H 2.397083 -1.848841 3.290105 0
M  V30 33 H 1.316003 -1.885558 1.804640 0
M  V30 34 H 0.435042 -0.701798 4.419261 0
M  V30 35 H 1.718747 1.157383 3.971312 0
M  V30 36 H 1.556505 -0.088021 -1.366358 0
M  V30 37 H 4.371567 5.580068 -2.185710 0
M  V30 38 H 4.429792 5.621388 -2.190227 0
M  V30 39 H 4.897430 5.149931 0.746881 0
M  V30 40 H 4.250288 4.628332 3.017506 0
M  V30 41 H 2.867063 2.706741 3.476977 0
M  V30 42 H -0.974079 1.542233 3.170154 0
M  V30 43 H -3.147600 1.645249 1.996219 0
M  V30 44 H -4.036302 -0.245864 0.824101 0
M  V30 45 H -3.910853 -2.492158 0.104342 0
M  V30 46 H -2.271475 -5.973010 -0.167861 0
M  V30 47 H -4.758259 -6.339339 -0.819942 0
M  V30 48 H -5.104579 -4.543705 -0.405873 0
M  V30 49 H -3.038720 -6.946638 -2.481898 0
M  V30 50 H -3.194894 -5.669463 -3.784853 0
M  V30 51 H -1.721208 -5.766683 -2.816340 0
M  V30 52 H -4.461057 -3.064159 -2.136889 0
M  V30 53 H -2.705102 -2.861239 -1.900801 0
M  V30 54 H -3.249520 -3.473684 -3.456181 0
M  V30 55 H -0.615309 -2.459949 1.940895 0
M  V30 END ATOM
M  V30 BEGIN BOND
M  V30 1 1 1 2
M  V30 2 1 2 3
M  V30 3 1 3 4
M  V30 4 2 4 5
M  V30 5 1 5 6
M  V30 6 2 6 7
M  V30 7 1 7 8
M  V30 8 2 8 9
M  V30 9 1 9 10
M  V30 10 1 10 11
M  V30 11 2 10 12
M  V30 12 1 9 13
M  V30 13 2 13 14
M  V30 14 1 14 15
M  V30 15 2 15 16
M  V30 16 1 2 17
M  V30 17 2 17 18
M  V30 18 1 18 19
M  V30 19 2 19 20
M  V30 20 1 20 21
M  V30 21 1 21 22
M  V30 22 1 22 23
M  V30 23 2 23 24
M  V30 24 1 23 25
M  V30 25 1 25 26
M  V30 26 1 26 27
M  V30 27 1 27 28
M  V30 28 1 27 29
M  V30 29 2 21 30
M  V30 30 1 16 4
M  V30 31 1 30 17
M  V30 32 1 16 8
M  V30 33 1 27 25
M  V30 34 1 1 31
M  V30 35 1 1 32
M  V30 36 1 1 33
M  V30 37 1 2 34 CFG=1
M  V30 38 1 3 35
M  V30 39 1 6 36
M  V30 40 1 11 37
M  V30 41 1 11 38
M  V30 42 1 13 39
M  V30 43 1 14 40
M  V30 44 1 15 41
M  V30 45 1 18 42
M  V30 46 1 19 43
M  V30 47 1 20 44
M  V30 48 1 22 45
M  V30 49 1 25 46
M  V30 50 1 26 47
M  V30 51 1 26 48
M  V30 52 1 28 49
M  V30 53 1 28 50
M  V30 54 1 28 51
M  V30 55 1 29 52
M  V30 56 1 29 53
M  V30 57 1 29 54
M  V30 58 1 30 55
M  V30 END BOND
M  V30 END CTAB
M  END
>  <Dataset>  (810) 
ChEMBL_Kinases

>  <Ligand_Instance>  (810) 
nan

>  <PDB_ID>  (810) 
nan

>  <Standardized_SMILES>  (810) 
C[C@@H](Nc1ncnc2c(C(N)=O)cccc12)c1cccc(NC(=O)C2CC2(C)C)c1

>  <Name>  (810) 
nan

>  <Pocket>  (810) 
nan

>  <ATP_Site>  (810) 
nan

>  <Peripheral>  (810) 
nan

>  <Num_H_Atoms_ProtBoundConf>  (810) 
nan

>  <Num_Resolved_Atoms>  (810) 
nan

>  <Num_Not_Resolved_Atoms>  (810) 
nan

$$$$
CHEMBL3680501
     RDKit          3D

  0  0  0  0  0  0  0  0  0  0999 V3000
M  V30 BEGIN CTAB
M  V30 COUNTS 52 55 0 0 0
M  V30 BEGIN ATOM
M  V30 1 C -1.626508 -3.366506 1.762469 0
M  V30 2 N -1.154048 -3.343321 0.389498 0
M  V30 3 C -1.874695 -2.312988 -0.318686 0
M  V30 4 C -1.526221 -0.923385 0.150155 0 CFG=1
M  V30 5 N -0.171549 -0.516583 0.030483 0
M  V30 6 C 1.168386 -0.114399 -0.089063 0
M  V30 7 N 1.978814 -0.037214 -1.148398 0
M  V30 8 C 3.245377 0.373576 -1.093381 0
M  V30 9 N 3.714649 0.725575 0.104326 0
M  V30 10 C 3.010536 0.694245 1.236631 0
M  V30 11 C 1.698630 0.264442 1.158117 0
M  V30 12 C 1.093466 0.266645 2.328243 0
M  V30 13 C 1.536762 0.635403 3.686401 0
M  V30 14 C 2.949368 1.104503 3.709308 0
M  V30 15 C 3.580954 1.075202 2.366419 0
M  V30 16 C 4.965058 1.513125 2.292296 0
M  V30 17 N 5.687074 1.943743 3.430693 0
M  V30 18 O 5.748528 1.601298 1.320111 0
M  V30 19 C -2.479017 0.027040 -0.488454 0
M  V30 20 C -2.136091 1.337740 -0.137889 0
M  V30 21 C -2.861896 2.443792 -0.596651 0
M  V30 22 C -3.949763 2.150323 -1.426460 0
M  V30 23 C -4.294251 0.862462 -1.776695 0
M  V30 24 C -3.560944 -0.205838 -1.309642 0
M  V30 25 C -1.291027 -4.614895 -0.275858 0
M  V30 26 C -0.798394 -4.625947 -1.712162 0
M  V30 27 C -2.240599 -4.793645 -1.400491 0
M  V30 28 H -1.830380 -4.396620 2.110966 0
M  V30 29 H -2.556985 -2.774538 1.869339 0
M  V30 30 H -0.862395 -2.901506 2.397281 0
M  V30 31 H -1.817317 -2.371752 -1.404658 0
M  V30 32 H -2.949934 -2.468768 -0.051770 0
M  V30 33 H -1.794276 -0.883042 1.271350 0
M  V30 34 H -0.332300 -0.733366 -1.003244 0
M  V30 35 H 3.761386 0.375855 -2.041963 0
M  V30 36 H 0.085268 -0.048712 2.362223 0
M  V30 37 H 0.888705 1.404400 4.156516 0
M  V30 38 H 1.444040 -0.273548 4.320107 0
M  V30 39 H 3.016019 2.139999 4.105698 0
M  V30 40 H 3.555503 0.422578 4.365217 0
M  V30 41 H 6.575247 1.584684 3.843646 0
M  V30 42 H 6.441446 1.950066 4.125471 0
M  V30 43 H -1.311812 1.654383 0.497146 0
M  V30 44 H -2.628051 3.463804 -0.348315 0
M  V30 45 H -4.545372 2.989034 -1.807128 0
M  V30 46 H -5.118862 0.630521 -2.407235 0
M  V30 47 H -3.707737 -1.251429 -1.495012 0
M  V30 48 H -1.113122 -5.493546 0.358063 0
M  V30 49 H -0.169470 -5.515926 -1.944450 0
M  V30 50 H -0.498077 -3.697443 -2.198737 0
M  V30 51 H -2.614145 -5.835153 -1.584638 0
M  V30 52 H -2.965639 -4.030909 -1.703505 0
M  V30 END ATOM
M  V30 BEGIN BOND
M  V30 1 1 1 2
M  V30 2 1 2 3
M  V30 3 1 3 4
M  V30 4 1 4 5
M  V30 5 1 5 6
M  V30 6 2 6 7
M  V30 7 1 7 8
M  V30 8 2 8 9
M  V30 9 1 9 10
M  V30 10 1 10 11
M  V30 11 2 11 12
M  V30 12 1 12 13
M  V30 13 1 13 14
M  V30 14 1 14 15
M  V30 15 1 15 16
M  V30 16 1 16 17
M  V30 17 2 16 18
M  V30 18 1 4 19
M  V30 19 2 19 20
M  V30 20 1 20 21
M  V30 21 2 21 22
M  V30 22 1 22 23
M  V30 23 2 23 24
M  V30 24 1 2 25
M  V30 25 1 25 26
M  V30 26 1 26 27
M  V30 27 1 11 6
M  V30 28 1 24 19
M  V30 29 1 27 25
M  V30 30 2 15 10
M  V30 31 1 1 28
M  V30 32 1 1 29
M  V30 33 1 1 30
M  V30 34 1 3 31
M  V30 35 1 3 32
M  V30 36 1 4 33 CFG=1
M  V30 37 1 5 34
M  V30 38 1 8 35
M  V30 39 1 12 36
M  V30 40 1 13 37
M  V30 41 1 13 38
M  V30 42 1 14 39
M  V30 43 1 14 40
M  V30 44 1 17 41
M  V30 45 1 17 42
M  V30 46 1 20 43
M  V30 47 1 21 44
M  V30 48 1 22 45
M  V30 49 1 23 46
M  V30 50 1 24 47
M  V30 51 1 25 48
M  V30 52 1 26 49
M  V30 53 1 26 50
M  V30 54 1 27 51
M  V30 55 1 27 52
M  V30 END BOND
M  V30 END CTAB
M  END
>  <Dataset>  (811) 
ChEMBL_Kinases

>  <Ligand_Instance>  (811) 
nan

>  <PDB_ID>  (811) 
nan

>  <Standardized_SMILES>  (811) 
CN(C[C@@H](Nc1ncnc2c1=CCCC=2C(N)=O)c1ccccc1)C1CC1

>  <Name>  (811) 
nan

>  <Pocket>  (811) 
nan

>  <ATP_Site>  (811) 
nan

>  <Peripheral>  (811) 
nan

>  <Num_H_Atoms_ProtBoundConf>  (811) 
nan

>  <Num_Resolved_Atoms>  (811) 
nan

>  <Num_Not_Resolved_Atoms>  (811) 
nan

$$$$
CHEMBL4278101
     RDKit          3D

  0  0  0  0  0  0  0  0  0  0999 V3000
M  V30 BEGIN CTAB
M  V30 COUNTS 34 37 0 0 0
M  V30 BEGIN ATOM
M  V30 1 N -1.674055 -2.758670 5.300411 0
M  V30 2 C -1.201607 -2.333434 4.043230 0
M  V30 3 N -1.158641 -1.058717 3.614308 0
M  V30 4 C -0.695743 -0.710072 2.399855 0
M  V30 5 O -0.693365 0.573324 2.067442 0
M  V30 6 C -0.257844 0.999922 0.899736 0
M  V30 7 C -0.270956 2.344270 0.589478 0
M  V30 8 C 0.172484 2.843777 -0.616032 0
M  V30 9 C 0.649145 1.907322 -1.536853 0
M  V30 10 C 1.130568 2.461449 -2.848549 0
M  V30 11 C 2.201264 1.740856 -3.582678 0
M  V30 12 C 0.765058 1.613615 -4.061016 0
M  V30 13 C 0.684808 0.564337 -1.281787 0
M  V30 14 C 0.228892 0.128358 -0.062128 0
M  V30 15 C 0.241044 -1.218254 0.251041 0
M  V30 16 O 0.660976 -2.092267 -0.547714 0
M  V30 17 C -0.221395 -1.635633 1.481856 0
M  V30 18 C -0.251022 -2.961935 1.891467 0
M  V30 19 C -0.734578 -3.272035 3.146347 0
M  V30 20 C -0.704336 -4.701404 3.436518 0
M  V30 21 O -0.327415 -5.702879 2.774826 0
M  V30 22 O -1.157379 -5.211806 4.668004 0
M  V30 23 H -0.925654 -2.861978 6.026399 0
M  V30 24 H -2.712239 -2.884032 5.233062 0
M  V30 25 H -0.640927 3.098681 1.297181 0
M  V30 26 H 0.151345 3.902472 -0.834082 0
M  V30 27 H 1.062348 3.551888 -2.960881 0
M  V30 28 H 2.668698 0.847947 -3.167917 0
M  V30 29 H 2.876147 2.374981 -4.189526 0
M  V30 30 H 0.281107 0.631506 -3.901624 0
M  V30 31 H 0.475788 2.096899 -4.996157 0
M  V30 32 H 1.053914 -0.146878 -1.998384 0
M  V30 33 H 0.116871 -3.681023 1.179787 0
M  V30 34 H -1.794906 -5.994072 4.742621 0
M  V30 END ATOM
M  V30 BEGIN BOND
M  V30 1 1 1 2
M  V30 2 2 2 3
M  V30 3 1 3 4
M  V30 4 1 4 5
M  V30 5 1 5 6
M  V30 6 2 6 7
M  V30 7 1 7 8
M  V30 8 2 8 9
M  V30 9 1 9 10
M  V30 10 1 10 11
M  V30 11 1 11 12
M  V30 12 1 9 13
M  V30 13 2 13 14
M  V30 14 1 14 15
M  V30 15 2 15 16
M  V30 16 1 15 17
M  V30 17 1 17 18
M  V30 18 2 18 19
M  V30 19 1 19 20
M  V30 20 2 20 21
M  V30 21 1 20 22
M  V30 22 1 19 2
M  V30 23 2 17 4
M  V30 24 1 14 6
M  V30 25 1 12 10
M  V30 26 1 1 23
M  V30 27 1 1 24
M  V30 28 1 7 25
M  V30 29 1 8 26
M  V30 30 1 10 27
M  V30 31 1 11 28
M  V30 32 1 11 29
M  V30 33 1 12 30
M  V30 34 1 12 31
M  V30 35 1 13 32
M  V30 36 1 18 33
M  V30 37 1 22 34
M  V30 END BOND
M  V30 END CTAB
M  END
>  <Dataset>  (812) 
ChEMBL_Kinases

>  <Ligand_Instance>  (812) 
nan

>  <PDB_ID>  (812) 
nan

>  <Standardized_SMILES>  (812) 
Nc1nc2oc3ccc(C4CC4)cc3c(=O)c2cc1C(=O)O

>  <Name>  (812) 
nan

>  <Pocket>  (812) 
nan

>  <ATP_Site>  (812) 
nan

>  <Peripheral>  (812) 
nan

>  <Num_H_Atoms_ProtBoundConf>  (812) 
nan

>  <Num_Resolved_Atoms>  (812) 
nan

>  <Num_Not_Resolved_Atoms>  (812) 
nan

$$$$
CHEMBL3109949
     RDKit          3D

  0  0  0  0  0  0  0  0  0  0999 V3000
M  V30 BEGIN CTAB
M  V30 COUNTS 38 41 0 0 0
M  V30 BEGIN ATOM
M  V30 1 C -1.979364 -6.923113 2.981003 0
M  V30 2 O -1.917312 -5.539670 3.291594 0
M  V30 3 C -0.944138 -4.771981 2.660606 0
M  V30 4 C -0.041156 -5.283195 1.754506 0
M  V30 5 C 0.906109 -4.495594 1.150704 0
M  V30 6 C 1.024726 -3.143151 1.401086 0
M  V30 7 N 1.989426 -2.280750 0.831389 0
M  V30 8 C 1.955236 -0.929792 0.412995 0
M  V30 9 C 0.850022 -0.119439 0.343519 0
M  V30 10 C 0.918608 1.209317 -0.064539 0
M  V30 11 N -0.053570 2.120092 -0.186283 0
M  V30 12 C 0.512685 3.270728 -0.619418 0
M  V30 13 C -0.192956 4.520719 -0.885410 0
M  V30 14 C 0.279984 5.756199 -1.328082 0
M  V30 15 N -0.770642 6.616930 -1.428787 0
M  V30 16 N -1.878108 5.987275 -1.072857 0
M  V30 17 C -1.554618 4.719335 -0.740661 0
M  V30 18 C 1.872753 3.062536 -0.769200 0
M  V30 19 C 2.131383 1.745616 -0.415007 0
M  V30 20 C 3.220757 0.904852 -0.334242 0
M  V30 21 N 3.125756 -0.372786 0.062554 0
M  V30 22 C 0.107470 -2.616507 2.323411 0
M  V30 23 C -0.853933 -3.415600 2.937186 0
M  V30 24 H -2.339874 -7.102108 1.950829 0
M  V30 25 H -2.643330 -7.411045 3.743624 0
M  V30 26 H -0.972484 -7.359164 3.117486 0
M  V30 27 H -0.110142 -6.347073 1.532777 0
M  V30 28 H 1.613046 -4.903183 0.441335 0
M  V30 29 H 2.876194 -2.832049 0.735009 0
M  V30 30 H -0.097781 -0.520102 0.599634 0
M  V30 31 H -1.064005 1.993375 0.008657 0
M  V30 32 H 1.328032 5.943232 -1.540023 0
M  V30 33 H -2.886568 6.307917 -1.015616 0
M  V30 34 H -2.229985 3.941624 -0.404383 0
M  V30 35 H 2.635498 3.749712 -1.093625 0
M  V30 36 H 4.184162 1.317751 -0.609354 0
M  V30 37 H 0.050980 -1.597056 2.652643 0
M  V30 38 H -1.578143 -3.024987 3.657120 0
M  V30 END ATOM
M  V30 BEGIN BOND
M  V30 1 1 1 2
M  V30 2 1 2 3
M  V30 3 2 3 4
M  V30 4 1 4 5
M  V30 5 2 5 6
M  V30 6 1 6 7
M  V30 7 1 7 8
M  V30 8 2 8 9
M  V30 9 1 9 10
M  V30 10 1 10 11
M  V30 11 1 11 12
M  V30 12 1 12 13
M  V30 13 1 13 14
M  V30 14 2 14 15
M  V30 15 1 15 16
M  V30 16 1 16 17
M  V30 17 2 12 18
M  V30 18 1 18 19
M  V30 19 1 19 20
M  V30 20 2 20 21
M  V30 21 1 6 22
M  V30 22 2 22 23
M  V30 23 1 23 3
M  V30 24 1 21 8
M  V30 25 2 19 10
M  V30 26 2 17 13
M  V30 27 1 1 24
M  V30 28 1 1 25
M  V30 29 1 1 26
M  V30 30 1 4 27
M  V30 31 1 5 28
M  V30 32 1 7 29
M  V30 33 1 9 30
M  V30 34 1 11 31
M  V30 35 1 14 32
M  V30 36 1 16 33
M  V30 37 1 17 34
M  V30 38 1 18 35
M  V30 39 1 20 36
M  V30 40 1 22 37
M  V30 41 1 23 38
M  V30 END BOND
M  V30 END CTAB
M  END
>  <Dataset>  (813) 
ChEMBL_Kinases

>  <Ligand_Instance>  (813) 
nan

>  <PDB_ID>  (813) 
nan

>  <Standardized_SMILES>  (813) 
COc1ccc(Nc2cc3[nH]c(-c4cn[nH]c4)cc3cn2)cc1

>  <Name>  (813) 
nan

>  <Pocket>  (813) 
nan

>  <ATP_Site>  (813) 
nan

>  <Peripheral>  (813) 
nan

>  <Num_H_Atoms_ProtBoundConf>  (813) 
nan

>  <Num_Resolved_Atoms>  (813) 
nan

>  <Num_Not_Resolved_Atoms>  (813) 
nan

$$$$
CHEMBL2147546
     RDKit          3D

  0  0  0  0  0  0  0  0  0  0999 V3000
M  V30 BEGIN CTAB
M  V30 COUNTS 38 41 0 0 0
M  V30 BEGIN ATOM
M  V30 1 O -2.000952 -3.284389 4.317864 0
M  V30 2 C -0.869833 -2.966402 3.814865 0
M  V30 3 C -0.799965 -2.918045 2.330060 0
M  V30 4 N -0.114166 -1.687825 1.978313 0
M  V30 5 C -0.335363 -0.662353 0.988834 0
M  V30 6 N 0.638434 -0.454482 0.080168 0
M  V30 7 C 0.574191 0.463420 -0.900373 0
M  V30 8 C 1.717233 0.556579 -1.798733 0
M  V30 9 C 2.788649 -0.276286 -1.612935 0
M  V30 10 C 3.931890 -0.285616 -2.396858 0
M  V30 11 N 3.961600 0.611371 -3.419382 0
M  V30 12 C 2.934189 1.439629 -3.630506 0
M  V30 13 C 1.803866 1.441331 -2.847064 0
M  V30 14 C -0.538080 1.251243 -1.007541 0
M  V30 15 C -1.554626 1.079500 -0.109546 0
M  V30 16 C -2.712675 1.825158 -0.137140 0
M  V30 17 N -3.700586 1.630070 0.767726 0
M  V30 18 C -3.597010 0.701005 1.733525 0
M  V30 19 C -2.454392 -0.079263 1.810512 0
M  V30 20 C -1.458201 0.130969 0.882852 0
M  V30 21 C 1.072034 -1.323808 2.736175 0
M  V30 22 C 1.438253 -2.401295 3.735341 0
M  V30 23 N 0.290323 -2.665483 4.581491 0
M  V30 24 H -1.770324 -3.022839 1.850977 0
M  V30 25 H -0.085866 -3.742128 2.044610 0
M  V30 26 H 2.805500 -1.010368 -0.804629 0
M  V30 27 H 4.764942 -0.949855 -2.233990 0
M  V30 28 H 2.950263 2.159505 -4.445793 0
M  V30 29 H 0.989481 2.115472 -3.034446 0
M  V30 30 H -0.609593 1.984837 -1.777173 0
M  V30 31 H -2.794625 2.572593 -0.915040 0
M  V30 32 H -4.369826 0.511385 2.482883 0
M  V30 33 H -2.375817 -0.821509 2.585390 0
M  V30 34 H 0.971714 -0.364879 3.278505 0
M  V30 35 H 1.916026 -1.262360 1.988555 0
M  V30 36 H 1.673597 -3.358854 3.228462 0
M  V30 37 H 2.304546 -2.064295 4.313364 0
M  V30 38 H 0.089888 -2.692868 5.622855 0
M  V30 END ATOM
M  V30 BEGIN BOND
M  V30 1 2 1 2
M  V30 2 1 2 3
M  V30 3 1 3 4
M  V30 4 1 4 5
M  V30 5 2 5 6
M  V30 6 1 6 7
M  V30 7 1 7 8
M  V30 8 2 8 9
M  V30 9 1 9 10
M  V30 10 2 10 11
M  V30 11 1 11 12
M  V30 12 2 12 13
M  V30 13 2 7 14
M  V30 14 1 14 15
M  V30 15 2 15 16
M  V30 16 1 16 17
M  V30 17 2 17 18
M  V30 18 1 18 19
M  V30 19 2 19 20
M  V30 20 1 4 21
M  V30 21 1 21 22
M  V30 22 1 22 23
M  V30 23 1 23 2
M  V30 24 1 20 5
M  V30 25 1 13 8
M  V30 26 1 20 15
M  V30 27 1 3 24
M  V30 28 1 3 25
M  V30 29 1 9 26
M  V30 30 1 10 27
M  V30 31 1 12 28
M  V30 32 1 13 29
M  V30 33 1 14 30
M  V30 34 1 16 31
M  V30 35 1 18 32
M  V30 36 1 19 33
M  V30 37 1 21 34
M  V30 38 1 21 35
M  V30 39 1 22 36
M  V30 40 1 22 37
M  V30 41 1 23 38
M  V30 END BOND
M  V30 END CTAB
M  END
>  <Dataset>  (814) 
ChEMBL_Kinases

>  <Ligand_Instance>  (814) 
nan

>  <PDB_ID>  (814) 
nan

>  <Standardized_SMILES>  (814) 
O=C1CN(c2nc(-c3ccncc3)cc3cnccc23)CCN1

>  <Name>  (814) 
nan

>  <Pocket>  (814) 
nan

>  <ATP_Site>  (814) 
nan

>  <Peripheral>  (814) 
nan

>  <Num_H_Atoms_ProtBoundConf>  (814) 
nan

>  <Num_Resolved_Atoms>  (814) 
nan

>  <Num_Not_Resolved_Atoms>  (814) 
nan

$$$$
CHEMBL3701728
     RDKit          3D

  0  0  0  0  0  0  0  0  0  0999 V3000
M  V30 BEGIN CTAB
M  V30 COUNTS 57 62 0 0 0
M  V30 BEGIN ATOM
M  V30 1 C 2.870942 -2.676041 4.384564 0
M  V30 2 C 4.101363 -1.907219 4.025850 0
M  V30 3 O 5.235822 -2.261507 4.757800 0
M  V30 4 C 3.942789 -0.413323 3.869311 0
M  V30 5 C 3.878996 -0.581900 2.397887 0
M  V30 6 N 4.834744 0.220217 1.657697 0
M  V30 7 C 2.534249 -0.596394 1.765205 0
M  V30 8 C 1.358922 -0.475626 2.433637 0
M  V30 9 C 0.133289 -0.491931 1.803317 0
M  V30 10 C 0.047867 -0.634857 0.434634 0
M  V30 11 C -1.128655 -0.671629 -0.418770 0
M  V30 12 N -1.364501 -1.856529 -1.058911 0
M  V30 13 C -2.471152 -1.731481 -1.798004 0
M  V30 14 N -2.943023 -0.492766 -1.640784 0
M  V30 15 C -2.138582 0.178969 -0.799663 0
M  V30 16 C -2.166701 1.520141 -0.285096 0
M  V30 17 C -2.359994 1.951576 1.010675 0
M  V30 18 C -2.370731 3.244120 1.431160 0
M  V30 19 C -2.169628 4.197519 0.465518 0
M  V30 20 C -1.966824 3.851540 -0.867039 0
M  V30 21 C -1.963848 2.510542 -1.253047 0
M  V30 22 C -4.127855 -0.055242 -2.309745 0
M  V30 23 O -4.718237 -1.023756 -3.118594 0
M  V30 24 C -4.287594 -2.310210 -3.323798 0
M  V30 25 C -4.900177 -3.237930 -4.130203 0
M  V30 26 C -4.381746 -4.529053 -4.274651 0
M  V30 27 C -3.228463 -4.913931 -3.605619 0
M  V30 28 C -2.602717 -3.977191 -2.786186 0
M  V30 29 C -3.145052 -2.711988 -2.669165 0
M  V30 30 C 1.266638 -0.759419 -0.249463 0
M  V30 31 C 2.504014 -0.742481 0.391151 0
M  V30 32 C 4.430528 -2.005403 2.548367 0
M  V30 33 H 3.173890 -3.625630 4.901900 0
M  V30 34 H 2.218257 -2.055167 5.011773 0
M  V30 35 H 2.311042 -3.041781 3.474877 0
M  V30 36 H 5.055967 -3.136498 5.200050 0
M  V30 37 H 4.901873 0.109991 4.158594 0
M  V30 38 H 3.132924 0.073645 4.405622 0
M  V30 39 H 5.143326 -0.235220 0.768582 0
M  V30 40 H 5.699523 0.370517 2.225804 0
M  V30 41 H 1.366694 -0.361685 3.486682 0
M  V30 42 H -0.803498 -0.403451 2.290915 0
M  V30 43 H -2.515730 1.158077 1.727033 0
M  V30 44 H -2.533694 3.473861 2.483350 0
M  V30 45 H -2.176217 5.247890 0.791919 0
M  V30 46 H -1.822973 4.701412 -1.518597 0
M  V30 47 H -1.792718 2.402641 -2.322381 0
M  V30 48 H -3.886601 0.884798 -2.878672 0
M  V30 49 H -4.884383 0.255501 -1.535375 0
M  V30 50 H -5.803420 -2.938967 -4.655693 0
M  V30 51 H -4.901214 -5.228085 -4.923388 0
M  V30 52 H -2.864177 -5.927668 -3.749824 0
M  V30 53 H -1.692058 -4.286015 -2.259539 0
M  V30 54 H 1.308753 -0.877918 -1.330353 0
M  V30 55 H 3.414735 -0.840874 -0.170531 0
M  V30 56 H 3.812138 -2.755936 2.016122 0
M  V30 57 H 5.494894 -2.094007 2.304185 0
M  V30 END ATOM
M  V30 BEGIN BOND
M  V30 1 1 1 2
M  V30 2 1 2 3
M  V30 3 1 2 4
M  V30 4 1 4 5
M  V30 5 1 5 6
M  V30 6 1 5 7
M  V30 7 2 7 8
M  V30 8 1 8 9
M  V30 9 2 9 10
M  V30 10 1 10 11
M  V30 11 1 11 12
M  V30 12 2 12 13
M  V30 13 1 13 14
M  V30 14 1 14 15
M  V30 15 1 15 16
M  V30 16 2 16 17
M  V30 17 1 17 18
M  V30 18 2 18 19
M  V30 19 1 19 20
M  V30 20 2 20 21
M  V30 21 1 14 22
M  V30 22 1 22 23
M  V30 23 1 23 24
M  V30 24 2 24 25
M  V30 25 1 25 26
M  V30 26 2 26 27
M  V30 27 1 27 28
M  V30 28 2 28 29
M  V30 29 1 10 30
M  V30 30 2 30 31
M  V30 31 1 5 32
M  V30 32 1 32 2
M  V30 33 1 31 7
M  V30 34 2 15 11
M  V30 35 1 21 16
M  V30 36 1 29 24
M  V30 37 1 29 13
M  V30 38 1 1 33
M  V30 39 1 1 34
M  V30 40 1 1 35
M  V30 41 1 3 36
M  V30 42 1 4 37
M  V30 43 1 4 38
M  V30 44 1 6 39
M  V30 45 1 6 40
M  V30 46 1 8 41
M  V30 47 1 9 42
M  V30 48 1 17 43
M  V30 49 1 18 44
M  V30 50 1 19 45
M  V30 51 1 20 46
M  V30 52 1 21 47
M  V30 53 1 22 48
M  V30 54 1 22 49
M  V30 55 1 25 50
M  V30 56 1 26 51
M  V30 57 1 27 52
M  V30 58 1 28 53
M  V30 59 1 30 54
M  V30 60 1 31 55
M  V30 61 1 32 56
M  V30 62 1 32 57
M  V30 END BOND
M  V30 END CTAB
M  END
>  <Dataset>  (815) 
ChEMBL_Kinases

>  <Ligand_Instance>  (815) 
nan

>  <PDB_ID>  (815) 
nan

>  <Standardized_SMILES>  (815) 
CC1(O)CC(N)(c2ccc(-c3nc4n(c3-c3ccccc3)COc3ccccc3-4)cc2)C1

>  <Name>  (815) 
nan

>  <Pocket>  (815) 
nan

>  <ATP_Site>  (815) 
nan

>  <Peripheral>  (815) 
nan

>  <Num_H_Atoms_ProtBoundConf>  (815) 
nan

>  <Num_Resolved_Atoms>  (815) 
nan

>  <Num_Not_Resolved_Atoms>  (815) 
nan

$$$$
CHEMBL3701727
     RDKit          3D

  0  0  0  0  0  0  0  0  0  0999 V3000
M  V30 BEGIN CTAB
M  V30 COUNTS 61 67 0 0 0
M  V30 BEGIN ATOM
M  V30 1 N 3.009315 -3.521853 3.277657 0
M  V30 2 C 2.014251 -3.903789 2.261817 0
M  V30 3 C 1.328822 -2.762745 1.657611 0
M  V30 4 C 0.888410 -1.768226 2.537821 0
M  V30 5 C 0.230491 -0.647646 2.075524 0
M  V30 6 C -0.017289 -0.466304 0.730837 0
M  V30 7 C -0.694101 0.646994 0.086372 0
M  V30 8 N -1.845641 0.496446 -0.637901 0
M  V30 9 C -2.240379 1.676010 -1.113694 0
M  V30 10 N -1.372227 2.624939 -0.721985 0
M  V30 11 C -0.410026 2.002325 0.021423 0
M  V30 12 C 0.797504 2.452163 0.728759 0
M  V30 13 C 2.091972 2.052055 0.446254 0
M  V30 14 C 3.129087 2.577650 1.218137 0
M  V30 15 C 2.881019 3.474691 2.239772 0
M  V30 16 C 1.595594 3.884930 2.535412 0
M  V30 17 C 0.586113 3.349449 1.756161 0
M  V30 18 C -1.306061 4.042385 -0.939984 0
M  V30 19 O -2.399883 4.439934 -1.728266 0
M  V30 20 C -3.372146 3.579700 -2.204279 0
M  V30 21 C -4.434495 4.035371 -2.982383 0
M  V30 22 C -5.384111 3.161884 -3.441338 0
M  V30 23 C -5.343733 1.801126 -3.163600 0
M  V30 24 C -4.284369 1.344905 -2.387355 0
M  V30 25 C -3.320726 2.230744 -1.921593 0
M  V30 26 C 0.412580 -1.446479 -0.173485 0
M  V30 27 C 1.071373 -2.562674 0.316723 0
M  V30 28 C 2.475281 -5.008623 1.354791 0
M  V30 29 C 1.221128 -5.789115 1.687746 0
M  V30 30 O 1.545872 -7.114174 2.003190 0
M  V30 31 C 0.095571 -5.678665 0.697502 0
M  V30 32 C 0.233607 -6.091961 -0.706578 0
M  V30 33 C -0.537941 -6.984298 0.212956 0
M  V30 34 C 1.057637 -4.884676 2.906344 0
M  V30 35 H 3.706854 -4.288521 3.436062 0
M  V30 36 H 2.560100 -3.326478 4.199024 0
M  V30 37 H 1.011262 -1.776422 3.601939 0
M  V30 38 H -0.146381 0.167740 2.659827 0
M  V30 39 H 2.194888 1.356213 -0.359624 0
M  V30 40 H 4.123809 2.241083 0.967038 0
M  V30 41 H 3.736361 3.840484 2.796254 0
M  V30 42 H 1.442680 4.583694 3.336440 0
M  V30 43 H -0.417897 3.702963 2.027278 0
M  V30 44 H -1.325275 4.622051 0.005583 0
M  V30 45 H -0.353906 4.247331 -1.512621 0
M  V30 46 H -4.502226 5.093479 -3.221803 0
M  V30 47 H -6.226557 3.467474 -4.048022 0
M  V30 48 H -6.071703 1.089847 -3.507843 0
M  V30 49 H -4.198990 0.291774 -2.136952 0
M  V30 50 H 0.261994 -1.389099 -1.245086 0
M  V30 51 H 1.408855 -3.322440 -0.355492 0
M  V30 52 H 3.403385 -5.480893 1.787233 0
M  V30 53 H 2.664948 -4.783663 0.308560 0
M  V30 54 H 1.970192 -7.517747 1.188438 0
M  V30 55 H -0.653936 -4.888355 0.932771 0
M  V30 56 H 1.180622 -6.463840 -1.136858 0
M  V30 57 H -0.358250 -5.496532 -1.460269 0
M  V30 58 H 0.007912 -7.918136 0.528936 0
M  V30 59 H -1.643018 -7.042275 0.155388 0
M  V30 60 H 1.462090 -5.401252 3.814151 0
M  V30 61 H 0.031870 -4.511571 3.044709 0
M  V30 END ATOM
M  V30 BEGIN BOND
M  V30 1 1 1 2
M  V30 2 1 2 3
M  V30 3 2 3 4
M  V30 4 1 4 5
M  V30 5 2 5 6
M  V30 6 1 6 7
M  V30 7 1 7 8
M  V30 8 2 8 9
M  V30 9 1 9 10
M  V30 10 1 10 11
M  V30 11 1 11 12
M  V30 12 2 12 13
M  V30 13 1 13 14
M  V30 14 2 14 15
M  V30 15 1 15 16
M  V30 16 2 16 17
M  V30 17 1 10 18
M  V30 18 1 18 19
M  V30 19 1 19 20
M  V30 20 2 20 21
M  V30 21 1 21 22
M  V30 22 2 22 23
M  V30 23 1 23 24
M  V30 24 2 24 25
M  V30 25 1 6 26
M  V30 26 2 26 27
M  V30 27 1 2 28
M  V30 28 1 28 29
M  V30 29 1 29 30
M  V30 30 1 29 31
M  V30 31 1 31 32
M  V30 32 1 32 33
M  V30 33 1 29 34
M  V30 34 1 34 2
M  V30 35 1 27 3
M  V30 36 1 33 31
M  V30 37 2 11 7
M  V30 38 1 17 12
M  V30 39 1 25 20
M  V30 40 1 25 9
M  V30 41 1 1 35
M  V30 42 1 1 36
M  V30 43 1 4 37
M  V30 44 1 5 38
M  V30 45 1 13 39
M  V30 46 1 14 40
M  V30 47 1 15 41
M  V30 48 1 16 42
M  V30 49 1 17 43
M  V30 50 1 18 44
M  V30 51 1 18 45
M  V30 52 1 21 46
M  V30 53 1 22 47
M  V30 54 1 23 48
M  V30 55 1 24 49
M  V30 56 1 26 50
M  V30 57 1 27 51
M  V30 58 1 28 52
M  V30 59 1 28 53
M  V30 60 1 30 54
M  V30 61 1 31 55
M  V30 62 1 32 56
M  V30 63 1 32 57
M  V30 64 1 33 58
M  V30 65 1 33 59
M  V30 66 1 34 60
M  V30 67 1 34 61
M  V30 END BOND
M  V30 END CTAB
M  END
>  <Dataset>  (816) 
ChEMBL_Kinases

>  <Ligand_Instance>  (816) 
nan

>  <PDB_ID>  (816) 
nan

>  <Standardized_SMILES>  (816) 
NC1(c2ccc(-c3nc4n(c3-c3ccccc3)COc3ccccc3-4)cc2)CC(O)(C2CC2)C1

>  <Name>  (816) 
nan

>  <Pocket>  (816) 
nan

>  <ATP_Site>  (816) 
nan

>  <Peripheral>  (816) 
nan

>  <Num_H_Atoms_ProtBoundConf>  (816) 
nan

>  <Num_Resolved_Atoms>  (816) 
nan

>  <Num_Not_Resolved_Atoms>  (816) 
nan

$$$$
CHEMBL3680498
     RDKit          3D

  0  0  0  0  0  0  0  0  0  0999 V3000
M  V30 BEGIN CTAB
M  V30 COUNTS 52 54 0 0 0
M  V30 BEGIN ATOM
M  V30 1 C 2.519162 -3.255968 0.557494 0
M  V30 2 O 2.326059 -1.881813 0.475961 0
M  V30 3 C 2.959174 -0.903205 1.211055 0
M  V30 4 C 4.240345 -0.738290 0.841107 0
M  V30 5 C 5.013877 0.273801 1.556411 0
M  V30 6 C 4.355095 0.904966 2.488175 0
M  V30 7 C 2.975128 0.779313 2.948227 0
M  V30 8 C 2.131564 -0.235266 2.240606 0
M  V30 9 C 0.854617 0.350252 1.680795 0
M  V30 10 C 1.030876 1.365955 0.648123 0
M  V30 11 N 1.689925 1.060207 -0.579957 0
M  V30 12 C 1.780840 2.358168 -1.304772 0
M  V30 13 C 0.798187 0.305265 -1.491655 0
M  V30 14 N -0.063393 -0.726567 1.442676 0
M  V30 15 C -1.405371 -0.588633 1.002700 0
M  V30 16 N -1.881589 0.632485 0.798484 0
M  V30 17 C -3.146230 0.809098 0.388639 0
M  V30 18 N -4.004950 -0.215069 0.159716 0
M  V30 19 C -3.571215 -1.479431 0.352508 0
M  V30 20 C -4.364648 -2.588177 0.147537 0
M  V30 21 C -5.737565 -2.424272 -0.298720 0
M  V30 22 N -6.693249 -1.470208 -0.643951 0
M  V30 23 O -6.529200 -3.384155 -0.512447 0
M  V30 24 C -3.942723 -3.883925 0.337044 0
M  V30 25 C -2.638469 -4.024042 0.757917 0
M  V30 26 C -1.832619 -2.923727 0.967359 0
M  V30 27 C -2.268346 -1.640461 0.773998 0
M  V30 28 H 1.867149 -3.839915 -0.124544 0
M  V30 29 H 2.276224 -3.584841 1.594753 0
M  V30 30 H 3.588703 -3.529799 0.392581 0
M  V30 31 H 4.702435 -1.300084 0.068550 0
M  V30 32 H 6.044271 0.487465 1.338076 0
M  V30 33 H 4.906157 1.673332 3.044607 0
M  V30 34 H 2.405052 1.727672 2.935435 0
M  V30 35 H 3.049097 0.522850 4.034889 0
M  V30 36 H 1.896187 -1.037876 2.973281 0
M  V30 37 H 0.391453 0.893152 2.554611 0
M  V30 38 H 1.601846 2.215509 1.135956 0
M  V30 39 H 0.060281 1.827438 0.396061 0
M  V30 40 H 2.262148 2.113032 -2.274760 0
M  V30 41 H 0.772761 2.735893 -1.531670 0
M  V30 42 H 2.424988 3.071371 -0.795742 0
M  V30 43 H -0.063432 0.982940 -1.664205 0
M  V30 44 H 0.533422 -0.677703 -1.133055 0
M  V30 45 H 1.282041 0.193284 -2.484249 0
M  V30 46 H 0.306539 -1.685808 1.613034 0
M  V30 47 H -3.525491 1.822286 0.224223 0
M  V30 48 H -6.867317 -1.030851 -1.575348 0
M  V30 49 H -7.420012 -1.005416 -0.054070 0
M  V30 50 H -4.599826 -4.725658 0.163584 0
M  V30 51 H -2.279801 -5.052504 0.916131 0
M  V30 52 H -0.845817 -3.168611 1.290529 0
M  V30 END ATOM
M  V30 BEGIN BOND
M  V30 1 1 1 2
M  V30 2 1 2 3
M  V30 3 2 3 4
M  V30 4 1 4 5
M  V30 5 2 5 6
M  V30 6 1 6 7
M  V30 7 1 7 8
M  V30 8 1 8 9
M  V30 9 1 9 10
M  V30 10 1 10 11
M  V30 11 1 11 12
M  V30 12 1 11 13
M  V30 13 1 9 14
M  V30 14 1 14 15
M  V30 15 2 15 16
M  V30 16 1 16 17
M  V30 17 2 17 18
M  V30 18 1 18 19
M  V30 19 2 19 20
M  V30 20 1 20 21
M  V30 21 1 21 22
M  V30 22 2 21 23
M  V30 23 1 20 24
M  V30 24 2 24 25
M  V30 25 1 25 26
M  V30 26 2 26 27
M  V30 27 1 8 3
M  V30 28 1 27 15
M  V30 29 1 27 19
M  V30 30 1 1 28
M  V30 31 1 1 29
M  V30 32 1 1 30
M  V30 33 1 4 31
M  V30 34 1 5 32
M  V30 35 1 6 33
M  V30 36 1 7 34
M  V30 37 1 7 35
M  V30 38 1 8 36
M  V30 39 1 9 37
M  V30 40 1 10 38
M  V30 41 1 10 39
M  V30 42 1 12 40
M  V30 43 1 12 41
M  V30 44 1 12 42
M  V30 45 1 13 43
M  V30 46 1 13 44
M  V30 47 1 13 45
M  V30 48 1 14 46
M  V30 49 1 17 47
M  V30 50 1 22 48
M  V30 51 1 22 49
M  V30 52 1 24 50
M  V30 53 1 25 51
M  V30 54 1 26 52
M  V30 END BOND
M  V30 END CTAB
M  END
>  <Dataset>  (817) 
ChEMBL_Kinases

>  <Ligand_Instance>  (817) 
nan

>  <PDB_ID>  (817) 
nan

>  <Standardized_SMILES>  (817) 
COC1=CC=CCC1C(CN(C)C)Nc1ncnc2c(C(N)=O)cccc12

>  <Name>  (817) 
nan

>  <Pocket>  (817) 
nan

>  <ATP_Site>  (817) 
nan

>  <Peripheral>  (817) 
nan

>  <Num_H_Atoms_ProtBoundConf>  (817) 
nan

>  <Num_Resolved_Atoms>  (817) 
nan

>  <Num_Not_Resolved_Atoms>  (817) 
nan

$$$$
CHEMBL4277917
     RDKit          3D

  0  0  0  0  0  0  0  0  0  0999 V3000
M  V30 BEGIN CTAB
M  V30 COUNTS 60 64 0 0 0
M  V30 BEGIN ATOM
M  V30 1 C 0.894101 -0.570595 6.404784 0
M  V30 2 C 1.714616 0.109996 5.330151 0
M  V30 3 O 1.791710 -0.646192 4.174644 0
M  V30 4 C 2.544356 -0.040585 3.166904 0
M  V30 5 O 3.834762 0.150300 3.656136 0
M  V30 6 N 1.899541 1.183240 2.761539 0
M  V30 7 C 2.509624 1.964376 1.740719 0
M  V30 8 C 3.690242 1.596105 1.129400 0
M  V30 9 C 4.294330 2.341821 0.137940 0
M  V30 10 C 3.711506 3.520083 -0.284249 0
M  V30 11 C 2.528858 3.936615 0.293538 0
M  V30 12 C 1.889828 5.165338 -0.123560 0
M  V30 13 O 2.388158 5.882433 -1.015513 0
M  V30 14 O 0.697634 5.559397 0.477492 0
M  V30 15 C 1.971890 3.149297 1.280150 0
M  V30 16 N 2.657133 -0.985924 2.071833 0
M  V30 17 C 1.308959 -1.281409 1.621128 0
M  V30 18 N 0.591642 -0.823311 0.832812 0
M  V30 19 C -0.652124 -1.215767 0.523081 0
M  V30 20 C -1.103687 -2.322197 1.269340 0
M  V30 21 S 0.273717 -2.715337 2.349857 0
M  V30 22 C -2.412760 -2.859392 1.048213 0
M  V30 23 C -3.124112 -2.359454 -0.150087 0
M  V30 24 N -2.990739 -3.128514 -1.342819 0
M  V30 25 C -1.875812 -3.560273 -2.109089 0
M  V30 26 O -0.662979 -3.359841 -1.865753 0
M  V30 27 C -2.229906 -4.319192 -3.298320 0
M  V30 28 C -1.534153 -4.925605 -4.316597 0
M  V30 29 C -2.173688 -5.591866 -5.337429 0
M  V30 30 C -3.541703 -5.654455 -5.342133 0
M  V30 31 C -4.263959 -5.055350 -4.333755 0
M  V30 32 C -3.604971 -4.394465 -3.322881 0
M  V30 33 C -4.061070 -3.676743 -2.143902 0
M  V30 34 O -5.311742 -3.577257 -1.897309 0
M  V30 35 C -2.888674 -0.916259 -0.370673 0
M  V30 36 C -1.458421 -0.541032 -0.515748 0
M  V30 37 H 1.451218 -1.320845 6.984674 0
M  V30 38 H -0.019551 -1.008755 5.922515 0
M  V30 39 H 0.514849 0.213521 7.085268 0
M  V30 40 H 2.758710 0.229293 5.736222 0
M  V30 41 H 1.333018 1.116110 5.122478 0
M  V30 42 H 3.960721 1.068065 4.026162 0
M  V30 43 H 1.005173 1.554308 3.159533 0
M  V30 44 H 4.194442 0.701421 1.404416 0
M  V30 45 H 5.225653 2.019805 -0.321180 0
M  V30 46 H 4.143837 4.141433 -1.057547 0
M  V30 47 H 0.029915 6.171987 -0.001506 0
M  V30 48 H 1.040502 3.488054 1.727327 0
M  V30 49 H 3.308216 -1.551021 1.463007 0
M  V30 50 H -3.048425 -2.591693 1.942806 0
M  V30 51 H -2.353303 -3.975369 1.102190 0
M  V30 52 H -4.274116 -2.395300 0.059620 0
M  V30 53 H -0.447302 -4.878547 -4.317077 0
M  V30 54 H -1.601719 -6.065394 -6.134544 0
M  V30 55 H -4.070162 -6.179279 -6.144655 0
M  V30 56 H -5.343538 -5.110465 -4.346738 0
M  V30 57 H -3.525713 -0.490054 -1.193134 0
M  V30 58 H -3.269922 -0.325135 0.533462 0
M  V30 59 H -1.338976 0.588875 -0.461741 0
M  V30 60 H -1.018962 -0.783967 -1.526533 0
M  V30 END ATOM
M  V30 BEGIN BOND
M  V30 1 1 1 2
M  V30 2 1 2 3
M  V30 3 1 3 4
M  V30 4 1 4 5
M  V30 5 1 4 6
M  V30 6 1 6 7
M  V30 7 2 7 8
M  V30 8 1 8 9
M  V30 9 2 9 10
M  V30 10 1 10 11
M  V30 11 1 11 12
M  V30 12 2 12 13
M  V30 13 1 12 14
M  V30 14 2 11 15
M  V30 15 1 4 16
M  V30 16 1 16 17
M  V30 17 2 17 18
M  V30 18 1 18 19
M  V30 19 2 19 20
M  V30 20 1 20 21
M  V30 21 1 20 22
M  V30 22 1 22 23
M  V30 23 1 23 24
M  V30 24 1 24 25
M  V30 25 2 25 26
M  V30 26 1 25 27
M  V30 27 2 27 28
M  V30 28 1 28 29
M  V30 29 2 29 30
M  V30 30 1 30 31
M  V30 31 2 31 32
M  V30 32 1 32 33
M  V30 33 2 33 34
M  V30 34 1 23 35
M  V30 35 1 35 36
M  V30 36 1 15 7
M  V30 37 1 21 17
M  V30 38 1 33 24
M  V30 39 1 36 19
M  V30 40 1 32 27
M  V30 41 1 1 37
M  V30 42 1 1 38
M  V30 43 1 1 39
M  V30 44 1 2 40
M  V30 45 1 2 41
M  V30 46 1 5 42
M  V30 47 1 6 43
M  V30 48 1 8 44
M  V30 49 1 9 45
M  V30 50 1 10 46
M  V30 51 1 14 47
M  V30 52 1 15 48
M  V30 53 1 16 49
M  V30 54 1 22 50
M  V30 55 1 22 51
M  V30 56 1 23 52
M  V30 57 1 28 53
M  V30 58 1 29 54
M  V30 59 1 30 55
M  V30 60 1 31 56
M  V30 61 1 35 57
M  V30 62 1 35 58
M  V30 63 1 36 59
M  V30 64 1 36 60
M  V30 END BOND
M  V30 END CTAB
M  END
>  <Dataset>  (818) 
ChEMBL_Kinases

>  <Ligand_Instance>  (818) 
nan

>  <PDB_ID>  (818) 
nan

>  <Standardized_SMILES>  (818) 
CCOC(O)(Nc1cccc(C(=O)O)c1)Nc1nc2c(s1)CC(N1C(=O)c3ccccc3C1=O)CC2

>  <Name>  (818) 
nan

>  <Pocket>  (818) 
nan

>  <ATP_Site>  (818) 
nan

>  <Peripheral>  (818) 
nan

>  <Num_H_Atoms_ProtBoundConf>  (818) 
nan

>  <Num_Resolved_Atoms>  (818) 
nan

>  <Num_Not_Resolved_Atoms>  (818) 
nan

$$$$
CHEMBL3701726
     RDKit          3D

  0  0  0  0  0  0  0  0  0  0999 V3000
M  V30 BEGIN CTAB
M  V30 COUNTS 61 67 0 0 0
M  V30 BEGIN ATOM
M  V30 1 N -0.031072 -2.673461 4.883410 0
M  V30 2 C -0.657924 -1.500215 4.267412 0
M  V30 3 C -0.478629 -1.474593 2.818413 0
M  V30 4 C 0.864594 -1.516318 2.481387 0
M  V30 5 C 1.354691 -1.504531 1.186405 0
M  V30 6 C 0.430032 -1.445817 0.136779 0
M  V30 7 C 0.697573 -1.415572 -1.299160 0
M  V30 8 N 0.294948 -2.481209 -2.017044 0
M  V30 9 C 0.610571 -2.314393 -3.315429 0
M  V30 10 N 1.219420 -1.117383 -3.386674 0
M  V30 11 C 1.295586 -0.533050 -2.186642 0
M  V30 12 C 1.822538 0.709463 -1.648119 0
M  V30 13 C 2.977790 0.739386 -0.886677 0
M  V30 14 C 3.449035 1.930032 -0.381073 0
M  V30 15 C 2.787680 3.126054 -0.618984 0
M  V30 16 C 1.628536 3.111883 -1.381419 0
M  V30 17 C 1.138054 1.905531 -1.900263 0
M  V30 18 C 1.733434 -0.515438 -4.599377 0
M  V30 19 O 1.563534 -1.321669 -5.735809 0
M  V30 20 C 0.949674 -2.553311 -5.742915 0
M  V30 21 C 0.776603 -3.325607 -6.872956 0
M  V30 22 F 1.238222 -2.844068 -8.039181 0
M  V30 23 C 0.154012 -4.564041 -6.857766 0
M  V30 24 C -0.314467 -5.039978 -5.637857 0
M  V30 25 C -0.162939 -4.302353 -4.482640 0
M  V30 26 C 0.467060 -3.072788 -4.557978 0
M  V30 27 C -0.915827 -1.403716 0.453946 0
M  V30 28 C -1.379369 -1.416858 1.754595 0
M  V30 29 C -2.093826 -1.428912 4.723665 0
M  V30 30 C -1.895157 0.069298 4.905031 0
M  V30 31 O -2.280782 0.761483 3.768887 0
M  V30 32 C -2.614708 0.563142 6.125216 0
M  V30 33 C -4.152517 0.339963 6.073539 0
M  V30 34 C -3.534959 1.710689 6.065890 0
M  V30 35 C -0.432274 -0.223802 5.029650 0
M  V30 36 H -0.728964 -3.447341 4.820515 0
M  V30 37 H 0.049164 -2.431046 5.897093 0
M  V30 38 H 1.701056 -1.564617 3.163708 0
M  V30 39 H 2.362787 -1.536117 0.866084 0
M  V30 40 H 3.530343 -0.189566 -0.685364 0
M  V30 41 H 4.374428 1.868355 0.213120 0
M  V30 42 H 3.229105 4.011357 -0.180337 0
M  V30 43 H 1.126738 4.062797 -1.550218 0
M  V30 44 H 0.215696 1.939265 -2.497195 0
M  V30 45 H 1.094218 0.397582 -4.785223 0
M  V30 46 H 2.773468 -0.189249 -4.513192 0
M  V30 47 H 0.008702 -5.186112 -7.732099 0
M  V30 48 H -0.823640 -6.006106 -5.506589 0
M  V30 49 H -0.522098 -4.665949 -3.543412 0
M  V30 50 H -1.770094 -1.354410 -0.229116 0
M  V30 51 H -2.401883 -1.387639 2.080780 0
M  V30 52 H -2.875330 -1.684113 4.001173 0
M  V30 53 H -2.299573 -1.967917 5.676259 0
M  V30 54 H -2.028599 1.710744 3.828767 0
M  V30 55 H -2.184057 0.273249 7.119437 0
M  V30 56 H -4.655800 -0.019387 6.976055 0
M  V30 57 H -4.566864 0.035189 5.067758 0
M  V30 58 H -3.687304 2.342327 6.980982 0
M  V30 59 H -3.605763 2.323201 5.148500 0
M  V30 60 H -0.135429 -0.465180 6.070866 0
M  V30 61 H 0.282739 0.492228 4.620815 0
M  V30 END ATOM
M  V30 BEGIN BOND
M  V30 1 1 1 2
M  V30 2 1 2 3
M  V30 3 2 3 4
M  V30 4 1 4 5
M  V30 5 2 5 6
M  V30 6 1 6 7
M  V30 7 1 7 8
M  V30 8 2 8 9
M  V30 9 1 9 10
M  V30 10 1 10 11
M  V30 11 1 11 12
M  V30 12 2 12 13
M  V30 13 1 13 14
M  V30 14 2 14 15
M  V30 15 1 15 16
M  V30 16 2 16 17
M  V30 17 1 10 18
M  V30 18 1 18 19
M  V30 19 1 19 20
M  V30 20 2 20 21
M  V30 21 1 21 22
M  V30 22 1 21 23
M  V30 23 2 23 24
M  V30 24 1 24 25
M  V30 25 2 25 26
M  V30 26 1 6 27
M  V30 27 2 27 28
M  V30 28 1 2 29
M  V30 29 1 29 30
M  V30 30 1 30 31
M  V30 31 1 30 32
M  V30 32 1 32 33
M  V30 33 1 33 34
M  V30 34 1 30 35
M  V30 35 1 35 2
M  V30 36 1 28 3
M  V30 37 1 34 32
M  V30 38 2 11 7
M  V30 39 1 17 12
M  V30 40 1 26 20
M  V30 41 1 26 9
M  V30 42 1 1 36
M  V30 43 1 1 37
M  V30 44 1 4 38
M  V30 45 1 5 39
M  V30 46 1 13 40
M  V30 47 1 14 41
M  V30 48 1 15 42
M  V30 49 1 16 43
M  V30 50 1 17 44
M  V30 51 1 18 45
M  V30 52 1 18 46
M  V30 53 1 23 47
M  V30 54 1 24 48
M  V30 55 1 25 49
M  V30 56 1 27 50
M  V30 57 1 28 51
M  V30 58 1 29 52
M  V30 59 1 29 53
M  V30 60 1 31 54
M  V30 61 1 32 55
M  V30 62 1 33 56
M  V30 63 1 33 57
M  V30 64 1 34 58
M  V30 65 1 34 59
M  V30 66 1 35 60
M  V30 67 1 35 61
M  V30 END BOND
M  V30 END CTAB
M  END
>  <Dataset>  (819) 
ChEMBL_Kinases

>  <Ligand_Instance>  (819) 
nan

>  <PDB_ID>  (819) 
nan

>  <Standardized_SMILES>  (819) 
NC1(c2ccc(-c3nc4n(c3-c3ccccc3)COc3c(F)cccc3-4)cc2)CC(O)(C2CC2)C1

>  <Name>  (819) 
nan

>  <Pocket>  (819) 
nan

>  <ATP_Site>  (819) 
nan

>  <Peripheral>  (819) 
nan

>  <Num_H_Atoms_ProtBoundConf>  (819) 
nan

>  <Num_Resolved_Atoms>  (819) 
nan

>  <Num_Not_Resolved_Atoms>  (819) 
nan

$$$$
CHEMBL3680502
     RDKit          3D

  0  0  0  0  0  0  0  0  0  0999 V3000
M  V30 BEGIN CTAB
M  V30 COUNTS 76 79 0 0 0
M  V30 BEGIN ATOM
M  V30 1 C 3.638262 -4.732243 9.631632 0
M  V30 2 O 4.554588 -3.995190 8.888929 0
M  V30 3 C 4.322710 -3.360032 7.679612 0
M  V30 4 C 3.146168 -3.333291 6.977761 0
M  V30 5 C 3.053495 -2.658373 5.778777 0
M  V30 6 C 4.108146 -1.977934 5.210296 0
M  V30 7 C 4.053159 -1.254424 3.946448 0
M  V30 8 O 5.112562 -0.677202 3.567237 0
M  V30 9 N 2.938576 -1.141380 3.117621 0
M  V30 10 C 2.781236 -0.468754 1.881280 0
M  V30 11 C 3.721245 0.257762 1.193858 0
M  V30 12 C 3.533477 0.896924 -0.011287 0
M  V30 13 C 2.257032 0.786977 -0.578061 0
M  V30 14 C 1.276264 0.051279 0.101161 0
M  V30 15 C 0.024514 0.092260 -0.725300 0
M  V30 16 C -0.841730 -1.014554 -0.170984 0
M  V30 17 N -2.111952 -1.197035 -0.837402 0
M  V30 18 C -2.190741 -2.185205 -1.927383 0
M  V30 19 C -3.343557 -0.538932 -0.534388 0
M  V30 20 O -4.473556 -0.640968 -1.058763 0
M  V30 21 O -3.504582 0.398948 0.473354 0
M  V30 22 C -4.710594 1.039934 0.765636 0
M  V30 23 C -5.828539 0.119205 1.152065 0
M  V30 24 C -5.155088 1.937499 -0.377365 0
M  V30 25 C -4.436529 1.966209 1.953364 0
M  V30 26 N 0.320628 -0.214187 -2.109992 0
M  V30 27 C -0.545973 0.118457 -3.188691 0
M  V30 28 N -1.673687 0.784432 -3.020306 0
M  V30 29 C -2.489982 1.135250 -4.025185 0
M  V30 30 N -2.195309 0.817581 -5.303997 0
M  V30 31 C -1.052669 0.131667 -5.571041 0
M  V30 32 C -0.723895 -0.208179 -6.864588 0
M  V30 33 C -1.586928 0.156766 -7.980908 0
M  V30 34 N -2.805859 0.872825 -7.856980 0
M  V30 35 O -1.329728 -0.130564 -9.164362 0
M  V30 36 C 0.426208 -0.902149 -7.157179 0
M  V30 37 C 1.248370 -1.250962 -6.106770 0
M  V30 38 C 0.885032 -0.892759 -4.824830 0
M  V30 39 C -0.256233 -0.199875 -4.497974 0
M  V30 40 C 1.548252 -0.545209 1.282945 0
M  V30 41 C 5.270561 -2.029819 5.947182 0
M  V30 42 C 5.383689 -2.693072 7.137889 0
M  V30 43 F 6.603980 -2.664900 7.771087 0
M  V30 44 H 3.456272 -4.324684 10.655723 0
M  V30 45 H 4.070448 -5.761170 9.795962 0
M  V30 46 H 2.677984 -4.896888 9.109708 0
M  V30 47 H 2.305733 -3.860165 7.404337 0
M  V30 48 H 2.099887 -2.673780 5.272785 0
M  V30 49 H 2.128093 -1.656331 3.533851 0
M  V30 50 H 4.706689 0.350940 1.617431 0
M  V30 51 H 4.342868 1.449390 -0.477969 0
M  V30 52 H 2.176046 1.320613 -1.539029 0
M  V30 53 H -0.474202 1.084923 -0.625281 0
M  V30 54 H -0.255813 -1.958334 -0.233048 0
M  V30 55 H -1.003712 -0.850402 0.930556 0
M  V30 56 H -2.723262 -1.799897 -2.804775 0
M  V30 57 H -2.736196 -3.089895 -1.593017 0
M  V30 58 H -1.172045 -2.529994 -2.198153 0
M  V30 59 H -5.471279 -0.865306 1.482891 0
M  V30 60 H -6.490413 0.012301 0.246848 0
M  V30 61 H -6.463655 0.633224 1.917052 0
M  V30 62 H -4.253274 2.351547 -0.891456 0
M  V30 63 H -5.714077 2.808267 0.012406 0
M  V30 64 H -5.797253 1.359627 -1.044058 0
M  V30 65 H -5.369824 2.257079 2.481291 0
M  V30 66 H -3.723127 1.425333 2.626433 0
M  V30 67 H -3.915252 2.860615 1.604989 0
M  V30 68 H 1.230365 -0.702370 -2.227488 0
M  V30 69 H -3.412803 1.684772 -3.845997 0
M  V30 70 H -3.010943 1.756566 -7.341996 0
M  V30 71 H -3.235916 1.737317 -7.416862 0
M  V30 72 H 0.660067 -1.156256 -8.181075 0
M  V30 73 H 2.154935 -1.798591 -6.343041 0
M  V30 74 H 1.593023 -1.212508 -4.085149 0
M  V30 75 H 0.757541 -1.082829 1.729142 0
M  V30 76 H 6.144674 -1.509722 5.550041 0
M  V30 END ATOM
M  V30 BEGIN BOND
M  V30 1 1 1 2
M  V30 2 1 2 3
M  V30 3 2 3 4
M  V30 4 1 4 5
M  V30 5 2 5 6
M  V30 6 1 6 7
M  V30 7 2 7 8
M  V30 8 1 7 9
M  V30 9 1 9 10
M  V30 10 2 10 11
M  V30 11 1 11 12
M  V30 12 2 12 13
M  V30 13 1 13 14
M  V30 14 1 14 15
M  V30 15 1 15 16
M  V30 16 1 16 17
M  V30 17 1 17 18
M  V30 18 1 17 19
M  V30 19 2 19 20
M  V30 20 1 19 21
M  V30 21 1 21 22
M  V30 22 1 22 23
M  V30 23 1 22 24
M  V30 24 1 22 25
M  V30 25 1 15 26
M  V30 26 1 26 27
M  V30 27 2 27 28
M  V30 28 1 28 29
M  V30 29 2 29 30
M  V30 30 1 30 31
M  V30 31 2 31 32
M  V30 32 1 32 33
M  V30 33 1 33 34
M  V30 34 2 33 35
M  V30 35 1 32 36
M  V30 36 2 36 37
M  V30 37 1 37 38
M  V30 38 2 38 39
M  V30 39 2 14 40
M  V30 40 1 6 41
M  V30 41 2 41 42
M  V30 42 1 42 43
M  V30 43 1 42 3
M  V30 44 1 40 10
M  V30 45 1 39 27
M  V30 46 1 39 31
M  V30 47 1 1 44
M  V30 48 1 1 45
M  V30 49 1 1 46
M  V30 50 1 4 47
M  V30 51 1 5 48
M  V30 52 1 9 49
M  V30 53 1 11 50
M  V30 54 1 12 51
M  V30 55 1 13 52
M  V30 56 1 15 53
M  V30 57 1 16 54
M  V30 58 1 16 55
M  V30 59 1 18 56
M  V30 60 1 18 57
M  V30 61 1 18 58
M  V30 62 1 23 59
M  V30 63 1 23 60
M  V30 64 1 23 61
M  V30 65 1 24 62
M  V30 66 1 24 63
M  V30 67 1 24 64
M  V30 68 1 25 65
M  V30 69 1 25 66
M  V30 70 1 25 67
M  V30 71 1 26 68
M  V30 72 1 29 69
M  V30 73 1 34 70
M  V30 74 1 34 71
M  V30 75 1 36 72
M  V30 76 1 37 73
M  V30 77 1 38 74
M  V30 78 1 40 75
M  V30 79 1 41 76
M  V30 END BOND
M  V30 END CTAB
M  END
>  <Dataset>  (820) 
ChEMBL_Kinases

>  <Ligand_Instance>  (820) 
nan

>  <PDB_ID>  (820) 
nan

>  <Standardized_SMILES>  (820) 
COc1ccc(C(=O)Nc2cccc(C(CN(C)C(=O)OC(C)(C)C)Nc3ncnc4c(C(N)=O)cccc34)c2)cc1F

>  <Name>  (820) 
nan

>  <Pocket>  (820) 
nan

>  <ATP_Site>  (820) 
nan

>  <Peripheral>  (820) 
nan

>  <Num_H_Atoms_ProtBoundConf>  (820) 
nan

>  <Num_Resolved_Atoms>  (820) 
nan

>  <Num_Not_Resolved_Atoms>  (820) 
nan

$$$$
CHEMBL2147768
     RDKit          3D

  0  0  0  0  0  0  0  0  0  0999 V3000
M  V30 BEGIN CTAB
M  V30 COUNTS 51 55 0 0 0
M  V30 BEGIN ATOM
M  V30 1 C 1.185959 2.238378 5.411260 0
M  V30 2 O 0.551625 1.890854 4.187869 0
M  V30 3 C 0.557179 0.562603 3.784239 0
M  V30 4 C 1.164196 -0.421531 4.544407 0
M  V30 5 C 1.182601 -1.752282 4.162694 0
M  V30 6 C 0.555025 -2.042846 2.969371 0
M  V30 7 C -0.073607 -1.128767 2.149972 0
M  V30 8 C -0.053230 0.170385 2.589584 0
M  V30 9 C -0.687979 1.253159 1.806838 0
M  V30 10 N 0.292928 2.048176 1.122609 0
M  V30 11 C 1.110583 1.308798 0.184479 0
M  V30 12 C 2.196631 2.250006 -0.293810 0
M  V30 13 N 2.144364 3.524491 0.379749 0
M  V30 14 C 0.854757 4.169326 0.242926 0
M  V30 15 C -0.279492 3.168532 0.404856 0
M  V30 16 O -0.596201 -1.772811 1.032212 0
M  V30 17 C -0.300595 -3.146465 1.123823 0
M  V30 18 C -0.611419 -4.112026 0.278382 0
M  V30 19 C -1.356636 -3.832283 -0.942908 0
M  V30 20 C -2.385125 -2.896559 -1.036905 0
M  V30 21 N -2.848831 -2.900051 -2.306050 0
M  V30 22 C -2.148908 -3.806465 -3.018710 0
M  V30 23 C -2.163300 -4.250131 -4.332316 0
M  V30 24 N -1.309879 -5.207001 -4.771684 0
M  V30 25 C -0.402934 -5.776231 -3.951430 0
M  V30 26 C -0.327555 -5.387762 -2.629235 0
M  V30 27 C -1.202014 -4.410265 -2.189008 0
M  V30 28 C 0.439706 -3.363469 2.356298 0
M  V30 29 O 0.880419 -4.471634 2.785976 0
M  V30 30 H 2.237846 1.854588 5.470797 0
M  V30 31 H 1.176275 3.336829 5.560329 0
M  V30 32 H 0.612181 1.801664 6.252503 0
M  V30 33 H 1.638394 -0.141603 5.466163 0
M  V30 34 H 1.660890 -2.494530 4.771594 0
M  V30 35 H -1.227800 1.909344 2.518201 0
M  V30 36 H -1.451218 0.813488 1.106423 0
M  V30 37 H 1.528621 0.374046 0.606302 0
M  V30 38 H 0.528611 1.014721 -0.727457 0
M  V30 39 H 3.168563 1.796245 -0.013976 0
M  V30 40 H 2.210418 2.381784 -1.391784 0
M  V30 41 H 2.921764 4.147321 0.155867 0
M  V30 42 H 0.763335 4.872238 1.105954 0
M  V30 43 H 0.779993 4.780693 -0.662541 0
M  V30 44 H -1.130563 3.547545 0.971682 0
M  V30 45 H -0.564297 2.876870 -0.648296 0
M  V30 46 H -0.350795 -5.151582 0.410624 0
M  V30 47 H -2.796599 -2.242762 -0.267226 0
M  V30 48 H -3.620933 -2.336854 -2.779990 0
M  V30 49 H -2.883172 -3.816090 -5.034972 0
M  V30 50 H 0.290394 -6.542028 -4.275490 0
M  V30 51 H 0.387527 -5.814765 -1.915536 0
M  V30 END ATOM
M  V30 BEGIN BOND
M  V30 1 1 1 2
M  V30 2 1 2 3
M  V30 3 2 3 4
M  V30 4 1 4 5
M  V30 5 2 5 6
M  V30 6 1 6 7
M  V30 7 2 7 8
M  V30 8 1 8 9
M  V30 9 1 9 10
M  V30 10 1 10 11
M  V30 11 1 11 12
M  V30 12 1 12 13
M  V30 13 1 13 14
M  V30 14 1 14 15
M  V30 15 1 7 16
M  V30 16 1 16 17
M  V30 17 2 17 18
M  V30 18 1 18 19
M  V30 19 2 19 20
M  V30 20 1 20 21
M  V30 21 1 21 22
M  V30 22 2 22 23
M  V30 23 1 23 24
M  V30 24 2 24 25
M  V30 25 1 25 26
M  V30 26 2 26 27
M  V30 27 1 17 28
M  V30 28 2 28 29
M  V30 29 1 8 3
M  V30 30 1 15 10
M  V30 31 1 27 19
M  V30 32 1 28 6
M  V30 33 1 27 22
M  V30 34 1 1 30
M  V30 35 1 1 31
M  V30 36 1 1 32
M  V30 37 1 4 33
M  V30 38 1 5 34
M  V30 39 1 9 35
M  V30 40 1 9 36
M  V30 41 1 11 37
M  V30 42 1 11 38
M  V30 43 1 12 39
M  V30 44 1 12 40
M  V30 45 1 13 41
M  V30 46 1 14 42
M  V30 47 1 14 43
M  V30 48 1 15 44
M  V30 49 1 15 45
M  V30 50 1 18 46
M  V30 51 1 20 47
M  V30 52 1 21 48
M  V30 53 1 23 49
M  V30 54 1 25 50
M  V30 55 1 26 51
M  V30 END BOND
M  V30 END CTAB
M  END
>  <Dataset>  (821) 
ChEMBL_Kinases

>  <Ligand_Instance>  (821) 
nan

>  <PDB_ID>  (821) 
nan

>  <Standardized_SMILES>  (821) 
COc1ccc2c(c1CN1CCNCC1)O/C(=C\c1c[nH]c3cnccc13)C2=O

>  <Name>  (821) 
nan

>  <Pocket>  (821) 
nan

>  <ATP_Site>  (821) 
nan

>  <Peripheral>  (821) 
nan

>  <Num_H_Atoms_ProtBoundConf>  (821) 
nan

>  <Num_Resolved_Atoms>  (821) 
nan

>  <Num_Not_Resolved_Atoms>  (821) 
nan

$$$$
CHEMBL3701735
     RDKit          3D

  0  0  0  0  0  0  0  0  0  0999 V3000
M  V30 BEGIN CTAB
M  V30 COUNTS 61 66 0 0 0
M  V30 BEGIN ATOM
M  V30 1 C 4.694429 2.451903 4.080638 0
M  V30 2 O 5.835939 2.229244 3.282518 0
M  V30 3 C 5.801825 1.495837 2.104226 0
M  V30 4 C 6.892486 1.248793 1.285898 0
M  V30 5 C 6.799276 0.514002 0.127917 0
M  V30 6 C 5.592118 -0.018507 -0.275518 0
M  V30 7 C 4.514078 0.233663 0.546318 0
M  V30 8 C 4.583230 0.970780 1.717273 0
M  V30 9 C 3.195141 -0.289110 0.201294 0
M  V30 10 N 1.965453 -0.242406 0.747616 0
M  V30 11 C 1.092599 -0.926524 -0.029937 0
M  V30 12 C -0.283330 -0.948788 0.460209 0
M  V30 13 C -0.921188 0.290104 0.580964 0
M  V30 14 C -2.220565 0.389215 1.033677 0
M  V30 15 C -2.923654 -0.757637 1.380985 0
M  V30 16 C -4.288543 -0.539049 1.846852 0
M  V30 17 N -4.388735 0.667234 2.657494 0
M  V30 18 C -5.303381 -0.564959 0.708369 0
M  V30 19 C -6.285241 -1.106045 1.755653 0
M  V30 20 C -7.248439 -2.134831 1.265945 0
M  V30 21 O -6.848974 -0.005261 2.416110 0
M  V30 22 C -5.044396 -1.673046 2.457198 0
M  V30 23 C -2.304945 -1.961661 1.264039 0
M  V30 24 C -1.001199 -2.094479 0.812652 0
M  V30 25 C 1.812961 -1.415248 -1.099561 0
M  V30 26 C 1.083897 -2.196198 -2.089255 0
M  V30 27 C 1.509288 -3.515321 -2.250983 0
M  V30 28 C 0.877312 -4.352090 -3.175230 0
M  V30 29 C -0.165795 -3.892761 -3.934349 0
M  V30 30 C -0.577335 -2.585840 -3.765089 0
M  V30 31 C 0.032635 -1.730062 -2.852972 0
M  V30 32 N 3.085277 -1.010977 -0.929493 0
M  V30 33 C 4.176558 -1.312134 -1.836349 0
M  V30 34 O 5.402578 -0.770331 -1.424329 0
M  V30 35 H 5.054927 3.052122 4.956142 0
M  V30 36 H 4.263933 1.532749 4.500626 0
M  V30 37 H 3.935124 3.100237 3.579082 0
M  V30 38 H 7.820736 1.679777 1.631069 0
M  V30 39 H 7.667076 0.335392 -0.494025 0
M  V30 40 H 3.698167 1.138358 2.327853 0
M  V30 41 H -0.376265 1.207554 0.309364 0
M  V30 42 H -2.653470 1.399181 1.101209 0
M  V30 43 H -4.876836 0.536000 3.553625 0
M  V30 44 H -4.727583 1.469350 2.095397 0
M  V30 45 H -5.021106 -1.359160 -0.032750 0
M  V30 46 H -5.550411 0.406425 0.280133 0
M  V30 47 H -8.247740 -1.634676 1.167552 0
M  V30 48 H -7.334927 -3.023468 1.943111 0
M  V30 49 H -6.942772 -2.473279 0.270962 0
M  V30 50 H -7.035498 0.744983 1.775009 0
M  V30 51 H -4.859968 -2.682837 2.099798 0
M  V30 52 H -5.154426 -1.669856 3.568430 0
M  V30 53 H -2.843998 -2.852780 1.531343 0
M  V30 54 H -0.478205 -3.029805 0.706743 0
M  V30 55 H 2.313334 -3.932656 -1.692267 0
M  V30 56 H 1.227664 -5.377149 -3.282860 0
M  V30 57 H -0.670679 -4.539791 -4.663794 0
M  V30 58 H -1.395429 -2.171525 -4.337907 0
M  V30 59 H -0.274966 -0.702062 -2.705135 0
M  V30 60 H 4.345498 -2.399898 -1.977815 0
M  V30 61 H 3.948647 -0.861309 -2.846242 0
M  V30 END ATOM
M  V30 BEGIN BOND
M  V30 1 1 1 2
M  V30 2 1 2 3
M  V30 3 2 3 4
M  V30 4 1 4 5
M  V30 5 2 5 6
M  V30 6 1 6 7
M  V30 7 2 7 8
M  V30 8 1 7 9
M  V30 9 2 9 10
M  V30 10 1 10 11
M  V30 11 1 11 12
M  V30 12 2 12 13
M  V30 13 1 13 14
M  V30 14 2 14 15
M  V30 15 1 15 16
M  V30 16 1 16 17
M  V30 17 1 16 18
M  V30 18 1 18 19
M  V30 19 1 19 20
M  V30 20 1 19 21
M  V30 21 1 19 22
M  V30 22 1 15 23
M  V30 23 2 23 24
M  V30 24 2 11 25
M  V30 25 1 25 26
M  V30 26 2 26 27
M  V30 27 1 27 28
M  V30 28 2 28 29
M  V30 29 1 29 30
M  V30 30 2 30 31
M  V30 31 1 25 32
M  V30 32 1 32 33
M  V30 33 1 33 34
M  V30 34 1 8 3
M  V30 35 1 32 9
M  V30 36 1 34 6
M  V30 37 1 24 12
M  V30 38 1 31 26
M  V30 39 1 22 16
M  V30 40 1 1 35
M  V30 41 1 1 36
M  V30 42 1 1 37
M  V30 43 1 4 38
M  V30 44 1 5 39
M  V30 45 1 8 40
M  V30 46 1 13 41
M  V30 47 1 14 42
M  V30 48 1 17 43
M  V30 49 1 17 44
M  V30 50 1 18 45
M  V30 51 1 18 46
M  V30 52 1 20 47
M  V30 53 1 20 48
M  V30 54 1 20 49
M  V30 55 1 21 50
M  V30 56 1 22 51
M  V30 57 1 22 52
M  V30 58 1 23 53
M  V30 59 1 24 54
M  V30 60 1 27 55
M  V30 61 1 28 56
M  V30 62 1 29 57
M  V30 63 1 30 58
M  V30 64 1 31 59
M  V30 65 1 33 60
M  V30 66 1 33 61
M  V30 END BOND
M  V30 END CTAB
M  END
>  <Dataset>  (822) 
ChEMBL_Kinases

>  <Ligand_Instance>  (822) 
nan

>  <PDB_ID>  (822) 
nan

>  <Standardized_SMILES>  (822) 
COc1ccc2c(c1)-c1nc(-c3ccc(C4(N)CC(C)(O)C4)cc3)c(-c3ccccc3)n1CO2

>  <Name>  (822) 
nan

>  <Pocket>  (822) 
nan

>  <ATP_Site>  (822) 
nan

>  <Peripheral>  (822) 
nan

>  <Num_H_Atoms_ProtBoundConf>  (822) 
nan

>  <Num_Resolved_Atoms>  (822) 
nan

>  <Num_Not_Resolved_Atoms>  (822) 
nan

$$$$
CHEMBL3680513
     RDKit          3D

  0  0  0  0  0  0  0  0  0  0999 V3000
M  V30 BEGIN CTAB
M  V30 COUNTS 47 50 0 0 0
M  V30 BEGIN ATOM
M  V30 1 N 2.752533 -4.280401 5.679635 0
M  V30 2 C 2.217601 -3.756563 4.479527 0
M  V30 3 O 1.112898 -4.317281 4.261432 0
M  V30 4 C 2.925929 -2.740936 3.716496 0
M  V30 5 C 4.143623 -2.258236 4.143242 0
M  V30 6 C 4.744679 -1.297544 3.359638 0
M  V30 7 C 4.125810 -0.868584 2.214772 0
M  V30 8 C 2.922651 -1.319212 1.756905 0
M  V30 9 C 2.345017 -0.852683 0.597398 0
M  V30 10 N 2.960584 0.123637 -0.201801 0
M  V30 11 C 2.457527 0.690108 -1.428673 0
M  V30 12 C 1.177157 1.393008 -1.176353 0
M  V30 13 C 1.275986 2.713643 -0.743261 0
M  V30 14 C 0.206821 3.537528 -0.466600 0
M  V30 15 C -1.068050 3.037479 -0.623499 0
M  V30 16 C -1.192735 1.731915 -1.051733 0
M  V30 17 N -2.493483 1.155284 -1.233570 0
M  V30 18 C -3.027344 0.512517 -0.083487 0
M  V30 19 O -2.254153 0.562909 0.906306 0
M  V30 20 C -4.333541 -0.138083 -0.050271 0
M  V30 21 C -4.790185 -0.751066 1.123330 0
M  V30 22 S -6.484654 -1.396141 0.567002 0
M  V30 23 C -6.214849 -0.705857 -1.115293 0
M  V30 24 N -7.171588 -0.802775 -2.235007 0
M  V30 25 N -5.161558 -0.204148 -1.073051 0
M  V30 26 C -0.093815 0.945648 -1.316433 0
M  V30 27 N 1.165499 -1.406336 0.302642 0
M  V30 28 C 0.560245 -2.337294 1.041577 0
M  V30 29 N 1.136540 -2.786964 2.176675 0
M  V30 30 C 2.345036 -2.277709 2.558495 0
M  V30 31 H 2.593799 -4.421733 6.700006 0
M  V30 32 H 3.547058 -4.767984 6.114816 0
M  V30 33 H 4.535262 -2.665614 5.054815 0
M  V30 34 H 5.700172 -0.937088 3.719700 0
M  V30 35 H 4.691019 -0.118989 1.689720 0
M  V30 36 H 3.867793 0.521903 0.054463 0
M  V30 37 H 3.137937 1.416359 -1.878397 0
M  V30 38 H 2.328712 -0.122424 -2.191197 0
M  V30 39 H 2.249260 3.172244 -0.598238 0
M  V30 40 H 0.340070 4.551416 -0.134429 0
M  V30 41 H -1.929848 3.643113 -0.419523 0
M  V30 42 H -3.073593 1.166258 -2.123324 0
M  V30 43 H -4.214480 -0.799759 2.119608 0
M  V30 44 H -7.493452 0.095611 -2.681210 0
M  V30 45 H -7.365175 -1.832813 -2.386133 0
M  V30 46 H -0.212855 -0.068682 -1.659179 0
M  V30 47 H -0.401774 -2.681950 0.654058 0
M  V30 END ATOM
M  V30 BEGIN BOND
M  V30 1 1 1 2
M  V30 2 2 2 3
M  V30 3 1 2 4
M  V30 4 2 4 5
M  V30 5 1 5 6
M  V30 6 2 6 7
M  V30 7 1 7 8
M  V30 8 2 8 9
M  V30 9 1 9 10
M  V30 10 1 10 11
M  V30 11 1 11 12
M  V30 12 2 12 13
M  V30 13 1 13 14
M  V30 14 2 14 15
M  V30 15 1 15 16
M  V30 16 1 16 17
M  V30 17 1 17 18
M  V30 18 2 18 19
M  V30 19 1 18 20
M  V30 20 2 20 21
M  V30 21 1 21 22
M  V30 22 1 22 23
M  V30 23 1 23 24
M  V30 24 2 23 25
M  V30 25 2 16 26
M  V30 26 1 9 27
M  V30 27 2 27 28
M  V30 28 1 28 29
M  V30 29 2 29 30
M  V30 30 1 30 4
M  V30 31 1 30 8
M  V30 32 1 26 12
M  V30 33 1 25 20
M  V30 34 1 1 31
M  V30 35 1 1 32
M  V30 36 1 5 33
M  V30 37 1 6 34
M  V30 38 1 7 35
M  V30 39 1 10 36
M  V30 40 1 11 37
M  V30 41 1 11 38
M  V30 42 1 13 39
M  V30 43 1 14 40
M  V30 44 1 15 41
M  V30 45 1 17 42
M  V30 46 1 21 43
M  V30 47 1 24 44
M  V30 48 1 24 45
M  V30 49 1 26 46
M  V30 50 1 28 47
M  V30 END BOND
M  V30 END CTAB
M  END
>  <Dataset>  (823) 
ChEMBL_Kinases

>  <Ligand_Instance>  (823) 
nan

>  <PDB_ID>  (823) 
nan

>  <Standardized_SMILES>  (823) 
NC(=O)c1cccc2c(NCc3cccc(NC(=O)c4csc(N)n4)c3)ncnc12

>  <Name>  (823) 
nan

>  <Pocket>  (823) 
nan

>  <ATP_Site>  (823) 
nan

>  <Peripheral>  (823) 
nan

>  <Num_H_Atoms_ProtBoundConf>  (823) 
nan

>  <Num_Resolved_Atoms>  (823) 
nan

>  <Num_Not_Resolved_Atoms>  (823) 
nan

$$$$
CHEMBL4279616
     RDKit          3D

  0  0  0  0  0  0  0  0  0  0999 V3000
M  V30 BEGIN CTAB
M  V30 COUNTS 33 36 0 0 0
M  V30 BEGIN ATOM
M  V30 1 C 0.189299 -4.901407 5.309189 0
M  V30 2 O 0.370952 -3.909353 4.313692 0
M  V30 3 C 0.306456 -4.187948 2.963592 0
M  V30 4 N 0.058016 -5.359287 2.545655 0
M  V30 5 C 0.514836 -3.176601 1.907552 0
M  V30 6 N 1.165073 -3.167234 0.949128 0
M  V30 7 C 1.311961 -2.228912 0.037153 0
M  V30 8 C 2.075563 -2.188267 -1.110410 0
M  V30 9 C 2.064343 -1.079923 -1.917416 0
M  V30 10 C 1.325093 0.059629 -1.682275 0
M  V30 11 N 1.275354 1.167861 -2.432739 0
M  V30 12 C 0.495713 2.217149 -2.071339 0
M  V30 13 N -0.273708 2.212493 -0.942017 0
M  V30 14 C -1.092002 3.338136 -0.580748 0
M  V30 15 C -2.495567 3.258424 -0.203472 0
M  V30 16 C -2.204307 3.638936 -1.611885 0
M  V30 17 C -0.277317 1.121588 -0.126314 0
M  V30 18 O -0.951418 1.027066 0.930352 0
M  V30 19 C 0.536515 0.094399 -0.554162 0
M  V30 20 C 0.565836 -1.043514 0.248297 0
M  V30 21 S -0.317829 -1.456404 1.848060 0
M  V30 22 H 0.281728 -4.461803 6.321342 0
M  V30 23 H -0.714366 -5.498401 5.179184 0
M  V30 24 H 1.071809 -5.585344 5.194653 0
M  V30 25 H -0.111153 -6.175410 3.162015 0
M  V30 26 H 2.702379 -2.995341 -1.428079 0
M  V30 27 H 2.677415 -1.051668 -2.835438 0
M  V30 28 H 0.486072 3.105450 -2.717037 0
M  V30 29 H -0.494990 4.223953 -0.268113 0
M  V30 30 H -3.057773 2.340176 -0.046100 0
M  V30 31 H -2.882165 4.109126 0.415907 0
M  V30 32 H -2.405414 2.889941 -2.393040 0
M  V30 33 H -2.255424 4.680421 -1.970078 0
M  V30 END ATOM
M  V30 BEGIN BOND
M  V30 1 1 1 2
M  V30 2 1 2 3
M  V30 3 2 3 4 CFG=2
M  V30 4 1 3 5
M  V30 5 2 5 6
M  V30 6 1 6 7
M  V30 7 2 7 8
M  V30 8 1 8 9
M  V30 9 2 9 10
M  V30 10 1 10 11
M  V30 11 2 11 12
M  V30 12 1 12 13
M  V30 13 1 13 14
M  V30 14 1 14 15
M  V30 15 1 15 16
M  V30 16 1 13 17
M  V30 17 2 17 18
M  V30 18 1 17 19
M  V30 19 2 19 20
M  V30 20 1 20 21
M  V30 21 1 21 5
M  V30 22 1 20 7
M  V30 23 1 19 10
M  V30 24 1 16 14
M  V30 25 1 1 22
M  V30 26 1 1 23
M  V30 27 1 1 24
M  V30 28 1 4 25
M  V30 29 1 8 26
M  V30 30 1 9 27
M  V30 31 1 12 28
M  V30 32 1 14 29
M  V30 33 1 15 30
M  V30 34 1 15 31
M  V30 35 1 16 32
M  V30 36 1 16 33
M  V30 END BOND
M  V30 END CTAB
M  END
>  <Dataset>  (824) 
ChEMBL_Kinases

>  <Ligand_Instance>  (824) 
nan

>  <PDB_ID>  (824) 
nan

>  <Standardized_SMILES>  (824) 
COC(=N)c1nc2ccc3ncn(C4CC4)c(=O)c3c2s1

>  <Name>  (824) 
nan

>  <Pocket>  (824) 
nan

>  <ATP_Site>  (824) 
nan

>  <Peripheral>  (824) 
nan

>  <Num_H_Atoms_ProtBoundConf>  (824) 
nan

>  <Num_Resolved_Atoms>  (824) 
nan

>  <Num_Not_Resolved_Atoms>  (824) 
nan

$$$$
CHEMBL4592501
     RDKit          3D

  0  0  0  0  0  0  0  0  0  0999 V3000
M  V30 BEGIN CTAB
M  V30 COUNTS 45 47 0 0 0
M  V30 BEGIN ATOM
M  V30 1 C 3.034520 -4.846900 1.503827 0
M  V30 2 O 2.023820 -3.894674 1.294582 0
M  V30 3 C 1.866901 -3.345115 0.021275 0
M  V30 4 C 2.714352 -3.760314 -0.987087 0
M  V30 5 C 2.532973 -3.198027 -2.234148 0
M  V30 6 C 1.543469 -2.247267 -2.496086 0
M  V30 7 N 1.373739 -1.710644 -3.716612 0
M  V30 8 C 0.423199 -0.798224 -3.985590 0
M  V30 9 C -0.390158 -0.423562 -2.940352 0
M  V30 10 C -0.299080 -0.916326 -1.641527 0
M  V30 11 N -1.179499 -0.480114 -0.616735 0
M  V30 12 C -0.992709 0.188897 0.622795 0
M  V30 13 C 0.220070 0.684738 1.047527 0
M  V30 14 C 0.387646 1.329487 2.249826 0
M  V30 15 O 1.622471 1.818552 2.650829 0
M  V30 16 C 2.756156 1.664918 1.822764 0
M  V30 17 C -0.718155 1.480849 3.060224 0
M  V30 18 O -0.574196 2.128414 4.279067 0
M  V30 19 C -0.753539 3.545350 4.354351 0
M  V30 20 C -1.933862 0.975346 2.617648 0
M  V30 21 O -2.993429 1.169590 3.491872 0
M  V30 22 C -4.266969 0.672825 3.092492 0
M  V30 23 C -2.112274 0.327164 1.413503 0
M  V30 24 C 0.709949 -1.842133 -1.492875 0
M  V30 25 C 0.894122 -2.405654 -0.251041 0
M  V30 26 H 2.769102 -5.862302 1.134320 0
M  V30 27 H 4.013041 -4.524057 1.113468 0
M  V30 28 H 3.194054 -4.941138 2.617499 0
M  V30 29 H 3.501763 -4.489588 -0.862534 0
M  V30 30 H 3.173195 -3.483480 -3.083516 0
M  V30 31 H 0.304060 -0.379609 -4.974934 0
M  V30 32 H -1.146944 0.311162 -3.180754 0
M  V30 33 H -2.110098 -0.768987 -0.967418 0
M  V30 34 H 1.039690 0.530471 0.363684 0
M  V30 35 H 2.566235 1.824375 0.753229 0
M  V30 36 H 3.236539 0.666057 1.951749 0
M  V30 37 H 3.558308 2.400979 2.112802 0
M  V30 38 H 0.204039 4.084080 4.197496 0
M  V30 39 H -1.240235 3.841435 5.306517 0
M  V30 40 H -1.415453 3.855286 3.510704 0
M  V30 41 H -5.042187 0.890796 3.834616 0
M  V30 42 H -4.608891 1.156583 2.146739 0
M  V30 43 H -4.251122 -0.409890 2.890057 0
M  V30 44 H -3.077125 -0.051569 1.106741 0
M  V30 45 H 0.271340 -2.140786 0.589152 0
M  V30 END ATOM
M  V30 BEGIN BOND
M  V30 1 1 1 2
M  V30 2 1 2 3
M  V30 3 2 3 4
M  V30 4 1 4 5
M  V30 5 2 5 6
M  V30 6 1 6 7
M  V30 7 2 7 8
M  V30 8 1 8 9
M  V30 9 2 9 10
M  V30 10 1 10 11
M  V30 11 1 11 12
M  V30 12 2 12 13
M  V30 13 1 13 14
M  V30 14 1 14 15
M  V30 15 1 15 16
M  V30 16 2 14 17
M  V30 17 1 17 18
M  V30 18 1 18 19
M  V30 19 1 17 20
M  V30 20 1 20 21
M  V30 21 1 21 22
M  V30 22 2 20 23
M  V30 23 1 10 24
M  V30 24 2 24 25
M  V30 25 1 25 3
M  V30 26 1 24 6
M  V30 27 1 23 12
M  V30 28 1 1 26
M  V30 29 1 1 27
M  V30 30 1 1 28
M  V30 31 1 4 29
M  V30 32 1 5 30
M  V30 33 1 8 31
M  V30 34 1 9 32
M  V30 35 1 11 33
M  V30 36 1 13 34
M  V30 37 1 16 35
M  V30 38 1 16 36
M  V30 39 1 16 37
M  V30 40 1 19 38
M  V30 41 1 19 39
M  V30 42 1 19 40
M  V30 43 1 22 41
M  V30 44 1 22 42
M  V30 45 1 22 43
M  V30 46 1 23 44
M  V30 47 1 25 45
M  V30 END BOND
M  V30 END CTAB
M  END
>  <Dataset>  (825) 
ChEMBL_Kinases

>  <Ligand_Instance>  (825) 
nan

>  <PDB_ID>  (825) 
nan

>  <Standardized_SMILES>  (825) 
COc1ccc2nccc(Nc3cc(OC)c(OC)c(OC)c3)c2c1

>  <Name>  (825) 
nan

>  <Pocket>  (825) 
nan

>  <ATP_Site>  (825) 
nan

>  <Peripheral>  (825) 
nan

>  <Num_H_Atoms_ProtBoundConf>  (825) 
nan

>  <Num_Resolved_Atoms>  (825) 
nan

>  <Num_Not_Resolved_Atoms>  (825) 
nan

$$$$
CHEMBL3701734
     RDKit          3D

  0  0  0  0  0  0  0  0  0  0999 V3000
M  V30 BEGIN CTAB
M  V30 COUNTS 65 71 0 0 0
M  V30 BEGIN ATOM
M  V30 1 C 8.095898 -2.159315 4.049067 0
M  V30 2 O 7.745137 -0.956404 3.396050 0
M  V30 3 C 6.478498 -0.654997 2.917752 0
M  V30 4 C 5.437940 -1.546915 3.054508 0
M  V30 5 C 4.199149 -1.192630 2.559370 0
M  V30 6 C 4.067056 0.038699 1.951832 0
M  V30 7 C 5.104970 0.937266 1.811309 0
M  V30 8 C 6.369755 0.595466 2.307568 0
M  V30 9 O 4.884626 2.156389 1.185988 0
M  V30 10 C 3.630912 2.554787 0.667522 0
M  V30 11 N 2.594358 1.557911 0.850763 0
M  V30 12 C 2.733328 0.356545 1.446857 0
M  V30 13 N 1.511017 -0.259728 1.404178 0
M  V30 14 C 0.643402 0.589415 0.775522 0
M  V30 15 C -0.683387 -0.025634 0.699912 0
M  V30 16 C -1.119044 -0.295427 -0.584442 0
M  V30 17 C -2.355007 -0.877985 -0.769405 0
M  V30 18 C -3.184308 -1.206832 0.281006 0
M  V30 19 C -4.510141 -1.829014 0.306789 0
M  V30 20 N -5.482863 -1.132657 1.166061 0
M  V30 21 C -5.128292 -2.232043 -0.998319 0
M  V30 22 C -5.164723 -3.676617 -0.588375 0
M  V30 23 O -6.425443 -4.191670 -0.297940 0
M  V30 24 C -4.421635 -4.657563 -1.452051 0
M  V30 25 C -4.797856 -4.796997 -2.889337 0
M  V30 26 C -3.406493 -4.289895 -2.437504 0
M  V30 27 C -4.449353 -3.292872 0.690197 0
M  V30 28 C -2.724882 -0.925327 1.571063 0
M  V30 29 C -1.491478 -0.341638 1.800516 0
M  V30 30 C 1.337104 1.730125 0.432014 0
M  V30 31 C 0.541539 2.732776 -0.248963 0
M  V30 32 C 0.947857 3.080148 -1.523111 0
M  V30 33 C 0.233768 4.028452 -2.226152 0
M  V30 34 C -0.881361 4.659640 -1.720687 0
M  V30 35 C -1.293810 4.311983 -0.437089 0
M  V30 36 C -0.589336 3.364426 0.279671 0
M  V30 37 H 8.334874 -2.973457 3.360002 0
M  V30 38 H 8.912237 -1.998221 4.794372 0
M  V30 39 H 7.228615 -2.497967 4.652883 0
M  V30 40 H 5.540460 -2.502348 3.524732 0
M  V30 41 H 3.348851 -1.870468 2.647820 0
M  V30 42 H 7.206808 1.272992 2.215791 0
M  V30 43 H 3.725853 2.827605 -0.400103 0
M  V30 44 H 3.327428 3.499443 1.200663 0
M  V30 45 H -0.574229 -0.090382 -1.495874 0
M  V30 46 H -2.778476 -1.123796 -1.725214 0
M  V30 47 H -5.535867 -0.129965 0.925645 0
M  V30 48 H -5.287549 -1.332115 2.170491 0
M  V30 49 H -6.191253 -1.883827 -1.130730 0
M  V30 50 H -4.568561 -2.053686 -1.912813 0
M  V30 51 H -6.670608 -4.968934 -0.879286 0
M  V30 52 H -4.311135 -5.651959 -0.941262 0
M  V30 53 H -5.428108 -4.050026 -3.413204 0
M  V30 54 H -4.758477 -5.763069 -3.424758 0
M  V30 55 H -3.170814 -3.262504 -2.735216 0
M  V30 56 H -2.556234 -5.005651 -2.566154 0
M  V30 57 H -3.393680 -3.681892 0.632191 0
M  V30 58 H -4.993068 -3.531568 1.618162 0
M  V30 59 H -3.266750 -1.125850 2.509885 0
M  V30 60 H -1.090202 -0.103511 2.767244 0
M  V30 61 H 1.799534 2.672307 -2.049701 0
M  V30 62 H 0.508957 4.343993 -3.239191 0
M  V30 63 H -1.472883 5.407258 -2.232121 0
M  V30 64 H -2.158082 4.769679 0.016441 0
M  V30 65 H -0.855609 3.048247 1.281953 0
M  V30 END ATOM
M  V30 BEGIN BOND
M  V30 1 1 1 2
M  V30 2 1 2 3
M  V30 3 2 3 4
M  V30 4 1 4 5
M  V30 5 2 5 6
M  V30 6 1 6 7
M  V30 7 2 7 8
M  V30 8 1 7 9
M  V30 9 1 9 10
M  V30 10 1 10 11
M  V30 11 1 11 12
M  V30 12 2 12 13
M  V30 13 1 13 14
M  V30 14 1 14 15
M  V30 15 2 15 16
M  V30 16 1 16 17
M  V30 17 2 17 18
M  V30 18 1 18 19
M  V30 19 1 19 20
M  V30 20 1 19 21
M  V30 21 1 21 22
M  V30 22 1 22 23
M  V30 23 1 22 24
M  V30 24 1 24 25
M  V30 25 1 25 26
M  V30 26 1 22 27
M  V30 27 1 18 28
M  V30 28 2 28 29
M  V30 29 2 14 30
M  V30 30 1 30 31
M  V30 31 2 31 32
M  V30 32 1 32 33
M  V30 33 2 33 34
M  V30 34 1 34 35
M  V30 35 2 35 36
M  V30 36 1 8 3
M  V30 37 1 30 11
M  V30 38 1 36 31
M  V30 39 1 12 6
M  V30 40 1 29 15
M  V30 41 1 27 19
M  V30 42 1 26 24
M  V30 43 1 1 37
M  V30 44 1 1 38
M  V30 45 1 1 39
M  V30 46 1 4 40
M  V30 47 1 5 41
M  V30 48 1 8 42
M  V30 49 1 10 43
M  V30 50 1 10 44
M  V30 51 1 16 45
M  V30 52 1 17 46
M  V30 53 1 20 47
M  V30 54 1 20 48
M  V30 55 1 21 49
M  V30 56 1 21 50
M  V30 57 1 23 51
M  V30 58 1 24 52
M  V30 59 1 25 53
M  V30 60 1 25 54
M  V30 61 1 26 55
M  V30 62 1 26 56
M  V30 63 1 27 57
M  V30 64 1 27 58
M  V30 65 1 28 59
M  V30 66 1 29 60
M  V30 67 1 32 61
M  V30 68 1 33 62
M  V30 69 1 34 63
M  V30 70 1 35 64
M  V30 71 1 36 65
M  V30 END BOND
M  V30 END CTAB
M  END
>  <Dataset>  (826) 
ChEMBL_Kinases

>  <Ligand_Instance>  (826) 
nan

>  <PDB_ID>  (826) 
nan

>  <Standardized_SMILES>  (826) 
COc1ccc2c(c1)OCn1c-2nc(-c2ccc(C3(N)CC(O)(C4CC4)C3)cc2)c1-c1ccccc1

>  <Name>  (826) 
nan

>  <Pocket>  (826) 
nan

>  <ATP_Site>  (826) 
nan

>  <Peripheral>  (826) 
nan

>  <Num_H_Atoms_ProtBoundConf>  (826) 
nan

>  <Num_Resolved_Atoms>  (826) 
nan

>  <Num_Not_Resolved_Atoms>  (826) 
nan

$$$$
CHEMBL3680512
     RDKit          3D

  0  0  0  0  0  0  0  0  0  0999 V3000
M  V30 BEGIN CTAB
M  V30 COUNTS 70 74 0 0 0
M  V30 BEGIN ATOM
M  V30 1 N 3.715366 4.857785 6.548257 0
M  V30 2 C 2.477605 4.510618 5.952323 0
M  V30 3 O 1.431122 4.789208 6.585924 0
M  V30 4 C 2.500884 3.858263 4.653382 0
M  V30 5 C 3.683044 3.569170 4.004114 0
M  V30 6 C 3.668019 2.953507 2.771427 0
M  V30 7 C 2.447185 2.640601 2.217511 0
M  V30 8 C 1.229014 2.880098 2.771876 0
M  V30 9 C -0.022180 2.586538 2.231509 0
M  V30 10 N -0.005326 1.922616 0.981351 0
M  V30 11 C -0.017951 1.266977 -0.254523 0
M  V30 12 C 1.230924 0.494537 -0.582607 0
M  V30 13 C 1.636920 -0.558951 0.373430 0
M  V30 14 N 0.899760 -1.691422 0.627994 0
M  V30 15 C 0.763219 -2.774605 -0.234805 0
M  V30 16 C 1.540251 -3.951056 0.334702 0
M  V30 17 C 0.880558 -4.350952 1.611342 0
M  V30 18 C 0.667269 -3.204214 2.560998 0
M  V30 19 C 0.381927 -1.887041 1.908956 0
M  V30 20 C -1.223158 0.683619 -0.821410 0
M  V30 21 C -2.295001 1.553676 -0.611805 0
M  V30 22 C -3.596192 1.265054 -1.051210 0
M  V30 23 C -3.887764 0.072758 -1.732210 0
M  V30 24 C -2.828327 -0.796802 -1.945968 0
M  V30 25 N -2.896498 -2.059193 -2.606177 0
M  V30 26 C -2.783815 -2.473711 -3.952103 0
M  V30 27 O -2.581202 -1.558891 -4.780925 0
M  V30 28 C -2.911291 -3.895775 -4.243570 0
M  V30 29 C -3.077333 -4.917325 -3.362016 0
M  V30 30 C -3.185762 -6.231804 -3.815978 0
M  V30 31 C -3.127746 -6.527441 -5.165833 0
M  V30 32 F -3.244730 -7.853695 -5.492211 0
M  V30 33 C -2.957865 -5.479295 -6.066335 0
M  V30 34 F -2.910964 -5.840567 -7.370923 0
M  V30 35 C -2.854051 -4.202099 -5.599253 0
M  V30 36 C -1.590901 -0.438197 -1.485036 0
M  V30 37 N -1.070090 2.949433 2.989737 0
M  V30 38 C -1.015613 3.543528 4.172638 0
M  V30 39 N 0.203526 3.792518 4.628915 0
M  V30 40 C 1.336029 3.495873 3.997818 0
M  V30 41 H 4.244531 4.043677 6.931891 0
M  V30 42 H 4.066754 3.911880 6.857551 0
M  V30 43 H 4.629400 3.822137 4.455684 0
M  V30 44 H 4.592411 2.724741 2.258735 0
M  V30 45 H 2.495204 2.178455 1.249547 0
M  V30 46 H -1.031966 1.864501 0.912839 0
M  V30 47 H 0.138900 2.196275 -1.006422 0
M  V30 48 H 1.011798 -0.019058 -1.566133 0
M  V30 49 H 2.100312 1.158546 -0.866228 0
M  V30 50 H 2.746324 -0.823075 0.177873 0
M  V30 51 H 1.773226 -0.045873 1.404782 0
M  V30 52 H -0.303124 -3.095825 -0.247419 0
M  V30 53 H 1.034501 -2.594904 -1.297564 0
M  V30 54 H 1.473285 -4.795933 -0.379884 0
M  V30 55 H 2.619233 -3.711642 0.437360 0
M  V30 56 H 1.541626 -5.115274 2.089890 0
M  V30 57 H -0.072648 -4.861875 1.359349 0
M  V30 58 H -0.212142 -3.476529 3.180484 0
M  V30 59 H 1.518527 -3.180283 3.287981 0
M  V30 60 H -0.734050 -1.700594 1.908863 0
M  V30 61 H 0.776570 -1.090396 2.592995 0
M  V30 62 H -2.455073 2.537528 -0.154394 0
M  V30 63 H -4.532652 1.820372 -0.973467 0
M  V30 64 H -4.821369 -0.267593 -2.116077 0
M  V30 65 H -3.068063 -2.681316 -1.776542 0
M  V30 66 H -3.115700 -4.644404 -2.331779 0
M  V30 67 H -3.314933 -7.006925 -3.093117 0
M  V30 68 H -2.726076 -3.483051 -6.406894 0
M  V30 69 H -0.723097 -1.040535 -1.635857 0
M  V30 70 H -1.978803 3.749308 4.615150 0
M  V30 END ATOM
M  V30 BEGIN BOND
M  V30 1 1 1 2
M  V30 2 2 2 3
M  V30 3 1 2 4
M  V30 4 2 4 5
M  V30 5 1 5 6
M  V30 6 2 6 7
M  V30 7 1 7 8
M  V30 8 2 8 9
M  V30 9 1 9 10
M  V30 10 1 10 11
M  V30 11 1 11 12
M  V30 12 1 12 13
M  V30 13 1 13 14
M  V30 14 1 14 15
M  V30 15 1 15 16
M  V30 16 1 16 17
M  V30 17 1 17 18
M  V30 18 1 18 19
M  V30 19 1 11 20
M  V30 20 2 20 21
M  V30 21 1 21 22
M  V30 22 2 22 23
M  V30 23 1 23 24
M  V30 24 1 24 25
M  V30 25 1 25 26
M  V30 26 2 26 27
M  V30 27 1 26 28
M  V30 28 2 28 29
M  V30 29 1 29 30
M  V30 30 2 30 31
M  V30 31 1 31 32
M  V30 32 1 31 33
M  V30 33 1 33 34
M  V30 34 2 33 35
M  V30 35 2 24 36
M  V30 36 1 9 37
M  V30 37 2 37 38
M  V30 38 1 38 39
M  V30 39 2 39 40
M  V30 40 1 40 4
M  V30 41 1 40 8
M  V30 42 1 19 14
M  V30 43 1 36 20
M  V30 44 1 35 28
M  V30 45 1 1 41
M  V30 46 1 1 42
M  V30 47 1 5 43
M  V30 48 1 6 44
M  V30 49 1 7 45
M  V30 50 1 10 46
M  V30 51 1 11 47
M  V30 52 1 12 48
M  V30 53 1 12 49
M  V30 54 1 13 50
M  V30 55 1 13 51
M  V30 56 1 15 52
M  V30 57 1 15 53
M  V30 58 1 16 54
M  V30 59 1 16 55
M  V30 60 1 17 56
M  V30 61 1 17 57
M  V30 62 1 18 58
M  V30 63 1 18 59
M  V30 64 1 19 60
M  V30 65 1 19 61
M  V30 66 1 21 62
M  V30 67 1 22 63
M  V30 68 1 23 64
M  V30 69 1 25 65
M  V30 70 1 29 66
M  V30 71 1 30 67
M  V30 72 1 35 68
M  V30 73 1 36 69
M  V30 74 1 38 70
M  V30 END BOND
M  V30 END CTAB
M  END
>  <Dataset>  (827) 
ChEMBL_Kinases

>  <Ligand_Instance>  (827) 
nan

>  <PDB_ID>  (827) 
nan

>  <Standardized_SMILES>  (827) 
NC(=O)c1cccc2c(NC(CCN3CCCCC3)c3cccc(NC(=O)c4ccc(F)c(F)c4)c3)ncnc12

>  <Name>  (827) 
nan

>  <Pocket>  (827) 
nan

>  <ATP_Site>  (827) 
nan

>  <Peripheral>  (827) 
nan

>  <Num_H_Atoms_ProtBoundConf>  (827) 
nan

>  <Num_Resolved_Atoms>  (827) 
nan

>  <Num_Not_Resolved_Atoms>  (827) 
nan

$$$$
CHEMBL4279379
     RDKit          3D

  0  0  0  0  0  0  0  0  0  0999 V3000
M  V30 BEGIN CTAB
M  V30 COUNTS 35 37 0 0 0
M  V30 BEGIN ATOM
M  V30 1 C -0.716776 -4.149120 3.613708 0
M  V30 2 N 0.475901 -4.209480 2.797265 0
M  V30 3 C 1.400443 -5.316193 2.858665 0
M  V30 4 C 0.741841 -3.135750 1.903060 0
M  V30 5 C 1.866150 -3.121553 1.086816 0
M  V30 6 C 2.161482 -2.100792 0.206226 0
M  V30 7 C 1.264574 -1.053622 0.164036 0
M  V30 8 O 1.527458 -0.067035 -0.670884 0
M  V30 9 C 0.743725 0.977366 -0.792490 0
M  V30 10 N 1.012583 1.999347 -1.654876 0
M  V30 11 C 0.191381 3.055304 -1.757159 0
M  V30 12 N 0.590283 4.047226 -2.693185 0
M  V30 13 C -0.968257 3.209043 -1.025564 0
M  V30 14 C -1.820521 4.380477 -1.181180 0
M  V30 15 O -2.883382 4.551018 -0.530079 0
M  V30 16 O -1.442153 5.357056 -2.092382 0
M  V30 17 C -1.279375 2.197961 -0.139982 0
M  V30 18 C -0.418385 1.135300 -0.061866 0
M  V30 19 C -0.702688 0.103645 0.817945 0
M  V30 20 O -1.717112 0.128788 1.529556 0
M  V30 21 C 0.128730 -0.998505 0.943158 0
M  V30 22 C -0.108047 -2.051158 1.802610 0
M  V30 23 H -1.579180 -4.131344 2.906603 0
M  V30 24 H -0.727571 -3.158565 4.131142 0
M  V30 25 H -0.771507 -4.956804 4.350409 0
M  V30 26 H 1.099560 -5.999929 3.676719 0
M  V30 27 H 1.370821 -5.918302 1.920898 0
M  V30 28 H 2.432399 -5.000212 3.100120 0
M  V30 29 H 2.562835 -3.947972 1.128115 0
M  V30 30 H 3.061564 -2.136623 -0.416320 0
M  V30 31 H 0.409926 3.947644 -3.734264 0
M  V30 32 H 1.032437 4.958870 -2.942342 0
M  V30 33 H -1.867172 6.293365 -2.102359 0
M  V30 34 H -2.176940 2.252917 0.468221 0
M  V30 35 H -1.000864 -2.013820 2.418951 0
M  V30 END ATOM
M  V30 BEGIN BOND
M  V30 1 1 1 2
M  V30 2 1 2 3
M  V30 3 1 2 4
M  V30 4 2 4 5
M  V30 5 1 5 6
M  V30 6 2 6 7
M  V30 7 1 7 8
M  V30 8 1 8 9
M  V30 9 2 9 10
M  V30 10 1 10 11
M  V30 11 1 11 12
M  V30 12 2 11 13
M  V30 13 1 13 14
M  V30 14 2 14 15
M  V30 15 1 14 16
M  V30 16 1 13 17
M  V30 17 2 17 18
M  V30 18 1 18 19
M  V30 19 2 19 20
M  V30 20 1 19 21
M  V30 21 2 21 22
M  V30 22 1 22 4
M  V30 23 1 21 7
M  V30 24 1 18 9
M  V30 25 1 1 23
M  V30 26 1 1 24
M  V30 27 1 1 25
M  V30 28 1 3 26
M  V30 29 1 3 27
M  V30 30 1 3 28
M  V30 31 1 5 29
M  V30 32 1 6 30
M  V30 33 1 12 31
M  V30 34 1 12 32
M  V30 35 1 16 33
M  V30 36 1 17 34
M  V30 37 1 22 35
M  V30 END BOND
M  V30 END CTAB
M  END
>  <Dataset>  (828) 
ChEMBL_Kinases

>  <Ligand_Instance>  (828) 
nan

>  <PDB_ID>  (828) 
nan

>  <Standardized_SMILES>  (828) 
CN(C)c1ccc2oc3nc(N)c(C(=O)O)cc3c(=O)c2c1

>  <Name>  (828) 
nan

>  <Pocket>  (828) 
nan

>  <ATP_Site>  (828) 
nan

>  <Peripheral>  (828) 
nan

>  <Num_H_Atoms_ProtBoundConf>  (828) 
nan

>  <Num_Resolved_Atoms>  (828) 
nan

>  <Num_Not_Resolved_Atoms>  (828) 
nan

$$$$
CHEMBL3680506
     RDKit          3D

  0  0  0  0  0  0  0  0  0  0999 V3000
M  V30 BEGIN CTAB
M  V30 COUNTS 57 59 0 0 0
M  V30 BEGIN ATOM
M  V30 1 C 0.362820 -1.846515 4.772330 0
M  V30 2 C 1.087948 -1.034309 4.011394 0
M  V30 3 C 2.057369 -1.380134 2.968050 0
M  V30 4 N 1.656947 -0.822448 1.656843 0
M  V30 5 C 1.818198 0.630491 1.877937 0
M  V30 6 C 2.520163 -1.293481 0.618252 0
M  V30 7 C 2.178043 -0.888090 -0.771429 0
M  V30 8 C 0.838456 -1.341142 -1.257663 0
M  V30 9 N -0.275198 -0.852649 -0.465104 0
M  V30 10 C -0.639103 0.529400 -0.451935 0
M  V30 11 N 0.089213 1.355503 -1.221268 0
M  V30 12 C -0.275624 2.661976 -1.204295 0
M  V30 13 N -1.302635 3.195272 -0.482864 0
M  V30 14 C -2.005855 2.331826 0.273977 0
M  V30 15 C -3.064941 2.747244 1.047903 0
M  V30 16 C -3.400098 4.169493 1.016265 0
M  V30 17 N -4.468209 4.747926 1.758507 0
M  V30 18 O -2.871978 5.095645 0.390662 0
M  V30 19 C -3.851734 1.956164 1.858860 0
M  V30 20 C -3.494699 0.612169 1.856331 0
M  V30 21 C -2.436956 0.147569 1.093778 0
M  V30 22 C -1.691034 0.988196 0.305539 0
M  V30 23 C 0.738991 -2.733448 -1.696568 0
M  V30 24 C 1.743722 -3.596283 -1.708747 0
M  V30 25 C 1.588286 -4.986307 -2.160656 0
M  V30 26 N 2.675613 -5.892589 -2.165064 0 CHG=1 VAL=4
M  V30 27 O 3.630695 -6.310492 -2.864410 0
M  V30 28 O 2.515932 -6.430453 -0.927765 0 CHG=-1 VAL=1
M  V30 29 C 0.371816 -5.313904 -2.556143 0
M  V30 30 C -0.821688 -4.467776 -2.597381 0
M  V30 31 C -0.653157 -3.065969 -2.144942 0
M  V30 32 H -0.365067 -1.708755 5.553285 0
M  V30 33 H -0.145902 -2.639421 5.302069 0
M  V30 34 H 0.828085 -0.003950 4.309558 0
M  V30 35 H 1.975077 -2.493119 2.822681 0
M  V30 36 H 3.061245 -1.062411 3.245030 0
M  V30 37 H 2.710515 0.799197 2.492744 0
M  V30 38 H 0.894100 0.994796 2.364902 0
M  V30 39 H 1.868761 1.108794 0.900988 0
M  V30 40 H 3.547172 -0.894406 0.884808 0
M  V30 41 H 2.640768 -2.383467 0.786111 0
M  V30 42 H 2.915648 -1.253740 -1.524469 0
M  V30 43 H 2.234629 0.213115 -0.856979 0
M  V30 44 H 0.699075 -0.745430 -2.233860 0
M  V30 45 H -0.703127 -1.652740 0.043391 0
M  V30 46 H 0.302402 3.359983 -1.824087 0
M  V30 47 H -5.363220 4.392414 1.305028 0
M  V30 48 H -4.482729 5.397398 2.590461 0
M  V30 49 H -4.665962 2.379540 2.432111 0
M  V30 50 H -4.077301 -0.063393 2.476226 0
M  V30 51 H -2.213888 -0.904776 1.138182 0
M  V30 52 H 2.708246 -3.292627 -1.390051 0
M  V30 53 H 0.194593 -6.338504 -2.904018 0
M  V30 54 H -1.241317 -4.443274 -3.648585 0
M  V30 55 H -1.616970 -5.008820 -2.007592 0
M  V30 56 H -0.840192 -2.335738 -2.988243 0
M  V30 57 H -1.423932 -2.847302 -1.408992 0
M  V30 END ATOM
M  V30 BEGIN BOND
M  V30 1 2 1 2
M  V30 2 1 2 3
M  V30 3 1 3 4
M  V30 4 1 4 5
M  V30 5 1 4 6
M  V30 6 1 6 7
M  V30 7 1 7 8
M  V30 8 1 8 9
M  V30 9 1 9 10
M  V30 10 2 10 11
M  V30 11 1 11 12
M  V30 12 2 12 13
M  V30 13 1 13 14
M  V30 14 2 14 15
M  V30 15 1 15 16
M  V30 16 1 16 17
M  V30 17 2 16 18
M  V30 18 1 15 19
M  V30 19 2 19 20
M  V30 20 1 20 21
M  V30 21 2 21 22
M  V30 22 1 8 23
M  V30 23 2 23 24
M  V30 24 1 24 25
M  V30 25 1 25 26
M  V30 26 2 26 27
M  V30 27 1 26 28
M  V30 28 2 25 29
M  V30 29 1 29 30
M  V30 30 1 30 31
M  V30 31 1 22 10
M  V30 32 1 31 23
M  V30 33 1 22 14
M  V30 34 1 1 32
M  V30 35 1 1 33
M  V30 36 1 2 34
M  V30 37 1 3 35
M  V30 38 1 3 36
M  V30 39 1 5 37
M  V30 40 1 5 38
M  V30 41 1 5 39
M  V30 42 1 6 40
M  V30 43 1 6 41
M  V30 44 1 7 42
M  V30 45 1 7 43
M  V30 46 1 8 44
M  V30 47 1 9 45
M  V30 48 1 12 46
M  V30 49 1 17 47
M  V30 50 1 17 48
M  V30 51 1 19 49
M  V30 52 1 20 50
M  V30 53 1 21 51
M  V30 54 1 24 52
M  V30 55 1 29 53
M  V30 56 1 30 54
M  V30 57 1 30 55
M  V30 58 1 31 56
M  V30 59 1 31 57
M  V30 END BOND
M  V30 END CTAB
M  END
>  <Dataset>  (829) 
ChEMBL_Kinases

>  <Ligand_Instance>  (829) 
nan

>  <PDB_ID>  (829) 
nan

>  <Standardized_SMILES>  (829) 
C=CCN(C)CCC(Nc1ncnc2c(C(N)=O)cccc12)C1=CC([N+](=O)[O-])=CCC1

>  <Name>  (829) 
nan

>  <Pocket>  (829) 
nan

>  <ATP_Site>  (829) 
nan

>  <Peripheral>  (829) 
nan

>  <Num_H_Atoms_ProtBoundConf>  (829) 
nan

>  <Num_Resolved_Atoms>  (829) 
nan

>  <Num_Not_Resolved_Atoms>  (829) 
nan

$$$$
CHEMBL3680511
     RDKit          3D

  0  0  0  0  0  0  0  0  0  0999 V3000
M  V30 BEGIN CTAB
M  V30 COUNTS 39 41 0 0 0
M  V30 BEGIN ATOM
M  V30 1 C 0.412501 -2.012183 2.638210 0
M  V30 2 O 0.389614 -1.125317 1.565588 0
M  V30 3 C 1.405621 -0.878322 0.667802 0
M  V30 4 C 2.585897 -1.537895 0.783373 0
M  V30 5 C 3.614417 -1.312201 -0.095445 0
M  V30 6 C 3.381062 -0.388870 -1.088416 0
M  V30 7 C 4.461320 -0.134739 -2.031900 0
M  V30 8 N 4.250032 0.828341 -3.084880 0
M  V30 9 O 5.546010 -0.755845 -1.908568 0
M  V30 10 C 2.160921 0.253570 -1.159554 0
M  V30 11 N 2.075144 1.121368 -2.166120 0
M  V30 12 C 1.004798 1.854287 -2.430533 0
M  V30 13 N 0.021599 1.631825 -1.582645 0
M  V30 14 C -0.019941 0.792095 -0.535779 0
M  V30 15 N -1.103623 0.529336 0.405624 0
M  V30 16 C -2.361789 0.606560 1.043367 0
M  V30 17 C -2.509380 -0.319329 2.235615 0
M  V30 18 C -2.174392 -0.015493 3.535282 0
M  V30 19 C -2.399682 -0.964122 4.516674 0
M  V30 20 C -2.948143 -2.204133 4.239421 0
M  V30 21 C -3.299090 -2.553470 2.953553 0
M  V30 22 C -3.062187 -1.580082 1.980878 0
M  V30 23 C 1.112906 0.051854 -0.298851 0
M  V30 24 H -0.465505 -2.693821 2.526046 0
M  V30 25 H 0.298303 -1.490913 3.613192 0
M  V30 26 H 1.278382 -2.672601 2.714816 0
M  V30 27 H 2.810102 -2.267498 1.546361 0
M  V30 28 H 4.552274 -1.819623 -0.024028 0
M  V30 29 H 4.112757 1.877423 -3.146211 0
M  V30 30 H 4.179008 0.699787 -4.104941 0
M  V30 31 H 0.826509 2.577280 -3.206460 0
M  V30 32 H -1.625286 1.252977 -0.121388 0
M  V30 33 H -3.243371 0.384618 0.378212 0
M  V30 34 H -2.631396 1.601739 1.531319 0
M  V30 35 H -1.749928 0.964996 3.697408 0
M  V30 36 H -2.119383 -0.680319 5.531027 0
M  V30 37 H -3.118022 -2.936882 5.024091 0
M  V30 38 H -3.731032 -3.493563 2.644109 0
M  V30 39 H -3.330064 -1.831639 0.959864 0
M  V30 END ATOM
M  V30 BEGIN BOND
M  V30 1 1 1 2
M  V30 2 1 2 3
M  V30 3 2 3 4
M  V30 4 1 4 5
M  V30 5 2 5 6
M  V30 6 1 6 7
M  V30 7 1 7 8
M  V30 8 2 7 9
M  V30 9 1 6 10
M  V30 10 2 10 11
M  V30 11 1 11 12
M  V30 12 2 12 13
M  V30 13 1 13 14
M  V30 14 1 14 15
M  V30 15 1 15 16
M  V30 16 1 16 17
M  V30 17 2 17 18
M  V30 18 1 18 19
M  V30 19 2 19 20
M  V30 20 1 20 21
M  V30 21 2 21 22
M  V30 22 2 14 23
M  V30 23 1 23 3
M  V30 24 1 23 10
M  V30 25 1 22 17
M  V30 26 1 1 24
M  V30 27 1 1 25
M  V30 28 1 1 26
M  V30 29 1 4 27
M  V30 30 1 5 28
M  V30 31 1 8 29
M  V30 32 1 8 30
M  V30 33 1 12 31
M  V30 34 1 15 32
M  V30 35 1 16 33
M  V30 36 1 16 34
M  V30 37 1 18 35
M  V30 38 1 19 36
M  V30 39 1 20 37
M  V30 40 1 21 38
M  V30 41 1 22 39
M  V30 END BOND
M  V30 END CTAB
M  END
>  <Dataset>  (830) 
ChEMBL_Kinases

>  <Ligand_Instance>  (830) 
nan

>  <PDB_ID>  (830) 
nan

>  <Standardized_SMILES>  (830) 
COc1ccc(C(N)=O)c2ncnc(NCc3ccccc3)c12

>  <Name>  (830) 
nan

>  <Pocket>  (830) 
nan

>  <ATP_Site>  (830) 
nan

>  <Peripheral>  (830) 
nan

>  <Num_H_Atoms_ProtBoundConf>  (830) 
nan

>  <Num_Resolved_Atoms>  (830) 
nan

>  <Num_Not_Resolved_Atoms>  (830) 
nan

$$$$
CHEMBL3109404
     RDKit          3D

  0  0  0  0  0  0  0  0  0  0999 V3000
M  V30 BEGIN CTAB
M  V30 COUNTS 59 61 0 0 0
M  V30 BEGIN ATOM
M  V30 1 C 4.260752 -4.734079 3.881111 0
M  V30 2 O 3.713067 -3.767891 3.027082 0
M  V30 3 C 3.515101 -3.989887 1.694282 0
M  V30 4 O 3.911438 -5.139825 1.471441 0
M  V30 5 C 2.979104 -3.184348 0.629898 0
M  V30 6 C 2.940512 -3.791378 -0.619406 0
M  V30 7 C 2.426483 -3.067927 -1.692745 0
M  V30 8 O 2.396893 -3.693767 -2.933604 0
M  V30 9 C 1.974577 -1.783166 -1.489381 0
M  V30 10 O 1.510115 -1.198291 -2.644754 0
M  V30 11 C 1.969058 -1.086312 -0.271735 0
M  V30 12 C 1.439273 0.239552 -0.045737 0
M  V30 13 C 0.037035 0.466824 0.391615 0 CFG=2
M  V30 14 C -0.145175 1.987542 0.469255 0
M  V30 15 C 0.040000 0.019779 1.873898 0 CFG=1
M  V30 16 C 1.027987 0.887180 2.623449 0
M  V30 17 C -1.285868 0.146896 2.548040 0
M  V30 18 C -2.376224 -0.511759 1.795979 0
M  V30 19 C -2.398112 -0.239378 0.341271 0 CFG=1
M  V30 20 C -3.168207 -1.409230 -0.295294 0
M  V30 21 C -3.140742 0.973732 -0.037987 0
M  V30 22 C -3.899080 1.787924 0.950931 0
M  V30 23 C -3.243431 1.475507 -1.263127 0
M  V30 24 C -2.508297 0.657556 -2.228703 0
M  V30 25 C -1.180557 0.132485 -1.766365 0
M  V30 26 C -1.046036 -0.230697 -0.331386 0 CFG=1
M  V30 27 C 2.497854 -1.889668 0.720031 0
M  V30 28 H 5.222459 -4.436502 4.362083 0
M  V30 29 H 3.547882 -4.973637 4.733164 0
M  V30 30 H 4.453457 -5.718260 3.414449 0
M  V30 31 H 3.286335 -4.789643 -0.796434 0
M  V30 32 H 2.437950 -3.200707 -3.814689 0
M  V30 33 H 1.680392 -0.227104 -2.843183 0
M  V30 34 H 1.652712 0.887440 -0.963598 0
M  V30 35 H 2.160918 0.722568 0.701903 0
M  V30 36 H -0.710460 2.389219 -0.400307 0
M  V30 37 H -0.589361 2.315709 1.425947 0
M  V30 38 H 0.841709 2.485778 0.386621 0
M  V30 39 H 0.321062 -1.045073 1.927582 0
M  V30 40 H 1.231500 1.859371 2.184969 0
M  V30 41 H 1.998077 0.379704 2.748868 0
M  V30 42 H 0.623046 1.106892 3.660485 0
M  V30 43 H -1.171758 -0.452498 3.506859 0
M  V30 44 H -1.513769 1.156344 2.900766 0
M  V30 45 H -2.252858 -1.630118 1.928892 0
M  V30 46 H -3.369519 -0.307420 2.225748 0
M  V30 47 H -4.176071 -1.089378 -0.660653 0
M  V30 48 H -3.421782 -2.202406 0.465982 0
M  V30 49 H -2.568994 -1.944331 -1.054941 0
M  V30 50 H -3.900025 2.868841 0.707814 0
M  V30 51 H -4.978276 1.469382 0.861791 0
M  V30 52 H -3.598956 1.689772 1.981427 0
M  V30 53 H -3.788500 2.367368 -1.547472 0
M  V30 54 H -3.145921 -0.165179 -2.670601 0
M  V30 55 H -2.295961 1.305212 -3.126306 0
M  V30 56 H -0.362722 0.815621 -2.062844 0
M  V30 57 H -1.048794 -0.802788 -2.408502 0
M  V30 58 H -0.750696 -1.334593 -0.301532 0
M  V30 59 H 2.608275 -1.571892 1.737201 0
M  V30 END ATOM
M  V30 BEGIN BOND
M  V30 1 1 1 2
M  V30 2 1 2 3
M  V30 3 2 3 4
M  V30 4 1 3 5
M  V30 5 2 5 6
M  V30 6 1 6 7
M  V30 7 1 7 8
M  V30 8 2 7 9
M  V30 9 1 9 10
M  V30 10 1 9 11
M  V30 11 1 11 12
M  V30 12 1 13 12 CFG=3
M  V30 13 1 13 14
M  V30 14 1 13 15
M  V30 15 1 15 16
M  V30 16 1 15 17
M  V30 17 1 17 18
M  V30 18 1 18 19
M  V30 19 1 19 20 CFG=3
M  V30 20 1 19 21
M  V30 21 1 21 22
M  V30 22 2 21 23
M  V30 23 1 23 24
M  V30 24 1 24 25
M  V30 25 1 25 26
M  V30 26 2 11 27
M  V30 27 1 27 5
M  V30 28 1 26 13
M  V30 29 1 26 19
M  V30 30 1 1 28
M  V30 31 1 1 29
M  V30 32 1 1 30
M  V30 33 1 6 31
M  V30 34 1 8 32
M  V30 35 1 10 33
M  V30 36 1 12 34
M  V30 37 1 12 35
M  V30 38 1 14 36
M  V30 39 1 14 37
M  V30 40 1 14 38
M  V30 41 1 15 39 CFG=3
M  V30 42 1 16 40
M  V30 43 1 16 41
M  V30 44 1 16 42
M  V30 45 1 17 43
M  V30 46 1 17 44
M  V30 47 1 18 45
M  V30 48 1 18 46
M  V30 49 1 20 47
M  V30 50 1 20 48
M  V30 51 1 20 49
M  V30 52 1 22 50
M  V30 53 1 22 51
M  V30 54 1 22 52
M  V30 55 1 23 53
M  V30 56 1 24 54
M  V30 57 1 24 55
M  V30 58 1 25 56
M  V30 59 1 25 57
M  V30 60 1 26 58 CFG=3
M  V30 61 1 27 59
M  V30 END BOND
M  V30 END CTAB
M  END
>  <Dataset>  (831) 
ChEMBL_Kinases

>  <Ligand_Instance>  (831) 
nan

>  <PDB_ID>  (831) 
nan

>  <Standardized_SMILES>  (831) 
COC(=O)c1cc(O)c(O)c(C[C@]2(C)[C@@H](C)CC[C@@]3(C)C(C)=CCC[C@@H]23)c1

>  <Name>  (831) 
nan

>  <Pocket>  (831) 
nan

>  <ATP_Site>  (831) 
nan

>  <Peripheral>  (831) 
nan

>  <Num_H_Atoms_ProtBoundConf>  (831) 
nan

>  <Num_Resolved_Atoms>  (831) 
nan

>  <Num_Not_Resolved_Atoms>  (831) 
nan

$$$$
CHEMBL3680510
     RDKit          3D

  0  0  0  0  0  0  0  0  0  0999 V3000
M  V30 BEGIN CTAB
M  V30 COUNTS 46 48 0 0 0
M  V30 BEGIN ATOM
M  V30 1 C 2.490586 -4.707101 1.127391 0
M  V30 2 N 2.072440 -3.313213 0.992878 0
M  V30 3 C 1.737093 -3.074854 -0.367783 0
M  V30 4 C 1.283003 -1.700175 -0.718964 0 CFG=2
M  V30 5 C 2.323854 -0.640913 -0.432422 0
M  V30 6 C 2.739372 -0.547022 0.972160 0
M  V30 7 C 3.836373 -1.226393 1.519551 0
M  V30 8 C 4.211246 -1.128560 2.842809 0
M  V30 9 C 3.488140 -0.326448 3.700295 0
M  V30 10 C 2.397078 0.374301 3.237649 0
M  V30 11 C 2.065214 0.241029 1.907754 0
M  V30 12 N -0.006290 -1.337684 -0.131629 0
M  V30 13 C -0.726821 -0.128953 -0.338709 0
M  V30 14 N -0.243000 0.817727 -1.150358 0
M  V30 15 C -0.841064 1.984663 -1.419234 0
M  V30 16 N -2.020395 2.200237 -0.814265 0
M  V30 17 C -2.562096 1.312230 0.000993 0
M  V30 18 C -3.763112 1.473138 0.648676 0
M  V30 19 C -4.478582 2.712497 0.414220 0
M  V30 20 N -4.061939 3.800951 -0.437299 0
M  V30 21 O -5.385960 3.555096 0.514101 0
M  V30 22 C -4.387906 0.595340 1.509015 0
M  V30 23 C -3.708282 -0.604797 1.745480 0
M  V30 24 C -2.505249 -0.803031 1.116751 0
M  V30 25 C -1.942271 0.113308 0.273665 0
M  V30 26 H 1.613330 -5.357089 1.405332 0
M  V30 27 H 2.888538 -5.089592 0.166208 0
M  V30 28 H 3.305881 -4.797638 1.895673 0
M  V30 29 H 1.316634 -3.143282 1.671780 0
M  V30 30 H 2.630004 -3.303461 -0.987195 0
M  V30 31 H 0.967605 -3.820701 -0.720231 0
M  V30 32 H 1.127627 -1.677021 -1.819109 0
M  V30 33 H 3.278022 -0.884111 -1.001864 0
M  V30 34 H 2.026331 0.348850 -0.829807 0
M  V30 35 H 4.430414 -1.867462 0.851565 0
M  V30 36 H 5.084381 -1.699829 3.177739 0
M  V30 37 H 3.768137 -0.237294 4.739423 0
M  V30 38 H 1.850310 0.988468 3.912161 0
M  V30 39 H 1.204699 0.811309 1.602443 0
M  V30 40 H -0.347574 -2.103174 0.481938 0
M  V30 41 H -0.409921 2.736593 -2.092687 0
M  V30 42 H -3.103747 4.263913 -0.402706 0
M  V30 43 H -3.218915 4.412695 -0.612094 0
M  V30 44 H -5.329589 0.803881 1.972375 0
M  V30 45 H -4.156229 -1.325438 2.410426 0
M  V30 46 H -2.049073 -1.747460 1.353806 0
M  V30 END ATOM
M  V30 BEGIN BOND
M  V30 1 1 1 2
M  V30 2 1 2 3
M  V30 3 1 3 4
M  V30 4 1 4 5
M  V30 5 1 5 6
M  V30 6 2 6 7
M  V30 7 1 7 8
M  V30 8 2 8 9
M  V30 9 1 9 10
M  V30 10 2 10 11
M  V30 11 1 4 12
M  V30 12 1 12 13
M  V30 13 2 13 14
M  V30 14 1 14 15
M  V30 15 2 15 16
M  V30 16 1 16 17
M  V30 17 2 17 18
M  V30 18 1 18 19
M  V30 19 1 19 20
M  V30 20 2 19 21
M  V30 21 1 18 22
M  V30 22 2 22 23
M  V30 23 1 23 24
M  V30 24 2 24 25
M  V30 25 1 11 6
M  V30 26 1 25 13
M  V30 27 1 25 17
M  V30 28 1 1 26
M  V30 29 1 1 27
M  V30 30 1 1 28
M  V30 31 1 2 29
M  V30 32 1 3 30
M  V30 33 1 3 31
M  V30 34 1 4 32 CFG=3
M  V30 35 1 5 33
M  V30 36 1 5 34
M  V30 37 1 7 35
M  V30 38 1 8 36
M  V30 39 1 9 37
M  V30 40 1 10 38
M  V30 41 1 11 39
M  V30 42 1 12 40
M  V30 43 1 15 41
M  V30 44 1 20 42
M  V30 45 1 20 43
M  V30 46 1 22 44
M  V30 47 1 23 45
M  V30 48 1 24 46
M  V30 END BOND
M  V30 END CTAB
M  END
>  <Dataset>  (832) 
ChEMBL_Kinases

>  <Ligand_Instance>  (832) 
nan

>  <PDB_ID>  (832) 
nan

>  <Standardized_SMILES>  (832) 
CNC[C@H](Cc1ccccc1)Nc1ncnc2c(C(N)=O)cccc12

>  <Name>  (832) 
nan

>  <Pocket>  (832) 
nan

>  <ATP_Site>  (832) 
nan

>  <Peripheral>  (832) 
nan

>  <Num_H_Atoms_ProtBoundConf>  (832) 
nan

>  <Num_Resolved_Atoms>  (832) 
nan

>  <Num_Not_Resolved_Atoms>  (832) 
nan

$$$$
CHEMBL3109738
     RDKit          3D

  0  0  0  0  0  0  0  0  0  0999 V3000
M  V30 BEGIN CTAB
M  V30 COUNTS 54 57 0 0 0
M  V30 BEGIN ATOM
M  V30 1 C 3.612193 -2.388000 4.890611 0
M  V30 2 O 2.454013 -1.925531 4.220437 0
M  V30 3 C 2.519030 -1.941707 2.830729 0
M  V30 4 C 3.509906 -2.327510 1.960218 0
M  V30 5 C 3.314654 -2.240560 0.596993 0
M  V30 6 N 4.380995 -2.649751 -0.114669 0
M  V30 7 C 4.264448 -2.586789 -1.463304 0
M  V30 8 N 3.123850 -2.132415 -2.009260 0
M  V30 9 C 2.062516 -1.725452 -1.295134 0
M  V30 10 C 2.127012 -1.767975 0.070163 0
M  V30 11 C 1.140267 -1.384403 0.950568 0
M  V30 12 C 1.335043 -1.469476 2.335229 0
M  V30 13 O 0.115806 -0.984850 2.875165 0
M  V30 14 C 0.187437 0.383503 3.238710 0
M  V30 15 C -1.093061 0.968295 3.739312 0
M  V30 16 C -2.169124 0.803827 2.663704 0
M  V30 17 C -1.673033 1.368416 1.341000 0
M  V30 18 C -2.755814 1.263403 0.301256 0
M  V30 19 N -2.284812 1.653008 -0.995927 0
M  V30 20 C -3.363081 1.817028 -1.956359 0
M  V30 21 C -1.215787 0.858717 -1.536327 0
M  V30 22 C -1.487009 -0.541236 -1.818687 0
M  V30 23 C -2.718081 -1.146994 -1.886027 0
M  V30 24 C -2.988365 -2.465171 -2.178551 0
M  V30 25 C -1.949815 -3.330514 -2.445267 0
M  V30 26 Br -2.303245 -5.153323 -2.851401 0
M  V30 27 C -0.676363 -2.745368 -2.385546 0
M  V30 28 C -0.421897 -1.396744 -2.083142 0
M  V30 29 N 1.013880 -1.319693 -2.137435 0
M  V30 30 H 3.426752 -2.585092 5.963681 0
M  V30 31 H 3.946605 -3.371576 4.458877 0
M  V30 32 H 4.454274 -1.673580 4.784563 0
M  V30 33 H 4.385641 -2.678109 2.484524 0
M  V30 34 H 5.125527 -2.916253 -2.066510 0
M  V30 35 H 0.314936 -1.064315 0.360481 0
M  V30 36 H 0.917851 0.422793 4.107929 0
M  V30 37 H 0.629772 1.030797 2.459111 0
M  V30 38 H -1.009764 2.053260 3.944150 0
M  V30 39 H -1.453549 0.471882 4.661898 0
M  V30 40 H -3.035673 1.407150 2.979600 0
M  V30 41 H -2.371222 -0.280406 2.561468 0
M  V30 42 H -0.729206 0.901499 1.021262 0
M  V30 43 H -1.421368 2.455137 1.486190 0
M  V30 44 H -3.528407 2.021642 0.587642 0
M  V30 45 H -3.218263 0.291808 0.401661 0
M  V30 46 H -4.370118 1.630543 -1.548257 0
M  V30 47 H -3.368318 2.936609 -2.159614 0
M  V30 48 H -3.126464 1.368285 -2.916049 0
M  V30 49 H -0.311496 1.018433 -0.918325 0
M  V30 50 H -0.957735 1.346026 -2.517113 0
M  V30 51 H -3.602739 -0.593356 -1.706901 0
M  V30 52 H -3.980693 -2.884733 -2.216349 0
M  V30 53 H 0.137042 -3.451574 -2.621735 0
M  V30 54 H 0.976012 -0.873057 -3.040546 0
M  V30 END ATOM
M  V30 BEGIN BOND
M  V30 1 1 1 2
M  V30 2 1 2 3
M  V30 3 2 3 4
M  V30 4 1 4 5
M  V30 5 2 5 6
M  V30 6 1 6 7
M  V30 7 2 7 8
M  V30 8 1 8 9
M  V30 9 2 9 10
M  V30 10 1 10 11
M  V30 11 2 11 12
M  V30 12 1 12 13
M  V30 13 1 13 14
M  V30 14 1 14 15
M  V30 15 1 15 16
M  V30 16 1 16 17
M  V30 17 1 17 18
M  V30 18 1 18 19
M  V30 19 1 19 20
M  V30 20 1 19 21
M  V30 21 1 21 22
M  V30 22 2 22 23
M  V30 23 1 23 24
M  V30 24 2 24 25
M  V30 25 1 25 26
M  V30 26 1 25 27
M  V30 27 2 27 28
M  V30 28 1 28 29
M  V30 29 1 12 3
M  V30 30 1 28 22
M  V30 31 1 10 5
M  V30 32 1 29 9
M  V30 33 1 1 30
M  V30 34 1 1 31
M  V30 35 1 1 32
M  V30 36 1 4 33
M  V30 37 1 7 34
M  V30 38 1 11 35
M  V30 39 1 14 36
M  V30 40 1 14 37
M  V30 41 1 15 38
M  V30 42 1 15 39
M  V30 43 1 16 40
M  V30 44 1 16 41
M  V30 45 1 17 42
M  V30 46 1 17 43
M  V30 47 1 18 44
M  V30 48 1 18 45
M  V30 49 1 20 46
M  V30 50 1 20 47
M  V30 51 1 20 48
M  V30 52 1 21 49
M  V30 53 1 21 50
M  V30 54 1 23 51
M  V30 55 1 24 52
M  V30 56 1 27 53
M  V30 57 1 29 54
M  V30 END BOND
M  V30 END CTAB
M  END
>  <Dataset>  (833) 
ChEMBL_Kinases

>  <Ligand_Instance>  (833) 
nan

>  <PDB_ID>  (833) 
nan

>  <Standardized_SMILES>  (833) 
COc1cc2ncnc3c2cc1OCCCCCN(C)Cc1ccc(Br)cc1N3

>  <Name>  (833) 
JNJ-26483327

>  <Pocket>  (833) 
nan

>  <ATP_Site>  (833) 
nan

>  <Peripheral>  (833) 
nan

>  <Num_H_Atoms_ProtBoundConf>  (833) 
nan

>  <Num_Resolved_Atoms>  (833) 
nan

>  <Num_Not_Resolved_Atoms>  (833) 
nan

$$$$
CHEMBL3701733
     RDKit          3D

  0  0  0  0  0  0  0  0  0  0999 V3000
M  V30 BEGIN CTAB
M  V30 COUNTS 65 71 0 0 0
M  V30 BEGIN ATOM
M  V30 1 C 5.506672 -3.711486 1.732934 0
M  V30 2 O 6.421701 -2.673960 2.046352 0
M  V30 3 C 5.920132 -1.379228 2.091775 0
M  V30 4 C 6.786373 -0.332625 2.396339 0
M  V30 5 C 6.343240 0.980861 2.456272 0
M  V30 6 C 5.014251 1.297195 2.213264 0
M  V30 7 C 4.185162 0.235715 1.914790 0
M  V30 8 C 4.578035 -1.086123 1.843279 0
M  V30 9 C 2.766501 0.480224 1.644306 0
M  V30 10 N 1.694744 -0.286976 1.328453 0
M  V30 11 C 0.602386 0.521548 1.192115 0
M  V30 12 C -0.605379 -0.227146 0.849356 0
M  V30 13 C -1.202686 0.039573 -0.365856 0
M  V30 14 C -2.339618 -0.667714 -0.685145 0
M  V30 15 C -2.879023 -1.612278 0.162610 0
M  V30 16 C -4.069388 -2.447970 -0.018071 0
M  V30 17 N -4.898578 -2.431085 1.170441 0
M  V30 18 C -4.841614 -2.288533 -1.297863 0
M  V30 19 C -4.196469 -3.533096 -1.870000 0
M  V30 20 O -5.076429 -4.420577 -2.442180 0
M  V30 21 C -2.964634 -3.323641 -2.694544 0
M  V30 22 C -3.011002 -2.476155 -3.950908 0
M  V30 23 C -2.862513 -3.952214 -4.078630 0
M  V30 24 C -3.812955 -3.883284 -0.426525 0
M  V30 25 C -2.244075 -1.852683 1.383767 0
M  V30 26 C -1.095519 -1.160357 1.742853 0
M  V30 27 C 1.022871 1.819544 1.432428 0
M  V30 28 C -0.011057 2.832233 1.331899 0
M  V30 29 C -1.117130 2.843600 2.181257 0
M  V30 30 C -2.112660 3.820761 2.082319 0
M  V30 31 C -1.983414 4.803752 1.104265 0
M  V30 32 C -0.884196 4.809640 0.244958 0
M  V30 33 C 0.084340 3.810196 0.384618 0
M  V30 34 N 2.339500 1.752670 1.702625 0
M  V30 35 C 3.150492 2.895502 2.007242 0
M  V30 36 O 4.497737 2.572358 2.253291 0
M  V30 37 H 4.977172 -3.414405 0.784426 0
M  V30 38 H 6.006920 -4.690382 1.624559 0
M  V30 39 H 4.709124 -3.836908 2.491627 0
M  V30 40 H 7.833181 -0.587402 2.587160 0
M  V30 41 H 7.032122 1.796753 2.696802 0
M  V30 42 H 3.892172 -1.886398 1.605384 0
M  V30 43 H -0.842000 0.761238 -1.079765 0
M  V30 44 H -2.876942 -0.540009 -1.593569 0
M  V30 45 H -4.792023 -3.276069 1.768635 0
M  V30 46 H -4.837182 -1.537934 1.692611 0
M  V30 47 H -5.932670 -2.491507 -1.114784 0
M  V30 48 H -4.722525 -1.366216 -1.862668 0
M  V30 49 H -4.737608 -5.339950 -2.299246 0
M  V30 50 H -1.987026 -3.226029 -2.149467 0
M  V30 51 H -4.014946 -2.033166 -4.158266 0
M  V30 52 H -2.117182 -1.853685 -4.218409 0
M  V30 53 H -1.876586 -4.358904 -4.366206 0
M  V30 54 H -3.732431 -4.594480 -4.357097 0
M  V30 55 H -2.783404 -4.240400 -0.314653 0
M  V30 56 H -4.510545 -4.637059 -0.038834 0
M  V30 57 H -2.577601 -2.578897 2.140804 0
M  V30 58 H -0.557039 -1.294730 2.664724 0
M  V30 59 H -1.225956 2.085250 2.942621 0
M  V30 60 H -2.969186 3.797173 2.768855 0
M  V30 61 H -2.752532 5.566944 1.020288 0
M  V30 62 H -0.762392 5.566473 -0.525183 0
M  V30 63 H 0.930934 3.839011 -0.298993 0
M  V30 64 H 3.098284 3.647567 1.195176 0
M  V30 65 H 2.741007 3.348075 2.934174 0
M  V30 END ATOM
M  V30 BEGIN BOND
M  V30 1 1 1 2
M  V30 2 1 2 3
M  V30 3 2 3 4
M  V30 4 1 4 5
M  V30 5 2 5 6
M  V30 6 1 6 7
M  V30 7 2 7 8
M  V30 8 1 7 9
M  V30 9 2 9 10
M  V30 10 1 10 11
M  V30 11 1 11 12
M  V30 12 2 12 13
M  V30 13 1 13 14
M  V30 14 2 14 15
M  V30 15 1 15 16
M  V30 16 1 16 17
M  V30 17 1 16 18
M  V30 18 1 18 19
M  V30 19 1 19 20
M  V30 20 1 19 21
M  V30 21 1 21 22
M  V30 22 1 22 23
M  V30 23 1 19 24
M  V30 24 1 15 25
M  V30 25 2 25 26
M  V30 26 2 11 27
M  V30 27 1 27 28
M  V30 28 2 28 29
M  V30 29 1 29 30
M  V30 30 2 30 31
M  V30 31 1 31 32
M  V30 32 2 32 33
M  V30 33 1 27 34
M  V30 34 1 34 35
M  V30 35 1 35 36
M  V30 36 1 8 3
M  V30 37 1 34 9
M  V30 38 1 36 6
M  V30 39 1 26 12
M  V30 40 1 33 28
M  V30 41 1 24 16
M  V30 42 1 23 21
M  V30 43 1 1 37
M  V30 44 1 1 38
M  V30 45 1 1 39
M  V30 46 1 4 40
M  V30 47 1 5 41
M  V30 48 1 8 42
M  V30 49 1 13 43
M  V30 50 1 14 44
M  V30 51 1 17 45
M  V30 52 1 17 46
M  V30 53 1 18 47
M  V30 54 1 18 48
M  V30 55 1 20 49
M  V30 56 1 21 50
M  V30 57 1 22 51
M  V30 58 1 22 52
M  V30 59 1 23 53
M  V30 60 1 23 54
M  V30 61 1 24 55
M  V30 62 1 24 56
M  V30 63 1 25 57
M  V30 64 1 26 58
M  V30 65 1 29 59
M  V30 66 1 30 60
M  V30 67 1 31 61
M  V30 68 1 32 62
M  V30 69 1 33 63
M  V30 70 1 35 64
M  V30 71 1 35 65
M  V30 END BOND
M  V30 END CTAB
M  END
>  <Dataset>  (834) 
ChEMBL_Kinases

>  <Ligand_Instance>  (834) 
nan

>  <PDB_ID>  (834) 
nan

>  <Standardized_SMILES>  (834) 
COc1ccc2c(c1)-c1nc(-c3ccc(C4(N)CC(O)(C5CC5)C4)cc3)c(-c3ccccc3)n1CO2

>  <Name>  (834) 
nan

>  <Pocket>  (834) 
nan

>  <ATP_Site>  (834) 
nan

>  <Peripheral>  (834) 
nan

>  <Num_H_Atoms_ProtBoundConf>  (834) 
nan

>  <Num_Resolved_Atoms>  (834) 
nan

>  <Num_Not_Resolved_Atoms>  (834) 
nan

$$$$
CHEMBL3701732
     RDKit          3D

  0  0  0  0  0  0  0  0  0  0999 V3000
M  V30 BEGIN CTAB
M  V30 COUNTS 65 71 0 0 0
M  V30 BEGIN ATOM
M  V30 1 C 4.835440 -2.881686 0.489033 0
M  V30 2 O 4.378611 -1.615657 0.894048 0
M  V30 3 C 5.182213 -0.620128 1.441858 0
M  V30 4 C 6.537882 -0.797713 1.640083 0
M  V30 5 C 7.268358 0.254452 2.195528 0
M  V30 6 C 6.633150 1.432978 2.530738 0
M  V30 7 C 5.285148 1.622436 2.338682 0
M  V30 8 C 4.556127 0.578849 1.786897 0
M  V30 9 C 3.120326 0.742284 1.565736 0
M  V30 10 N 2.186203 -0.089906 1.056595 0
M  V30 11 C 0.986598 0.557396 1.071482 0
M  V30 12 C -0.249462 -0.076050 0.582641 0
M  V30 13 C -0.725745 -1.236319 1.156272 0
M  V30 14 C -1.874409 -1.877890 0.748583 0
M  V30 15 C -2.604150 -1.364414 -0.275305 0
M  V30 16 C -3.856557 -1.844157 -0.902373 0
M  V30 17 N -4.795926 -0.745786 -1.047106 0
M  V30 18 C -4.460972 -3.096236 -0.368507 0
M  V30 19 C -3.845331 -3.870586 -1.522563 0
M  V30 20 O -2.696928 -4.589183 -1.127723 0
M  V30 21 C -4.813978 -4.693399 -2.309284 0
M  V30 22 C -5.599878 -5.779883 -1.666907 0
M  V30 23 C -4.403588 -6.126778 -2.538436 0
M  V30 24 C -3.540803 -2.561836 -2.192286 0
M  V30 25 C -2.141140 -0.186703 -0.874364 0
M  V30 26 C -0.996249 0.443975 -0.460613 0
M  V30 27 C 1.211487 1.817158 1.606843 0
M  V30 28 C 0.104073 2.775774 1.758710 0
M  V30 29 C -1.031282 2.678561 2.517125 0
M  V30 30 C -1.928805 3.726059 2.488854 0
M  V30 31 C -1.726913 4.857215 1.732152 0
M  V30 32 C -0.571057 4.948088 0.964739 0
M  V30 33 C 0.334177 3.898298 0.989471 0
M  V30 34 N 2.517631 1.910123 1.901529 0
M  V30 35 C 3.241209 3.016394 2.474979 0
M  V30 36 O 4.599049 2.766905 2.650675 0
M  V30 37 H 4.168870 -3.270862 -0.321752 0
M  V30 38 H 4.877643 -3.629547 1.310575 0
M  V30 39 H 5.857707 -2.779647 0.075236 0
M  V30 40 H 7.020576 -1.720152 1.374383 0
M  V30 41 H 8.337090 0.176746 2.375902 0
M  V30 42 H 7.211352 2.252708 2.965437 0
M  V30 43 H -0.204380 -1.707736 1.974410 0
M  V30 44 H -2.283742 -2.780083 1.162290 0
M  V30 45 H -4.420304 0.125976 -0.631897 0
M  V30 46 H -5.660946 -1.004978 -0.520748 0
M  V30 47 H -5.564244 -3.110383 -0.496127 0
M  V30 48 H -4.094961 -3.497305 0.583120 0
M  V30 49 H -1.951971 -4.438929 -1.758191 0
M  V30 50 H -5.258075 -4.193522 -3.190756 0
M  V30 51 H -6.564409 -6.032507 -2.146785 0
M  V30 52 H -5.551104 -5.990947 -0.590477 0
M  V30 53 H -4.579645 -6.561148 -3.546697 0
M  V30 54 H -3.515611 -6.531035 -2.012032 0
M  V30 55 H -4.230421 -2.296071 -3.026710 0
M  V30 56 H -2.483328 -2.518113 -2.494152 0
M  V30 57 H -2.625987 0.335741 -1.705592 0
M  V30 58 H -0.606511 1.354250 -0.897557 0
M  V30 59 H -1.095706 1.762417 3.068602 0
M  V30 60 H -2.811683 3.609279 3.101543 0
M  V30 61 H -2.446889 5.654563 1.733479 0
M  V30 62 H -0.464461 5.848427 0.396072 0
M  V30 63 H 1.183575 4.102485 0.348690 0
M  V30 64 H 3.143578 3.875929 1.749201 0
M  V30 65 H 2.818413 3.384001 3.427537 0
M  V30 END ATOM
M  V30 BEGIN BOND
M  V30 1 1 1 2
M  V30 2 1 2 3
M  V30 3 2 3 4
M  V30 4 1 4 5
M  V30 5 2 5 6
M  V30 6 1 6 7
M  V30 7 2 7 8
M  V30 8 1 8 9
M  V30 9 2 9 10
M  V30 10 1 10 11
M  V30 11 1 11 12
M  V30 12 2 12 13
M  V30 13 1 13 14
M  V30 14 2 14 15
M  V30 15 1 15 16
M  V30 16 1 16 17
M  V30 17 1 16 18
M  V30 18 1 18 19
M  V30 19 1 19 20
M  V30 20 1 19 21
M  V30 21 1 21 22
M  V30 22 1 22 23
M  V30 23 1 19 24
M  V30 24 1 15 25
M  V30 25 2 25 26
M  V30 26 2 11 27
M  V30 27 1 27 28
M  V30 28 2 28 29
M  V30 29 1 29 30
M  V30 30 2 30 31
M  V30 31 1 31 32
M  V30 32 2 32 33
M  V30 33 1 27 34
M  V30 34 1 34 35
M  V30 35 1 35 36
M  V30 36 1 8 3
M  V30 37 1 34 9
M  V30 38 1 36 7
M  V30 39 1 26 12
M  V30 40 1 33 28
M  V30 41 1 24 16
M  V30 42 1 23 21
M  V30 43 1 1 37
M  V30 44 1 1 38
M  V30 45 1 1 39
M  V30 46 1 4 40
M  V30 47 1 5 41
M  V30 48 1 6 42
M  V30 49 1 13 43
M  V30 50 1 14 44
M  V30 51 1 17 45
M  V30 52 1 17 46
M  V30 53 1 18 47
M  V30 54 1 18 48
M  V30 55 1 20 49
M  V30 56 1 21 50
M  V30 57 1 22 51
M  V30 58 1 22 52
M  V30 59 1 23 53
M  V30 60 1 23 54
M  V30 61 1 24 55
M  V30 62 1 24 56
M  V30 63 1 25 57
M  V30 64 1 26 58
M  V30 65 1 29 59
M  V30 66 1 30 60
M  V30 67 1 31 61
M  V30 68 1 32 62
M  V30 69 1 33 63
M  V30 70 1 35 64
M  V30 71 1 35 65
M  V30 END BOND
M  V30 END CTAB
M  END
>  <Dataset>  (835) 
ChEMBL_Kinases

>  <Ligand_Instance>  (835) 
nan

>  <PDB_ID>  (835) 
nan

>  <Standardized_SMILES>  (835) 
COc1cccc2c1-c1nc(-c3ccc(C4(N)CC(O)(C5CC5)C4)cc3)c(-c3ccccc3)n1CO2

>  <Name>  (835) 
nan

>  <Pocket>  (835) 
nan

>  <ATP_Site>  (835) 
nan

>  <Peripheral>  (835) 
nan

>  <Num_H_Atoms_ProtBoundConf>  (835) 
nan

>  <Num_Resolved_Atoms>  (835) 
nan

>  <Num_Not_Resolved_Atoms>  (835) 
nan

$$$$
CHEMBL3701731
     RDKit          3D

  0  0  0  0  0  0  0  0  0  0999 V3000
M  V30 BEGIN CTAB
M  V30 COUNTS 52 57 0 0 0
M  V30 BEGIN ATOM
M  V30 1 N -3.815398 -1.469052 4.446475 0
M  V30 2 C -3.092805 -2.549615 3.806399 0
M  V30 3 C -2.064735 -2.026151 2.867413 0
M  V30 4 C -2.567850 -0.987571 2.073298 0
M  V30 5 C -1.781288 -0.353740 1.128829 0
M  V30 6 C -0.468024 -0.745581 0.956073 0
M  V30 7 C 0.455335 -0.149435 -0.009790 0
M  V30 8 N 0.015259 -0.305714 -1.296172 0
M  V30 9 C 0.923925 0.271832 -2.124129 0
M  V30 10 N 1.905241 0.773528 -1.349435 0
M  V30 11 C 1.653128 0.534811 -0.047251 0
M  V30 12 C 2.267218 0.790577 1.232017 0
M  V30 13 C 3.533057 0.226546 1.425173 0
M  V30 14 C 4.198602 0.421663 2.628117 0
M  V30 15 N 3.637444 1.153820 3.622526 0
M  V30 16 C 2.412400 1.704538 3.446526 0
M  V30 17 C 1.691926 1.545237 2.260554 0
M  V30 18 C 3.099330 1.483653 -1.768415 0
M  V30 19 O 3.178368 1.631088 -3.174167 0
M  V30 20 C 2.211653 1.144552 -4.043342 0
M  V30 21 C 2.328592 1.311607 -5.421557 0
M  V30 22 C 1.372313 0.831049 -6.292457 0
M  V30 23 C 0.271881 0.166125 -5.760413 0
M  V30 24 C 0.112682 -0.024483 -4.388913 0
M  V30 25 C 1.104762 0.479374 -3.557833 0
M  V30 26 C 0.019002 -1.770619 1.743845 0
M  V30 27 C -0.752363 -2.413715 2.690897 0
M  V30 28 C -2.680107 -3.658782 4.705572 0
M  V30 29 C -3.351413 -4.620265 3.717161 0
M  V30 30 C -4.099938 -3.460242 3.090765 0
M  V30 31 H -4.567366 -1.075292 3.837527 0
M  V30 32 H -4.311347 -1.913131 5.265128 0
M  V30 33 H -3.587086 -0.587724 2.114741 0
M  V30 34 H -2.144612 0.452463 0.500930 0
M  V30 35 H 4.026205 -0.366905 0.663547 0
M  V30 36 H 5.181997 0.015758 2.850058 0
M  V30 37 H 1.961413 2.294315 4.249120 0
M  V30 38 H 0.729536 1.960974 2.084586 0
M  V30 39 H 4.043472 0.947675 -1.465394 0
M  V30 40 H 3.077822 2.515828 -1.366969 0
M  V30 41 H 3.185849 1.830607 -5.850905 0
M  V30 42 H 1.387566 0.917642 -7.361053 0
M  V30 43 H -0.506159 -0.231234 -6.381610 0
M  V30 44 H -0.752187 -0.545515 -3.992801 0
M  V30 45 H 1.044945 -2.160948 1.690470 0
M  V30 46 H -0.467022 -3.209764 3.341541 0
M  V30 47 H -3.259004 -3.659662 5.673149 0
M  V30 48 H -1.624078 -3.831608 4.900240 0
M  V30 49 H -2.622232 -5.028018 2.968215 0
M  V30 50 H -4.001787 -5.381737 4.169949 0
M  V30 51 H -5.118021 -3.385144 3.490312 0
M  V30 52 H -4.031761 -3.390159 1.995139 0
M  V30 END ATOM
M  V30 BEGIN BOND
M  V30 1 1 1 2
M  V30 2 1 2 3
M  V30 3 2 3 4
M  V30 4 1 4 5
M  V30 5 2 5 6
M  V30 6 1 6 7
M  V30 7 1 7 8
M  V30 8 2 8 9
M  V30 9 1 9 10
M  V30 10 1 10 11
M  V30 11 1 11 12
M  V30 12 2 12 13
M  V30 13 1 13 14
M  V30 14 2 14 15
M  V30 15 1 15 16
M  V30 16 2 16 17
M  V30 17 1 10 18
M  V30 18 1 18 19
M  V30 19 1 19 20
M  V30 20 2 20 21
M  V30 21 1 21 22
M  V30 22 2 22 23
M  V30 23 1 23 24
M  V30 24 2 24 25
M  V30 25 1 6 26
M  V30 26 2 26 27
M  V30 27 1 2 28
M  V30 28 1 28 29
M  V30 29 1 29 30
M  V30 30 1 30 2
M  V30 31 1 27 3
M  V30 32 2 11 7
M  V30 33 1 17 12
M  V30 34 1 25 20
M  V30 35 1 25 9
M  V30 36 1 1 31
M  V30 37 1 1 32
M  V30 38 1 4 33
M  V30 39 1 5 34
M  V30 40 1 13 35
M  V30 41 1 14 36
M  V30 42 1 16 37
M  V30 43 1 17 38
M  V30 44 1 18 39
M  V30 45 1 18 40
M  V30 46 1 21 41
M  V30 47 1 22 42
M  V30 48 1 23 43
M  V30 49 1 24 44
M  V30 50 1 26 45
M  V30 51 1 27 46
M  V30 52 1 28 47
M  V30 53 1 28 48
M  V30 54 1 29 49
M  V30 55 1 29 50
M  V30 56 1 30 51
M  V30 57 1 30 52
M  V30 END BOND
M  V30 END CTAB
M  END
>  <Dataset>  (836) 
ChEMBL_Kinases

>  <Ligand_Instance>  (836) 
nan

>  <PDB_ID>  (836) 
nan

>  <Standardized_SMILES>  (836) 
NC1(c2ccc(-c3nc4n(c3-c3ccncc3)COc3ccccc3-4)cc2)CCC1

>  <Name>  (836) 
nan

>  <Pocket>  (836) 
nan

>  <ATP_Site>  (836) 
nan

>  <Peripheral>  (836) 
nan

>  <Num_H_Atoms_ProtBoundConf>  (836) 
nan

>  <Num_Resolved_Atoms>  (836) 
nan

>  <Num_Not_Resolved_Atoms>  (836) 
nan

$$$$
CHEMBL3109932
     RDKit          3D

  0  0  0  0  0  0  0  0  0  0999 V3000
M  V30 BEGIN CTAB
M  V30 COUNTS 42 45 0 0 0
M  V30 BEGIN ATOM
M  V30 1 C 0.805486 -5.259257 6.087039 0
M  V30 2 O 0.701117 -4.859544 4.736195 0
M  V30 3 C 0.240234 -3.620999 4.316260 0
M  V30 4 C -0.183330 -2.598334 5.126976 0
M  V30 5 C -0.624630 -1.400609 4.597593 0
M  V30 6 C -0.641710 -1.224569 3.233578 0
M  V30 7 N -1.095942 0.000638 2.641459 0
M  V30 8 C -1.084790 0.319583 1.257209 0
M  V30 9 C 0.060373 1.002634 0.872830 0
M  V30 10 C 0.261317 1.403206 -0.452362 0
M  V30 11 N 1.269776 2.070203 -1.074947 0
M  V30 12 C 0.957868 2.200041 -2.378912 0
M  V30 13 C 1.807226 2.868078 -3.357685 0
M  V30 14 C 3.024429 3.463176 -3.107966 0
M  V30 15 N 3.493509 3.969443 -4.275235 0
M  V30 16 N 2.616471 3.717036 -5.260227 0
M  V30 17 C 1.603925 3.054875 -4.706076 0
M  V30 18 C -0.267307 1.611752 -2.612018 0
M  V30 19 C -0.712976 1.107959 -1.406865 0
M  V30 20 C -1.834944 0.423176 -0.960954 0
M  V30 21 N -2.028245 0.038444 0.312360 0
M  V30 22 C -0.214027 -2.253976 2.396809 0
M  V30 23 C 0.232664 -3.466305 2.931801 0
M  V30 24 O 0.648371 -4.462525 2.065876 0
M  V30 25 C 0.612654 -4.233408 0.686303 0
M  V30 26 H -0.071519 -5.879799 6.381824 0
M  V30 27 H 1.713412 -5.915159 6.241966 0
M  V30 28 H 0.967489 -4.406571 6.780549 0
M  V30 29 H -0.154220 -2.775595 6.196745 0
M  V30 30 H -0.956739 -0.597751 5.216612 0
M  V30 31 H -1.475633 0.737177 3.298509 0
M  V30 32 H 0.873575 1.274635 1.554663 0
M  V30 33 H 2.133678 2.416789 -0.608183 0
M  V30 34 H 3.548302 3.536474 -2.161229 0
M  V30 35 H 2.842859 4.048596 -6.222754 0
M  V30 36 H 0.745967 2.723268 -5.279723 0
M  V30 37 H -0.812746 1.531504 -3.525596 0
M  V30 38 H -2.607995 0.181220 -1.677353 0
M  V30 39 H -0.249559 -2.055249 1.329888 0
M  V30 40 H 1.100839 -3.269936 0.411992 0
M  V30 41 H 1.072970 -5.036538 0.092327 0
M  V30 42 H -0.453309 -4.176330 0.332431 0
M  V30 END ATOM
M  V30 BEGIN BOND
M  V30 1 1 1 2
M  V30 2 1 2 3
M  V30 3 2 3 4
M  V30 4 1 4 5
M  V30 5 2 5 6
M  V30 6 1 6 7
M  V30 7 1 7 8
M  V30 8 2 8 9
M  V30 9 1 9 10
M  V30 10 1 10 11
M  V30 11 1 11 12
M  V30 12 1 12 13
M  V30 13 1 13 14
M  V30 14 2 14 15
M  V30 15 1 15 16
M  V30 16 1 16 17
M  V30 17 2 12 18
M  V30 18 1 18 19
M  V30 19 1 19 20
M  V30 20 2 20 21
M  V30 21 1 6 22
M  V30 22 2 22 23
M  V30 23 1 23 24
M  V30 24 1 24 25
M  V30 25 1 23 3
M  V30 26 1 21 8
M  V30 27 2 19 10
M  V30 28 2 17 13
M  V30 29 1 1 26
M  V30 30 1 1 27
M  V30 31 1 1 28
M  V30 32 1 4 29
M  V30 33 1 5 30
M  V30 34 1 7 31
M  V30 35 1 9 32
M  V30 36 1 11 33
M  V30 37 1 14 34
M  V30 38 1 16 35
M  V30 39 1 17 36
M  V30 40 1 18 37
M  V30 41 1 20 38
M  V30 42 1 22 39
M  V30 43 1 25 40
M  V30 44 1 25 41
M  V30 45 1 25 42
M  V30 END BOND
M  V30 END CTAB
M  END
>  <Dataset>  (837) 
ChEMBL_Kinases

>  <Ligand_Instance>  (837) 
nan

>  <PDB_ID>  (837) 
nan

>  <Standardized_SMILES>  (837) 
COc1ccc(Nc2cc3[nH]c(-c4cn[nH]c4)cc3cn2)cc1OC

>  <Name>  (837) 
nan

>  <Pocket>  (837) 
nan

>  <ATP_Site>  (837) 
nan

>  <Peripheral>  (837) 
nan

>  <Num_H_Atoms_ProtBoundConf>  (837) 
nan

>  <Num_Resolved_Atoms>  (837) 
nan

>  <Num_Not_Resolved_Atoms>  (837) 
nan

$$$$
CHEMBL3701730
     RDKit          3D

  0  0  0  0  0  0  0  0  0  0999 V3000
M  V30 BEGIN CTAB
M  V30 COUNTS 50 55 0 0 0
M  V30 BEGIN ATOM
M  V30 1 N -4.812069 -1.217980 -1.633685 0
M  V30 2 C -3.677734 -2.044101 -2.004324 0
M  V30 3 C -2.457636 -1.588999 -1.334339 0
M  V30 4 C -1.270124 -1.332036 -1.985248 0
M  V30 5 C -0.137476 -0.905096 -1.323894 0
M  V30 6 C -0.152642 -0.715826 0.041281 0
M  V30 7 C 0.901636 -0.273602 0.947491 0
M  V30 8 N 1.383618 -1.138082 1.881646 0
M  V30 9 C 2.337973 -0.542920 2.607250 0
M  V30 10 N 2.459453 0.711870 2.125133 0
M  V30 11 C 1.595527 0.905932 1.111150 0
M  V30 12 C 1.355892 2.079355 0.282963 0
M  V30 13 C 0.771917 3.221231 0.707877 0
M  V30 14 C 0.578362 4.275051 -0.085157 0
M  V30 15 S 1.230153 3.808882 -1.677156 0
M  V30 16 C 1.746813 2.120602 -1.114972 0
M  V30 17 C 3.379517 1.717826 2.614634 0
M  V30 18 O 4.181477 1.263351 3.687296 0
M  V30 19 C 4.110362 -0.011349 4.232938 0
M  V30 20 C 4.932406 -0.394936 5.294071 0
M  V30 21 C 4.846666 -1.667782 5.823215 0
M  V30 22 C 3.937076 -2.555019 5.288328 0
M  V30 23 C 3.117881 -2.193176 4.240776 0
M  V30 24 C 3.209221 -0.920011 3.717443 0
M  V30 25 C -1.350228 -0.971423 0.723563 0
M  V30 26 C -2.488485 -1.404311 0.031777 0
M  V30 27 C -3.651291 -2.255716 -3.474879 0
M  V30 28 C -4.436284 -3.561169 -3.316991 0
M  V30 29 C -4.056234 -3.493403 -1.833378 0
M  V30 30 H -5.047704 -1.310649 -0.622680 0
M  V30 31 H -4.771121 -0.251338 -1.995210 0
M  V30 32 H -1.200875 -1.463251 -3.055865 0
M  V30 33 H 0.819186 -0.688156 -1.762055 0
M  V30 34 H 0.419743 3.362052 1.721379 0
M  V30 35 H 0.148114 5.264009 0.024229 0
M  V30 36 H 2.263705 1.197082 -1.600107 0
M  V30 37 H 2.829380 2.613948 3.008054 0
M  V30 38 H 4.114041 2.015876 1.815574 0
M  V30 39 H 5.626131 0.359821 5.664151 0
M  V30 40 H 5.493236 -1.941155 6.644048 0
M  V30 41 H 3.834048 -3.560315 5.668866 0
M  V30 42 H 2.393126 -2.902048 3.815318 0
M  V30 43 H -1.492422 -0.862044 1.789192 0
M  V30 44 H -3.420245 -1.602062 0.570790 0
M  V30 45 H -2.709093 -2.477500 -3.973203 0
M  V30 46 H -4.284332 -1.543046 -4.070584 0
M  V30 47 H -5.518693 -3.473306 -3.505102 0
M  V30 48 H -3.972063 -4.444674 -3.787092 0
M  V30 49 H -3.241692 -4.183867 -1.552170 0
M  V30 50 H -4.966694 -3.667977 -1.203074 0
M  V30 END ATOM
M  V30 BEGIN BOND
M  V30 1 1 1 2
M  V30 2 1 2 3
M  V30 3 2 3 4
M  V30 4 1 4 5
M  V30 5 2 5 6
M  V30 6 1 6 7
M  V30 7 1 7 8
M  V30 8 2 8 9
M  V30 9 1 9 10
M  V30 10 1 10 11
M  V30 11 1 11 12
M  V30 12 1 12 13
M  V30 13 2 13 14
M  V30 14 1 14 15
M  V30 15 1 15 16
M  V30 16 1 10 17
M  V30 17 1 17 18
M  V30 18 1 18 19
M  V30 19 2 19 20
M  V30 20 1 20 21
M  V30 21 2 21 22
M  V30 22 1 22 23
M  V30 23 2 23 24
M  V30 24 1 6 25
M  V30 25 2 25 26
M  V30 26 1 2 27
M  V30 27 1 27 28
M  V30 28 1 28 29
M  V30 29 1 29 2
M  V30 30 1 26 3
M  V30 31 2 11 7
M  V30 32 2 16 12
M  V30 33 1 24 19
M  V30 34 1 24 9
M  V30 35 1 1 30
M  V30 36 1 1 31
M  V30 37 1 4 32
M  V30 38 1 5 33
M  V30 39 1 13 34
M  V30 40 1 14 35
M  V30 41 1 16 36
M  V30 42 1 17 37
M  V30 43 1 17 38
M  V30 44 1 20 39
M  V30 45 1 21 40
M  V30 46 1 22 41
M  V30 47 1 23 42
M  V30 48 1 25 43
M  V30 49 1 26 44
M  V30 50 1 27 45
M  V30 51 1 27 46
M  V30 52 1 28 47
M  V30 53 1 28 48
M  V30 54 1 29 49
M  V30 55 1 29 50
M  V30 END BOND
M  V30 END CTAB
M  END
>  <Dataset>  (838) 
ChEMBL_Kinases

>  <Ligand_Instance>  (838) 
nan

>  <PDB_ID>  (838) 
nan

>  <Standardized_SMILES>  (838) 
NC1(c2ccc(-c3nc4n(c3-c3ccsc3)COc3ccccc3-4)cc2)CCC1

>  <Name>  (838) 
nan

>  <Pocket>  (838) 
nan

>  <ATP_Site>  (838) 
nan

>  <Peripheral>  (838) 
nan

>  <Num_H_Atoms_ProtBoundConf>  (838) 
nan

>  <Num_Resolved_Atoms>  (838) 
nan

>  <Num_Not_Resolved_Atoms>  (838) 
nan

$$$$
CHEMBL4279336
     RDKit          3D

  0  0  0  0  0  0  0  0  0  0999 V3000
M  V30 BEGIN CTAB
M  V30 COUNTS 39 42 0 0 0
M  V30 BEGIN ATOM
M  V30 1 N -1.287215 -5.610092 4.392186 0
M  V30 2 C -1.210170 -4.552394 3.430155 0
M  V30 3 N -0.135975 -3.721860 3.480343 0
M  V30 4 C -0.003740 -2.702653 2.599409 0
M  V30 5 O 1.015549 -1.874938 2.608688 0
M  V30 6 C 1.156769 -0.885627 1.763816 0
M  V30 7 C 2.267347 -0.074100 1.861299 0
M  V30 8 C 2.407904 0.966213 0.966563 0
M  V30 9 C 1.525029 1.277233 -0.035918 0
M  V30 10 C 1.695830 2.378854 -0.964571 0
M  V30 11 C 0.835451 2.660374 -1.926587 0
M  V30 12 C 1.154306 3.823825 -2.796470 0
M  V30 13 O 1.283829 4.914024 -1.936697 0
M  V30 14 C 2.434449 4.756769 -1.204139 0
M  V30 15 C 2.838411 3.323733 -0.961878 0
M  V30 16 C 0.433940 0.444446 -0.097369 0
M  V30 17 C 0.244685 -0.606810 0.769228 0
M  V30 18 C -0.850634 -1.439958 0.704785 0
M  V30 19 O -1.713148 -1.230641 -0.183168 0
M  V30 20 C -0.965076 -2.473266 1.613500 0
M  V30 21 C -2.075095 -3.319319 1.549860 0
M  V30 22 C -2.176431 -4.348936 2.465420 0
M  V30 23 C -3.321401 -5.221396 2.399524 0
M  V30 24 O -4.243687 -5.102174 1.551259 0
M  V30 25 O -3.494005 -6.277071 3.283597 0
M  V30 26 H -1.788022 -5.702401 5.303564 0
M  V30 27 H -0.843277 -6.572734 4.406885 0
M  V30 28 H 2.997478 -0.272576 2.633547 0
M  V30 29 H 3.302870 1.553428 1.108661 0
M  V30 30 H -0.056162 2.078790 -2.078829 0
M  V30 31 H 0.276711 4.032165 -3.425682 0
M  V30 32 H 2.075023 3.655129 -3.390683 0
M  V30 33 H 3.268800 5.267413 -1.741663 0
M  V30 34 H 2.236594 5.192009 -0.197610 0
M  V30 35 H 3.404051 3.213063 -0.030841 0
M  V30 36 H 3.522412 2.969053 -1.784545 0
M  V30 37 H -0.354893 0.547595 -0.824000 0
M  V30 38 H -2.844469 -3.180382 0.804021 0
M  V30 39 H -4.427074 -6.525592 3.630451 0
M  V30 END ATOM
M  V30 BEGIN BOND
M  V30 1 1 1 2
M  V30 2 2 2 3
M  V30 3 1 3 4
M  V30 4 1 4 5
M  V30 5 1 5 6
M  V30 6 2 6 7
M  V30 7 1 7 8
M  V30 8 2 8 9
M  V30 9 1 9 10
M  V30 10 2 10 11
M  V30 11 1 11 12
M  V30 12 1 12 13
M  V30 13 1 13 14
M  V30 14 1 14 15
M  V30 15 1 9 16
M  V30 16 2 16 17
M  V30 17 1 17 18
M  V30 18 2 18 19
M  V30 19 1 18 20
M  V30 20 1 20 21
M  V30 21 2 21 22
M  V30 22 1 22 23
M  V30 23 2 23 24
M  V30 24 1 23 25
M  V30 25 1 22 2
M  V30 26 2 20 4
M  V30 27 1 17 6
M  V30 28 1 15 10
M  V30 29 1 1 26
M  V30 30 1 1 27
M  V30 31 1 7 28
M  V30 32 1 8 29
M  V30 33 1 11 30
M  V30 34 1 12 31
M  V30 35 1 12 32
M  V30 36 1 14 33
M  V30 37 1 14 34
M  V30 38 1 15 35
M  V30 39 1 15 36
M  V30 40 1 16 37
M  V30 41 1 21 38
M  V30 42 1 25 39
M  V30 END BOND
M  V30 END CTAB
M  END
>  <Dataset>  (839) 
ChEMBL_Kinases

>  <Ligand_Instance>  (839) 
nan

>  <PDB_ID>  (839) 
nan

>  <Standardized_SMILES>  (839) 
Nc1nc2oc3ccc(C4=CCOCC4)cc3c(=O)c2cc1C(=O)O

>  <Name>  (839) 
nan

>  <Pocket>  (839) 
nan

>  <ATP_Site>  (839) 
nan

>  <Peripheral>  (839) 
nan

>  <Num_H_Atoms_ProtBoundConf>  (839) 
nan

>  <Num_Resolved_Atoms>  (839) 
nan

>  <Num_Not_Resolved_Atoms>  (839) 
nan

$$$$
CHEMBL4277195
     RDKit          3D

  0  0  0  0  0  0  0  0  0  0999 V3000
M  V30 BEGIN CTAB
M  V30 COUNTS 33 35 0 0 0
M  V30 BEGIN ATOM
M  V30 1 C 1.009233 -4.961434 2.894039 0
M  V30 2 C -0.192423 -4.736703 2.436512 0
M  V30 3 C -1.231131 -5.780328 2.640381 0
M  V30 4 C -0.546694 -3.511450 1.740475 0
M  V30 5 C 0.406722 -2.522417 1.538332 0
M  V30 6 C 0.038303 -1.381899 0.879235 0
M  V30 7 C 0.923870 -0.353464 0.638330 0
M  V30 8 O 2.115410 -0.418985 1.015851 0
M  V30 9 C 0.484270 0.783308 -0.039608 0
M  V30 10 C 1.365320 1.819529 -0.285591 0
M  V30 11 C 0.817270 2.888279 -0.962064 0
M  V30 12 C 1.648063 4.042818 -1.279906 0
M  V30 13 O 1.168688 5.027644 -1.895797 0
M  V30 14 O 2.992441 4.192854 -0.962407 0
M  V30 15 C -0.492965 2.978492 -1.385986 0
M  V30 16 N -1.021927 4.083533 -2.074483 0
M  V30 17 N -1.318899 1.935448 -1.120706 0
M  V30 18 C -0.844828 0.852883 -0.459014 0
M  V30 19 O -1.698552 -0.139732 -0.226209 0
M  V30 20 C -1.245594 -1.189170 0.413324 0
M  V30 21 C -2.184251 -2.200004 0.630304 0
M  V30 22 N -1.783516 -3.306098 1.282113 0
M  V30 23 H 0.937452 -5.942612 3.348274 0
M  V30 24 H 1.876213 -4.351650 2.850395 0
M  V30 25 H -2.100289 -5.407874 3.214275 0
M  V30 26 H -1.646044 -5.993690 1.612067 0
M  V30 27 H -0.803033 -6.722069 3.021179 0
M  V30 28 H 1.429341 -2.614073 1.879490 0
M  V30 29 H 2.391593 1.787153 0.027923 0
M  V30 30 H 3.312741 5.046197 -0.478867 0
M  V30 31 H -1.755595 4.762161 -1.791774 0
M  V30 32 H -0.883633 4.553159 -2.993689 0
M  V30 33 H -3.226576 -2.201877 0.328711 0
M  V30 END ATOM
M  V30 BEGIN BOND
M  V30 1 2 1 2
M  V30 2 1 2 3
M  V30 3 1 2 4
M  V30 4 2 4 5
M  V30 5 1 5 6
M  V30 6 1 6 7
M  V30 7 2 7 8
M  V30 8 1 7 9
M  V30 9 2 9 10
M  V30 10 1 10 11
M  V30 11 1 11 12
M  V30 12 2 12 13
M  V30 13 1 12 14
M  V30 14 2 11 15
M  V30 15 1 15 16
M  V30 16 1 15 17
M  V30 17 2 17 18
M  V30 18 1 18 19
M  V30 19 1 19 20
M  V30 20 1 20 21
M  V30 21 2 21 22
M  V30 22 1 22 4
M  V30 23 2 20 6
M  V30 24 1 18 9
M  V30 25 1 1 23
M  V30 26 1 1 24
M  V30 27 1 3 25
M  V30 28 1 3 26
M  V30 29 1 3 27
M  V30 30 1 5 28
M  V30 31 1 10 29
M  V30 32 1 14 30
M  V30 33 1 16 31
M  V30 34 1 16 32
M  V30 35 1 21 33
M  V30 END BOND
M  V30 END CTAB
M  END
>  <Dataset>  (840) 
ChEMBL_Kinases

>  <Ligand_Instance>  (840) 
nan

>  <PDB_ID>  (840) 
nan

>  <Standardized_SMILES>  (840) 
C=C(C)c1cc2c(=O)c3cc(C(=O)O)c(N)nc3oc2cn1

>  <Name>  (840) 
nan

>  <Pocket>  (840) 
nan

>  <ATP_Site>  (840) 
nan

>  <Peripheral>  (840) 
nan

>  <Num_H_Atoms_ProtBoundConf>  (840) 
nan

>  <Num_Resolved_Atoms>  (840) 
nan

>  <Num_Not_Resolved_Atoms>  (840) 
nan

$$$$
CHEMBL4277134
     RDKit          3D

  0  0  0  0  0  0  0  0  0  0999 V3000
M  V30 BEGIN CTAB
M  V30 COUNTS 48 51 0 0 0
M  V30 BEGIN ATOM
M  V30 1 O -1.845741 -1.714269 -0.189736 0
M  V30 2 C -2.291636 -1.627386 -1.365834 0
M  V30 3 N -1.638575 -0.868323 -2.351611 0
M  V30 4 C -0.450057 -0.211321 -1.928502 0
M  V30 5 C -0.592166 1.065589 -1.426885 0
M  V30 6 C 0.514433 1.799873 -0.981946 0
M  V30 7 C 1.787925 1.272901 -1.029117 0
M  V30 8 C 2.897145 2.089822 -0.550451 0
M  V30 9 O 2.592935 3.236264 -0.131331 0
M  V30 10 N 4.246779 1.693452 -0.526319 0
M  V30 11 C 5.390407 2.424605 -0.076451 0
M  V30 12 C 5.399678 2.413261 1.410219 0
M  V30 13 C 4.820429 3.357946 2.229687 0
M  V30 14 C 4.860235 3.289104 3.603824 0
M  V30 15 C 5.511169 2.223456 4.182769 0
M  V30 16 C 6.098764 1.265122 3.408271 0
M  V30 17 C 6.048656 1.350819 2.049005 0
M  V30 18 C 1.897497 -0.002007 -1.534274 0
M  V30 19 C 0.822184 -0.741979 -1.977378 0
M  V30 20 N -3.497454 -2.336727 -1.661289 0
M  V30 21 C -4.127693 -3.118649 -0.569058 0
M  V30 22 N -4.894386 -2.794635 0.186570 0
M  V30 23 C -5.500971 -3.413957 1.177289 0
M  V30 24 C -6.447601 -3.001405 2.105144 0
M  V30 25 C -6.920758 -3.860844 3.047236 0
M  V30 26 C -6.524075 -5.188949 3.176865 0
M  V30 27 O -6.968921 -6.107322 4.111923 0
M  V30 28 C -5.581924 -5.655257 2.278425 0
M  V30 29 C -5.133879 -4.706741 1.325905 0
M  V30 30 S -3.883948 -4.950174 -0.033561 0
M  V30 31 H -2.031013 -0.815510 -3.316640 0
M  V30 32 H -1.591507 1.528029 -1.370208 0
M  V30 33 H 0.292453 2.801478 -0.602896 0
M  V30 34 H 4.391609 0.713782 -0.900616 0
M  V30 35 H 6.317929 1.942382 -0.415293 0
M  V30 36 H 5.430891 3.461866 -0.476664 0
M  V30 37 H 4.322930 4.176865 1.765056 0
M  V30 38 H 4.386870 4.061335 4.198041 0
M  V30 39 H 5.576645 2.113645 5.246342 0
M  V30 40 H 6.623547 0.406476 3.828361 0
M  V30 41 H 6.519526 0.582749 1.427587 0
M  V30 42 H 2.870518 -0.444274 -1.586336 0
M  V30 43 H 0.926468 -1.736498 -2.368977 0
M  V30 44 H -3.894410 -2.283353 -2.633678 0
M  V30 45 H -6.851978 -1.997447 2.130055 0
M  V30 46 H -7.674255 -3.538882 3.788612 0
M  V30 47 H -6.311712 -6.700520 4.619490 0
M  V30 48 H -5.148941 -6.621600 2.203104 0
M  V30 END ATOM
M  V30 BEGIN BOND
M  V30 1 2 1 2
M  V30 2 1 2 3
M  V30 3 1 3 4
M  V30 4 2 4 5
M  V30 5 1 5 6
M  V30 6 2 6 7
M  V30 7 1 7 8
M  V30 8 2 8 9
M  V30 9 1 8 10
M  V30 10 1 10 11
M  V30 11 1 11 12
M  V30 12 2 12 13
M  V30 13 1 13 14
M  V30 14 2 14 15
M  V30 15 1 15 16
M  V30 16 2 16 17
M  V30 17 1 7 18
M  V30 18 2 18 19
M  V30 19 1 2 20
M  V30 20 1 20 21
M  V30 21 2 21 22
M  V30 22 1 22 23
M  V30 23 2 23 24
M  V30 24 1 24 25
M  V30 25 2 25 26
M  V30 26 1 26 27
M  V30 27 1 26 28
M  V30 28 2 28 29
M  V30 29 1 29 30
M  V30 30 1 19 4
M  V30 31 1 30 21
M  V30 32 1 17 12
M  V30 33 1 29 23
M  V30 34 1 3 31
M  V30 35 1 5 32
M  V30 36 1 6 33
M  V30 37 1 10 34
M  V30 38 1 11 35
M  V30 39 1 11 36
M  V30 40 1 13 37
M  V30 41 1 14 38
M  V30 42 1 15 39
M  V30 43 1 16 40
M  V30 44 1 17 41
M  V30 45 1 18 42
M  V30 46 1 19 43
M  V30 47 1 20 44
M  V30 48 1 24 45
M  V30 49 1 25 46
M  V30 50 1 27 47
M  V30 51 1 28 48
M  V30 END BOND
M  V30 END CTAB
M  END
>  <Dataset>  (841) 
ChEMBL_Kinases

>  <Ligand_Instance>  (841) 
nan

>  <PDB_ID>  (841) 
nan

>  <Standardized_SMILES>  (841) 
O=C(Nc1ccc(C(=O)NCc2ccccc2)cc1)Nc1nc2ccc(O)cc2s1

>  <Name>  (841) 
nan

>  <Pocket>  (841) 
nan

>  <ATP_Site>  (841) 
nan

>  <Peripheral>  (841) 
nan

>  <Num_H_Atoms_ProtBoundConf>  (841) 
nan

>  <Num_Resolved_Atoms>  (841) 
nan

>  <Num_Not_Resolved_Atoms>  (841) 
nan

$$$$
CHEMBL3110144
     RDKit          3D

  0  0  0  0  0  0  0  0  0  0999 V3000
M  V30 BEGIN CTAB
M  V30 COUNTS 36 40 0 0 0
M  V30 BEGIN ATOM
M  V30 1 C 1.707707 -2.616639 3.435480 0
M  V30 2 C 1.330859 -1.698389 2.331379 0
M  V30 3 N 2.084211 -0.725231 1.770335 0
M  V30 4 N 1.438701 -0.095056 0.808206 0
M  V30 5 C 2.033779 0.968380 0.074567 0
M  V30 6 C 2.532439 0.578226 -1.173606 0
M  V30 7 C 3.147231 1.470542 -2.033561 0
M  V30 8 C 3.258100 2.784875 -1.618454 0
M  V30 9 Cl 4.029934 3.984926 -2.658649 0
M  V30 10 C 2.773229 3.195314 -0.389428 0
M  V30 11 C 2.159736 2.303070 0.467811 0
M  V30 12 Cl 1.497989 2.644236 2.036923 0
M  V30 13 C 0.219539 -0.607604 0.669176 0
M  V30 14 C 0.154458 -1.607016 1.619752 0
M  V30 15 C -1.031840 -2.306626 1.682455 0
M  V30 16 C -2.081768 -2.012107 0.837454 0
M  V30 17 C -1.961870 -0.994678 -0.101912 0
M  V30 18 C -2.860289 -0.531133 -1.033445 0
M  V30 19 C -2.203947 0.493798 -1.696775 0
M  V30 20 C -0.951779 0.572545 -1.112788 0
M  V30 21 N -0.808452 -0.329820 -0.147740 0
M  V30 22 C -3.194467 -2.913317 1.137707 0
M  V30 23 O -4.337517 -2.947874 0.567821 0
M  V30 24 N -2.772327 -3.777714 2.212635 0
M  V30 25 C -1.440950 -3.402809 2.546608 0
M  V30 26 O -0.871906 -4.015831 3.451416 0
M  V30 27 H 1.806669 -3.671670 3.131102 0
M  V30 28 H 2.767239 -2.331789 3.720334 0
M  V30 29 H 1.147469 -2.445307 4.373994 0
M  V30 30 H 2.470192 -0.441308 -1.545889 0
M  V30 31 H 3.539826 1.215344 -2.990547 0
M  V30 32 H 2.837623 4.203322 -0.027403 0
M  V30 33 H -3.875351 -0.922235 -1.184318 0
M  V30 34 H -2.652780 1.053138 -2.485177 0
M  V30 35 H -0.256274 1.316631 -1.478633 0
M  V30 36 H -3.421747 -4.517065 2.598156 0
M  V30 END ATOM
M  V30 BEGIN BOND
M  V30 1 1 1 2
M  V30 2 2 2 3
M  V30 3 1 3 4
M  V30 4 1 4 5
M  V30 5 2 5 6
M  V30 6 1 6 7
M  V30 7 2 7 8
M  V30 8 1 8 9
M  V30 9 1 8 10
M  V30 10 2 10 11
M  V30 11 1 11 12
M  V30 12 1 4 13
M  V30 13 2 13 14
M  V30 14 1 14 15
M  V30 15 2 15 16
M  V30 16 1 16 17
M  V30 17 2 17 18
M  V30 18 1 18 19
M  V30 19 2 19 20
M  V30 20 1 20 21
M  V30 21 1 16 22
M  V30 22 2 22 23
M  V30 23 1 22 24
M  V30 24 1 24 25
M  V30 25 2 25 26
M  V30 26 1 14 2
M  V30 27 1 25 15
M  V30 28 1 11 5
M  V30 29 1 21 13
M  V30 30 1 21 17
M  V30 31 1 1 27
M  V30 32 1 1 28
M  V30 33 1 1 29
M  V30 34 1 6 30
M  V30 35 1 7 31
M  V30 36 1 10 32
M  V30 37 1 18 33
M  V30 38 1 19 34
M  V30 39 1 20 35
M  V30 40 1 24 36
M  V30 END BOND
M  V30 END CTAB
M  END
>  <Dataset>  (842) 
ChEMBL_Kinases

>  <Ligand_Instance>  (842) 
nan

>  <PDB_ID>  (842) 
nan

>  <Standardized_SMILES>  (842) 
Cc1nn(-c2ccc(Cl)cc2Cl)c2c1c1c(c3cccn32)C(=O)NC1=O

>  <Name>  (842) 
nan

>  <Pocket>  (842) 
nan

>  <ATP_Site>  (842) 
nan

>  <Peripheral>  (842) 
nan

>  <Num_H_Atoms_ProtBoundConf>  (842) 
nan

>  <Num_Resolved_Atoms>  (842) 
nan

>  <Num_Not_Resolved_Atoms>  (842) 
nan

$$$$
CHEMBL4276661
     RDKit          3D

  0  0  0  0  0  0  0  0  0  0999 V3000
M  V30 BEGIN CTAB
M  V30 COUNTS 41 44 0 0 0
M  V30 BEGIN ATOM
M  V30 1 N -1.601400 -5.345487 5.177590 0
M  V30 2 C -1.079722 -4.578206 4.106071 0
M  V30 3 N -1.137006 -3.209828 4.161763 0
M  V30 4 C -0.625985 -2.497102 3.113332 0
M  V30 5 O -0.697287 -1.192171 3.198904 0
M  V30 6 C -0.259179 -0.354345 2.290207 0
M  V30 7 C -0.380596 1.014795 2.472978 0
M  V30 8 C 0.102268 1.836024 1.476305 0
M  V30 9 C 0.700612 1.435073 0.301564 0
M  V30 10 C 1.193935 2.341289 -0.715963 0
M  V30 11 C 1.757529 1.894329 -1.837218 0
M  V30 12 C 2.265628 2.844335 -2.887213 0
M  V30 13 C 1.287942 3.966147 -3.119734 0
M  V30 14 C 0.661901 4.478727 -1.873668 0
M  V30 15 C 1.128621 3.813670 -0.603185 0
M  V30 16 C 0.785176 0.065352 0.192203 0
M  V30 17 C 0.331068 -0.830218 1.135567 0
M  V30 18 C 0.431963 -2.193658 0.993247 0
M  V30 19 O 0.951332 -2.688927 -0.019823 0
M  V30 20 C -0.046556 -3.024482 1.982040 0
M  V30 21 C 0.024689 -4.392494 1.899142 0
M  V30 22 C -0.495215 -5.087464 2.963817 0
M  V30 23 C -0.477149 -6.534606 2.976610 0
M  V30 24 O 0.046520 -7.118339 1.963273 0
M  V30 25 O -0.461720 -7.889720 2.991522 0
M  V30 26 H -2.308402 -5.970249 4.708398 0
M  V30 27 H -1.348313 -5.304178 6.189996 0
M  V30 28 H -0.837876 1.368235 3.368395 0
M  V30 29 H -0.028635 2.883092 1.694416 0
M  V30 30 H 1.876031 0.841297 -2.043327 0
M  V30 31 H 3.262617 3.180906 -2.592243 0
M  V30 32 H 2.384364 2.281912 -3.843898 0
M  V30 33 H 1.818520 4.771964 -3.667261 0
M  V30 34 H 0.513036 3.577343 -3.843365 0
M  V30 35 H 0.784997 5.598017 -1.774817 0
M  V30 36 H -0.436520 4.330277 -1.940456 0
M  V30 37 H 0.447070 4.108216 0.200195 0
M  V30 38 H 2.146323 4.240763 -0.403258 0
M  V30 39 H 1.223708 -0.419185 -0.659159 0
M  V30 40 H 0.465779 -4.878249 1.042115 0
M  V30 41 H -0.817231 -8.458902 3.780020 0
M  V30 END ATOM
M  V30 BEGIN BOND
M  V30 1 1 1 2
M  V30 2 2 2 3
M  V30 3 1 3 4
M  V30 4 1 4 5
M  V30 5 1 5 6
M  V30 6 2 6 7
M  V30 7 1 7 8
M  V30 8 2 8 9
M  V30 9 1 9 10
M  V30 10 2 10 11
M  V30 11 1 11 12
M  V30 12 1 12 13
M  V30 13 1 13 14
M  V30 14 1 14 15
M  V30 15 1 9 16
M  V30 16 2 16 17
M  V30 17 1 17 18
M  V30 18 2 18 19
M  V30 19 1 18 20
M  V30 20 1 20 21
M  V30 21 2 21 22
M  V30 22 1 22 23
M  V30 23 2 23 24
M  V30 24 1 23 25
M  V30 25 1 22 2
M  V30 26 2 20 4
M  V30 27 1 17 6
M  V30 28 1 15 10
M  V30 29 1 1 26
M  V30 30 1 1 27
M  V30 31 1 7 28
M  V30 32 1 8 29
M  V30 33 1 11 30
M  V30 34 1 12 31
M  V30 35 1 12 32
M  V30 36 1 13 33
M  V30 37 1 13 34
M  V30 38 1 14 35
M  V30 39 1 14 36
M  V30 40 1 15 37
M  V30 41 1 15 38
M  V30 42 1 16 39
M  V30 43 1 21 40
M  V30 44 1 25 41
M  V30 END BOND
M  V30 END CTAB
M  END
>  <Dataset>  (843) 
ChEMBL_Kinases

>  <Ligand_Instance>  (843) 
nan

>  <PDB_ID>  (843) 
nan

>  <Standardized_SMILES>  (843) 
Nc1nc2oc3ccc(C4=CCCCC4)cc3c(=O)c2cc1C(=O)O

>  <Name>  (843) 
nan

>  <Pocket>  (843) 
nan

>  <ATP_Site>  (843) 
nan

>  <Peripheral>  (843) 
nan

>  <Num_H_Atoms_ProtBoundConf>  (843) 
nan

>  <Num_Resolved_Atoms>  (843) 
nan

>  <Num_Not_Resolved_Atoms>  (843) 
nan

$$$$
CHEMBL3680486
     RDKit          3D

  0  0  0  0  0  0  0  0  0  0999 V3000
M  V30 BEGIN CTAB
M  V30 COUNTS 32 33 0 0 0
M  V30 BEGIN ATOM
M  V30 1 C -2.803549 -2.260177 4.297510 0
M  V30 2 C -1.297720 -2.105619 4.498563 0
M  V30 3 N -0.801973 -1.332140 3.364434 0
M  V30 4 N -0.376964 -1.887068 2.218530 0
M  V30 5 C 0.013340 -0.912990 1.377717 0
M  V30 6 C 0.533261 -1.155730 0.038140 0
M  V30 7 O 0.606823 -2.350318 -0.316799 0
M  V30 8 N 0.945187 -0.137322 -0.850574 0
M  V30 9 C 1.458074 -0.257125 -2.154978 0
M  V30 10 C 1.676065 -1.390228 -2.863864 0
M  V30 11 C 2.181462 -1.460123 -4.142320 0
M  V30 12 C 2.505239 -0.284175 -4.787078 0
M  V30 13 C 2.300182 0.895900 -4.103948 0
M  V30 14 C 1.790365 0.900206 -2.823767 0
M  V30 15 C -0.182155 0.273790 2.037602 0
M  V30 16 C -0.694386 0.001173 3.284459 0
M  V30 17 C -1.052838 0.985244 4.324474 0
M  V30 18 H -2.988902 -2.685402 3.293637 0
M  V30 19 H -3.251401 -2.831188 5.124552 0
M  V30 20 H -3.232682 -1.222953 4.366839 0
M  V30 21 H -0.795247 -3.086148 4.561034 0
M  V30 22 H -1.062171 -1.535588 5.398529 0
M  V30 23 H 0.825400 0.805845 -0.415454 0
M  V30 24 H 1.447060 -2.343017 -2.425100 0
M  V30 25 H 2.332498 -2.401071 -4.655734 0
M  V30 26 H 2.906917 -0.229012 -5.787358 0
M  V30 27 H 2.534435 1.844117 -4.556520 0
M  V30 28 H 1.649094 1.874956 -2.330034 0
M  V30 29 H 0.051607 1.218057 1.585464 0
M  V30 30 H -0.492221 1.934487 4.249402 0
M  V30 31 H -0.895688 0.549667 5.351914 0
M  V30 32 H -2.131225 1.239651 4.248105 0
M  V30 END ATOM
M  V30 BEGIN BOND
M  V30 1 1 1 2
M  V30 2 1 2 3
M  V30 3 1 3 4
M  V30 4 2 4 5
M  V30 5 1 5 6
M  V30 6 2 6 7
M  V30 7 1 6 8
M  V30 8 1 8 9
M  V30 9 2 9 10
M  V30 10 1 10 11
M  V30 11 2 11 12
M  V30 12 1 12 13
M  V30 13 2 13 14
M  V30 14 1 5 15
M  V30 15 2 15 16
M  V30 16 1 16 17
M  V30 17 1 16 3
M  V30 18 1 14 9
M  V30 19 1 1 18
M  V30 20 1 1 19
M  V30 21 1 1 20
M  V30 22 1 2 21
M  V30 23 1 2 22
M  V30 24 1 8 23
M  V30 25 1 10 24
M  V30 26 1 11 25
M  V30 27 1 12 26
M  V30 28 1 13 27
M  V30 29 1 14 28
M  V30 30 1 15 29
M  V30 31 1 17 30
M  V30 32 1 17 31
M  V30 33 1 17 32
M  V30 END BOND
M  V30 END CTAB
M  END
>  <Dataset>  (844) 
ChEMBL_Kinases

>  <Ligand_Instance>  (844) 
nan

>  <PDB_ID>  (844) 
nan

>  <Standardized_SMILES>  (844) 
CCn1nc(C(=O)Nc2ccccc2)cc1C

>  <Name>  (844) 
nan

>  <Pocket>  (844) 
nan

>  <ATP_Site>  (844) 
nan

>  <Peripheral>  (844) 
nan

>  <Num_H_Atoms_ProtBoundConf>  (844) 
nan

>  <Num_Resolved_Atoms>  (844) 
nan

>  <Num_Not_Resolved_Atoms>  (844) 
nan

$$$$
CHEMBL3680485
     RDKit          3D

  0  0  0  0  0  0  0  0  0  0999 V3000
M  V30 BEGIN CTAB
M  V30 COUNTS 55 58 0 0 0
M  V30 BEGIN ATOM
M  V30 1 C 2.518462 -2.847145 4.065630 0
M  V30 2 C 1.149719 -2.617706 3.490254 0 CFG=1
M  V30 3 N 0.874018 -1.188184 3.630613 0
M  V30 4 C 1.728669 -0.258651 2.979416 0
M  V30 5 N 2.764940 -0.695198 2.248804 0
M  V30 6 C 3.595502 0.131397 1.616443 0
M  V30 7 N 3.417933 1.480969 1.690956 0
M  V30 8 C 2.404363 2.004608 2.401733 0
M  V30 9 C 2.175612 3.358941 2.513285 0
M  V30 10 C 3.048805 4.295099 1.844182 0
M  V30 11 N 4.183384 4.042485 1.030463 0
M  V30 12 O 2.935888 5.540313 1.878888 0
M  V30 13 C 1.141366 3.905506 3.238467 0
M  V30 14 C 0.297334 2.994485 3.883894 0
M  V30 15 C 0.532648 1.634692 3.767784 0
M  V30 16 C 1.574049 1.108263 3.036706 0
M  V30 17 C 1.059564 -3.037422 2.070145 0
M  V30 18 C 2.019542 -3.867715 1.536055 0
M  V30 19 C 1.900710 -4.233574 0.212757 0
M  V30 20 C 0.827926 -3.747506 -0.499967 0
M  V30 21 C -0.154379 -2.918958 -0.015660 0
M  V30 22 N -1.263475 -2.404819 -0.717010 0
M  V30 23 C -1.651655 -2.596773 -2.062397 0
M  V30 24 O -0.943791 -3.318520 -2.779464 0
M  V30 25 C -2.838515 -1.993303 -2.654347 0
M  V30 26 C -3.735801 -1.170189 -2.007705 0
M  V30 27 C -4.846918 -0.621722 -2.610745 0
M  V30 28 C -5.108600 -0.890116 -3.938153 0
M  V30 29 C -6.282021 -0.342211 -4.668439 0
M  V30 30 F -5.879618 0.434911 -5.758991 0
M  V30 31 F -7.126763 -1.304598 -5.154898 0
M  V30 32 F -6.926024 0.545437 -3.817346 0
M  V30 33 C -4.245565 -1.708257 -4.638863 0
M  V30 34 F -4.481381 -1.981547 -5.929240 0
M  V30 35 C -3.151673 -2.225447 -3.977294 0
M  V30 36 C 0.016596 -2.588064 1.308638 0
M  V30 37 H 2.563542 -3.903959 4.402918 0
M  V30 38 H 2.697590 -2.213259 4.966276 0
M  V30 39 H 3.340991 -2.721737 3.333537 0
M  V30 40 H 0.430955 -3.244022 4.040729 0
M  V30 41 H 0.046775 -0.968913 4.215697 0
M  V30 42 H 4.428245 -0.264444 1.031132 0
M  V30 43 H 4.522704 3.455826 0.241761 0
M  V30 44 H 4.056565 3.309711 0.310708 0
M  V30 45 H 0.993673 4.967148 3.303035 0
M  V30 46 H -0.528569 3.400236 4.464158 0
M  V30 47 H -0.171696 1.015706 4.300991 0
M  V30 48 H 2.860838 -4.252288 2.089043 0
M  V30 49 H 2.635344 -4.883312 -0.238400 0
M  V30 50 H 0.785896 -4.066109 -1.528671 0
M  V30 51 H -1.923766 -1.783111 -0.201206 0
M  V30 52 H -3.572566 -0.933882 -0.973755 0
M  V30 53 H -5.527007 0.015669 -2.079750 0
M  V30 54 H -2.507037 -2.863228 -4.580555 0
M  V30 55 H -0.718246 -1.926451 1.795007 0
M  V30 END ATOM
M  V30 BEGIN BOND
M  V30 1 1 1 2
M  V30 2 1 2 3
M  V30 3 1 3 4
M  V30 4 2 4 5
M  V30 5 1 5 6
M  V30 6 2 6 7
M  V30 7 1 7 8
M  V30 8 2 8 9
M  V30 9 1 9 10
M  V30 10 1 10 11
M  V30 11 2 10 12
M  V30 12 1 9 13
M  V30 13 2 13 14
M  V30 14 1 14 15
M  V30 15 2 15 16
M  V30 16 1 2 17
M  V30 17 2 17 18
M  V30 18 1 18 19
M  V30 19 2 19 20
M  V30 20 1 20 21
M  V30 21 1 21 22
M  V30 22 1 22 23
M  V30 23 2 23 24
M  V30 24 1 23 25
M  V30 25 2 25 26
M  V30 26 1 26 27
M  V30 27 2 27 28
M  V30 28 1 28 29
M  V30 29 1 29 30
M  V30 30 1 29 31
M  V30 31 1 29 32
M  V30 32 1 28 33
M  V30 33 1 33 34
M  V30 34 2 33 35
M  V30 35 2 21 36
M  V30 36 1 16 4
M  V30 37 1 36 17
M  V30 38 1 16 8
M  V30 39 1 35 25
M  V30 40 1 1 37
M  V30 41 1 1 38
M  V30 42 1 1 39
M  V30 43 1 2 40 CFG=1
M  V30 44 1 3 41
M  V30 45 1 6 42
M  V30 46 1 11 43
M  V30 47 1 11 44
M  V30 48 1 13 45
M  V30 49 1 14 46
M  V30 50 1 15 47
M  V30 51 1 18 48
M  V30 52 1 19 49
M  V30 53 1 20 50
M  V30 54 1 22 51
M  V30 55 1 26 52
M  V30 56 1 27 53
M  V30 57 1 35 54
M  V30 58 1 36 55
M  V30 END BOND
M  V30 END CTAB
M  END
>  <Dataset>  (845) 
ChEMBL_Kinases

>  <Ligand_Instance>  (845) 
nan

>  <PDB_ID>  (845) 
nan

>  <Standardized_SMILES>  (845) 
C[C@@H](Nc1ncnc2c(C(N)=O)cccc12)c1cccc(NC(=O)c2ccc(C(F)(F)F)c(F)c2)c1

>  <Name>  (845) 
nan

>  <Pocket>  (845) 
nan

>  <ATP_Site>  (845) 
nan

>  <Peripheral>  (845) 
nan

>  <Num_H_Atoms_ProtBoundConf>  (845) 
nan

>  <Num_Resolved_Atoms>  (845) 
nan

>  <Num_Not_Resolved_Atoms>  (845) 
nan

$$$$
CHEMBL370166
     RDKit          3D

  0  0  0  0  0  0  0  0  0  0999 V3000
M  V30 BEGIN CTAB
M  V30 COUNTS 47 50 0 0 0
M  V30 BEGIN ATOM
M  V30 1 N 1.143979 -6.095679 5.320235 0
M  V30 2 C 1.249712 -5.046818 4.298797 0
M  V30 3 C 2.028239 -3.883050 4.864125 0
M  V30 4 N 2.121964 -2.851715 3.858544 0
M  V30 5 C 2.729928 -2.918651 2.585183 0
M  V30 6 O 3.259220 -4.035825 2.321128 0
M  V30 7 C 2.791772 -1.851568 1.597915 0
M  V30 8 C 2.145649 -0.653400 1.815796 0
M  V30 9 C 2.215752 0.350013 0.843071 0
M  V30 10 C 2.905154 0.206383 -0.341640 0
M  V30 11 N 2.945831 1.218513 -1.344393 0
M  V30 12 C 2.111666 2.328130 -1.007461 0
M  V30 13 N 2.363253 3.593433 -0.630381 0
M  V30 14 C 1.334912 4.448775 -0.341211 0
M  V30 15 C 0.022687 4.041131 -0.426571 0
M  V30 16 C -0.229547 2.750577 -0.810379 0
M  V30 17 C -1.573358 2.255161 -0.911946 0
M  V30 18 C -2.030462 1.041481 -1.243561 0
M  V30 19 C -3.374920 0.784688 -1.264721 0
M  V30 20 C -4.050040 -0.394628 -1.577821 0
M  V30 21 C -5.424917 -0.412966 -1.532811 0
M  V30 22 C -6.235407 0.670389 -1.193341 0
M  V30 23 C -5.603133 1.846371 -0.878041 0
M  V30 24 C -4.221443 1.829757 -0.932448 0
M  V30 25 S -3.032940 3.229889 -0.575595 0
M  V30 26 N 0.796639 1.961570 -1.079903 0
M  V30 27 C 3.534234 -1.014491 -0.507282 0
M  V30 28 C 3.501240 -2.050410 0.424977 0
M  V30 29 H 0.802102 -5.675095 6.210038 0
M  V30 30 H 0.390276 -6.785026 5.047226 0
M  V30 31 H 0.224533 -4.710514 3.971713 0
M  V30 32 H 1.752914 -5.421111 3.404203 0
M  V30 33 H 1.544832 -3.510658 5.784714 0
M  V30 34 H 3.062394 -4.265416 5.097944 0
M  V30 35 H 1.679277 -1.913773 4.093765 0
M  V30 36 H 1.585160 -0.440860 2.699346 0
M  V30 37 H 1.689345 1.278575 1.055567 0
M  V30 38 H 3.550006 1.058674 -2.180137 0
M  V30 39 H 1.644251 5.439225 -0.052366 0
M  V30 40 H -0.764183 4.763164 -0.187745 0
M  V30 41 H -1.290480 0.276455 -1.491825 0
M  V30 42 H -3.520508 -1.294546 -1.854034 0
M  V30 43 H -5.907144 -1.373892 -1.790259 0
M  V30 44 H -7.306484 0.622699 -1.166904 0
M  V30 45 H -6.090142 2.762030 -0.597922 0
M  V30 46 H 4.088595 -1.133871 -1.451639 0
M  V30 47 H 4.029679 -2.967391 0.199646 0
M  V30 END ATOM
M  V30 BEGIN BOND
M  V30 1 1 1 2
M  V30 2 1 2 3
M  V30 3 1 3 4
M  V30 4 1 4 5
M  V30 5 2 5 6
M  V30 6 1 5 7
M  V30 7 2 7 8
M  V30 8 1 8 9
M  V30 9 2 9 10
M  V30 10 1 10 11
M  V30 11 1 11 12
M  V30 12 2 12 13
M  V30 13 1 13 14
M  V30 14 2 14 15
M  V30 15 1 15 16
M  V30 16 1 16 17
M  V30 17 2 17 18
M  V30 18 1 18 19
M  V30 19 2 19 20
M  V30 20 1 20 21
M  V30 21 2 21 22
M  V30 22 1 22 23
M  V30 23 2 23 24
M  V30 24 1 24 25
M  V30 25 2 16 26
M  V30 26 1 10 27
M  V30 27 2 27 28
M  V30 28 1 28 7
M  V30 29 1 26 12
M  V30 30 1 25 17
M  V30 31 1 24 19
M  V30 32 1 1 29
M  V30 33 1 1 30
M  V30 34 1 2 31
M  V30 35 1 2 32
M  V30 36 1 3 33
M  V30 37 1 3 34
M  V30 38 1 4 35
M  V30 39 1 8 36
M  V30 40 1 9 37
M  V30 41 1 11 38
M  V30 42 1 14 39
M  V30 43 1 15 40
M  V30 44 1 18 41
M  V30 45 1 20 42
M  V30 46 1 21 43
M  V30 47 1 22 44
M  V30 48 1 23 45
M  V30 49 1 27 46
M  V30 50 1 28 47
M  V30 END BOND
M  V30 END CTAB
M  END
>  <Dataset>  (846) 
ChEMBL_Kinases

>  <Ligand_Instance>  (846) 
nan

>  <PDB_ID>  (846) 
nan

>  <Standardized_SMILES>  (846) 
NCCNC(=O)c1ccc(Nc2nccc(-c3cc4ccccc4s3)n2)cc1

>  <Name>  (846) 
nan

>  <Pocket>  (846) 
nan

>  <ATP_Site>  (846) 
nan

>  <Peripheral>  (846) 
nan

>  <Num_H_Atoms_ProtBoundConf>  (846) 
nan

>  <Num_Resolved_Atoms>  (846) 
nan

>  <Num_Not_Resolved_Atoms>  (846) 
nan

$$$$
CHEMBL3680484
     RDKit          3D

  0  0  0  0  0  0  0  0  0  0999 V3000
M  V30 BEGIN CTAB
M  V30 COUNTS 45 48 0 0 0
M  V30 BEGIN ATOM
M  V30 1 N -1.344064 -7.266757 1.407376 0
M  V30 2 C -1.506447 -5.933080 0.881059 0
M  V30 3 O -2.472506 -5.536922 0.191005 0
M  V30 4 C -0.393610 -5.021728 1.232949 0
M  V30 5 C 0.715330 -5.386883 1.994252 0
M  V30 6 C 1.693685 -4.454017 2.260091 0
M  V30 7 C 1.595487 -3.161502 1.785426 0
M  V30 8 C 0.518603 -2.774692 1.035642 0
M  V30 9 C 0.443123 -1.476604 0.571967 0
M  V30 10 N 1.432202 -0.485554 0.825384 0
M  V30 11 C 1.243366 0.854635 0.282699 0
M  V30 12 C 2.381856 1.751879 0.630826 0
M  V30 13 N 2.219982 3.081254 0.107721 0
M  V30 14 C 2.655817 3.498940 -1.112854 0
M  V30 15 C 2.314733 4.834176 -1.251586 0
M  V30 16 N 1.674145 5.223774 -0.117647 0
M  V30 17 C 1.624559 4.148664 0.697427 0
M  V30 18 C -0.076829 1.430950 0.691101 0
M  V30 19 C -0.516622 1.326034 1.996564 0
M  V30 20 C -1.744752 1.861772 2.389887 0
M  V30 21 C -2.503519 2.499215 1.430311 0
M  V30 22 C -2.113339 2.636177 0.100087 0
M  V30 23 C -0.891318 2.084275 -0.217657 0
M  V30 24 N -0.644237 -1.172146 -0.157179 0
M  V30 25 C -1.611734 -2.090223 -0.421836 0
M  V30 26 N -1.501690 -3.345248 0.047822 0
M  V30 27 C -0.456372 -3.717877 0.775042 0
M  V30 28 H -0.736522 -8.066000 1.103243 0
M  V30 29 H -1.862707 -7.652307 2.246793 0
M  V30 30 H 0.721394 -6.427378 2.334510 0
M  V30 31 H 2.553649 -4.781266 2.864713 0
M  V30 32 H 2.401640 -2.489916 2.035579 0
M  V30 33 H 2.293296 -0.621956 1.369173 0
M  V30 34 H 1.223177 0.746123 -0.823613 0
M  V30 35 H 3.295673 1.319225 0.175669 0
M  V30 36 H 2.575794 1.820849 1.714222 0
M  V30 37 H 3.172840 2.866085 -1.818889 0
M  V30 38 H 2.579363 5.363269 -2.175890 0
M  V30 39 H 1.168880 4.136392 1.692617 0
M  V30 40 H 0.079861 0.826588 2.741635 0
M  V30 41 H -2.095402 1.781488 3.417571 0
M  V30 42 H -3.481189 2.942682 1.675366 0
M  V30 43 H -2.733854 3.143373 -0.627083 0
M  V30 44 H -0.570215 2.182663 -1.257801 0
M  V30 45 H -2.492696 -1.871427 -1.003545 0
M  V30 END ATOM
M  V30 BEGIN BOND
M  V30 1 1 1 2
M  V30 2 2 2 3
M  V30 3 1 2 4
M  V30 4 2 4 5
M  V30 5 1 5 6
M  V30 6 2 6 7
M  V30 7 1 7 8
M  V30 8 2 8 9
M  V30 9 1 9 10
M  V30 10 1 10 11
M  V30 11 1 11 12
M  V30 12 1 12 13
M  V30 13 1 13 14
M  V30 14 2 14 15
M  V30 15 1 15 16
M  V30 16 2 16 17
M  V30 17 1 11 18
M  V30 18 2 18 19
M  V30 19 1 19 20
M  V30 20 2 20 21
M  V30 21 1 21 22
M  V30 22 2 22 23
M  V30 23 1 9 24
M  V30 24 2 24 25
M  V30 25 1 25 26
M  V30 26 2 26 27
M  V30 27 1 27 4
M  V30 28 1 27 8
M  V30 29 1 17 13
M  V30 30 1 23 18
M  V30 31 1 1 28
M  V30 32 1 1 29
M  V30 33 1 5 30
M  V30 34 1 6 31
M  V30 35 1 7 32
M  V30 36 1 10 33
M  V30 37 1 11 34
M  V30 38 1 12 35
M  V30 39 1 12 36
M  V30 40 1 14 37
M  V30 41 1 15 38
M  V30 42 1 17 39
M  V30 43 1 19 40
M  V30 44 1 20 41
M  V30 45 1 21 42
M  V30 46 1 22 43
M  V30 47 1 23 44
M  V30 48 1 25 45
M  V30 END BOND
M  V30 END CTAB
M  END
>  <Dataset>  (847) 
ChEMBL_Kinases

>  <Ligand_Instance>  (847) 
nan

>  <PDB_ID>  (847) 
nan

>  <Standardized_SMILES>  (847) 
NC(=O)c1cccc2c(NC(Cn3ccnc3)c3ccccc3)ncnc12

>  <Name>  (847) 
nan

>  <Pocket>  (847) 
nan

>  <ATP_Site>  (847) 
nan

>  <Peripheral>  (847) 
nan

>  <Num_H_Atoms_ProtBoundConf>  (847) 
nan

>  <Num_Resolved_Atoms>  (847) 
nan

>  <Num_Not_Resolved_Atoms>  (847) 
nan

$$$$
CHEMBL3701725
     RDKit          3D

  0  0  0  0  0  0  0  0  0  0999 V3000
M  V30 BEGIN CTAB
M  V30 COUNTS 57 62 0 0 0
M  V30 BEGIN ATOM
M  V30 1 C 6.855009 -1.179386 1.249080 0
M  V30 2 C 5.367043 -0.930161 1.106071 0
M  V30 3 O 4.596495 -1.858309 1.766236 0
M  V30 4 C 4.941417 0.512669 1.308173 0
M  V30 5 C 4.064576 0.384848 0.095464 0
M  V30 6 N 4.181642 1.566711 -0.739245 0
M  V30 7 C 2.656661 0.041463 0.303768 0
M  V30 8 C 2.029810 -0.163794 1.514787 0
M  V30 9 C 0.690521 -0.487876 1.573675 0
M  V30 10 C -0.021039 -0.605394 0.397995 0
M  V30 11 C -1.455871 -0.944551 0.331104 0
M  V30 12 N -1.624020 -2.299256 0.273663 0
M  V30 13 C -2.967809 -2.536914 0.217305 0
M  V30 14 N -3.606108 -1.354557 0.239722 0
M  V30 15 C -2.715661 -0.350484 0.309231 0
M  V30 16 C -2.665349 1.105931 0.365123 0
M  V30 17 C -2.156164 1.870084 1.416432 0
M  V30 18 C -2.185592 3.241824 1.303285 0
M  V30 19 C -2.690685 3.917386 0.207471 0
M  V30 20 C -3.194914 3.172084 -0.834063 0
M  V30 21 C -3.169905 1.802773 -0.730426 0
M  V30 22 C -5.025316 -1.087772 0.197640 0
M  V30 23 O -5.786571 -2.254364 0.130473 0
M  V30 24 C -5.225822 -3.524186 0.102010 0
M  V30 25 C -5.979635 -4.689485 0.032117 0
M  V30 26 C -5.417960 -5.949753 0.004194 0
M  V30 27 F -6.320570 -6.977401 -0.065436 0
M  V30 28 C -4.049772 -6.074563 0.046871 0
M  V30 29 C -3.250801 -4.945681 0.116903 0
M  V30 30 C -3.859112 -3.702632 0.142518 0
M  V30 31 C 0.582304 -0.403746 -0.850174 0
M  V30 32 C 1.924874 -0.080537 -0.874175 0
M  V30 33 C 4.978171 -0.746839 -0.357382 0
M  V30 34 H 7.088425 -1.718242 2.192161 0
M  V30 35 H 7.127474 -1.886911 0.419511 0
M  V30 36 H 7.443201 -0.250230 1.136662 0
M  V30 37 H 5.170273 -2.500874 2.234302 0
M  V30 38 H 4.478735 0.746045 2.263942 0
M  V30 39 H 5.826955 1.169379 1.097666 0
M  V30 40 H 3.940332 1.368621 -1.730175 0
M  V30 41 H 5.092030 2.013516 -0.574181 0
M  V30 42 H 2.616173 -0.062640 2.394585 0
M  V30 43 H 0.171060 -0.654450 2.502853 0
M  V30 44 H -1.781998 1.304513 2.231193 0
M  V30 45 H -1.780073 3.797550 2.142560 0
M  V30 46 H -2.706482 4.992852 0.133436 0
M  V30 47 H -3.607658 3.638827 -1.726120 0
M  V30 48 H -3.573159 1.244852 -1.563986 0
M  V30 49 H -5.304292 -0.472442 -0.685424 0
M  V30 50 H -5.367185 -0.499855 1.079018 0
M  V30 51 H -7.057596 -4.538448 0.000571 0
M  V30 52 H -3.656179 -7.094293 0.022164 0
M  V30 53 H -2.176925 -5.055918 0.149528 0
M  V30 54 H 0.011783 -0.497791 -1.786050 0
M  V30 55 H 2.348934 0.066749 -1.873687 0
M  V30 56 H 5.824076 -0.432929 -0.974642 0
M  V30 57 H 4.434265 -1.659760 -0.695207 0
M  V30 END ATOM
M  V30 BEGIN BOND
M  V30 1 1 1 2
M  V30 2 1 2 3
M  V30 3 1 2 4
M  V30 4 1 4 5
M  V30 5 1 5 6
M  V30 6 1 5 7
M  V30 7 2 7 8
M  V30 8 1 8 9
M  V30 9 2 9 10
M  V30 10 1 10 11
M  V30 11 1 11 12
M  V30 12 2 12 13
M  V30 13 1 13 14
M  V30 14 1 14 15
M  V30 15 1 15 16
M  V30 16 2 16 17
M  V30 17 1 17 18
M  V30 18 2 18 19
M  V30 19 1 19 20
M  V30 20 2 20 21
M  V30 21 1 14 22
M  V30 22 1 22 23
M  V30 23 1 23 24
M  V30 24 2 24 25
M  V30 25 1 25 26
M  V30 26 1 26 27
M  V30 27 2 26 28
M  V30 28 1 28 29
M  V30 29 2 29 30
M  V30 30 1 10 31
M  V30 31 2 31 32
M  V30 32 1 5 33
M  V30 33 1 33 2
M  V30 34 1 32 7
M  V30 35 2 15 11
M  V30 36 1 21 16
M  V30 37 1 30 24
M  V30 38 1 30 13
M  V30 39 1 1 34
M  V30 40 1 1 35
M  V30 41 1 1 36
M  V30 42 1 3 37
M  V30 43 1 4 38
M  V30 44 1 4 39
M  V30 45 1 6 40
M  V30 46 1 6 41
M  V30 47 1 8 42
M  V30 48 1 9 43
M  V30 49 1 17 44
M  V30 50 1 18 45
M  V30 51 1 19 46
M  V30 52 1 20 47
M  V30 53 1 21 48
M  V30 54 1 22 49
M  V30 55 1 22 50
M  V30 56 1 25 51
M  V30 57 1 28 52
M  V30 58 1 29 53
M  V30 59 1 31 54
M  V30 60 1 32 55
M  V30 61 1 33 56
M  V30 62 1 33 57
M  V30 END BOND
M  V30 END CTAB
M  END
>  <Dataset>  (848) 
ChEMBL_Kinases

>  <Ligand_Instance>  (848) 
nan

>  <PDB_ID>  (848) 
nan

>  <Standardized_SMILES>  (848) 
CC1(O)CC(N)(c2ccc(-c3nc4n(c3-c3ccccc3)COc3cc(F)ccc3-4)cc2)C1

>  <Name>  (848) 
nan

>  <Pocket>  (848) 
nan

>  <ATP_Site>  (848) 
nan

>  <Peripheral>  (848) 
nan

>  <Num_H_Atoms_ProtBoundConf>  (848) 
nan

>  <Num_Resolved_Atoms>  (848) 
nan

>  <Num_Not_Resolved_Atoms>  (848) 
nan

$$$$
CHEMBL3680482
     RDKit          3D

  0  0  0  0  0  0  0  0  0  0999 V3000
M  V30 BEGIN CTAB
M  V30 COUNTS 59 60 0 0 0
M  V30 BEGIN ATOM
M  V30 1 C 2.238250 -0.725612 -1.357600 0
M  V30 2 C 1.476027 -1.309101 -0.154150 0
M  V30 3 N 0.885432 -2.552444 -0.333636 0
M  V30 4 C 0.225390 -3.186682 0.754024 0
M  V30 5 C -1.035419 -2.543824 1.279127 0 CFG=1
M  V30 6 N -0.881380 -1.280901 1.830123 0
M  V30 7 C -0.741133 -0.023250 2.380396 0
M  V30 8 C 0.500665 0.555471 2.611858 0
M  V30 9 C 1.277282 1.672920 2.411654 0
M  V30 10 C 2.037441 2.134219 1.360222 0
M  V30 11 C 1.662434 3.116557 0.507702 0
M  V30 12 C 0.537651 3.847545 0.729285 0
M  V30 13 C 0.990078 5.150025 1.198291 0
M  V30 14 N 2.255659 5.738973 1.443322 0
M  V30 15 O 0.258212 6.133935 1.519948 0
M  V30 16 C -0.836366 3.743738 0.650210 0
M  V30 17 N -1.729673 3.308216 1.529994 0
M  V30 18 C -1.589593 2.189121 2.241306 0
M  V30 19 N -1.351120 1.045480 2.862321 0
M  V30 20 C -2.095654 -2.710629 0.196172 0
M  V30 21 C -3.395822 -2.107322 0.527609 0
M  V30 22 C -4.675162 -2.389457 0.693470 0
M  V30 23 C -4.918238 -3.822339 0.471063 0
M  V30 24 C -3.802041 -4.451729 0.164044 0
M  V30 25 C -2.363204 -4.198119 -0.036797 0
M  V30 26 C 1.560209 -3.504518 -1.138767 0
M  V30 27 C 1.714924 -3.233635 -2.585635 0
M  V30 28 C 2.934810 -3.879010 -0.590586 0
M  V30 29 H 2.391982 0.388156 -1.144420 0
M  V30 30 H 1.672509 -0.736591 -2.281172 0
M  V30 31 H 3.235161 -1.144587 -1.339323 0
M  V30 32 H 2.097640 -1.208898 0.763171 0
M  V30 33 H 0.691701 -0.485184 0.009198 0
M  V30 34 H 0.067644 -4.261163 0.559321 0
M  V30 35 H 1.012369 -3.203650 1.589847 0
M  V30 36 H -1.398294 -3.268394 2.085383 0
M  V30 37 H -1.909357 -1.133310 2.052342 0
M  V30 38 H 1.160699 -0.090975 3.163771 0
M  V30 39 H 1.386686 2.419778 3.183382 0
M  V30 40 H 2.936803 1.578874 1.357686 0
M  V30 41 H 2.281324 3.304800 -0.356589 0
M  V30 42 H 2.739859 6.486994 0.932059 0
M  V30 43 H 2.551300 5.196685 2.291429 0
M  V30 44 H -0.957440 4.131125 -0.369642 0
M  V30 45 H -2.399444 2.743378 2.739523 0
M  V30 46 H -1.757655 -2.298311 -0.766417 0
M  V30 47 H -3.258762 -1.020266 0.665425 0
M  V30 48 H -5.455618 -1.729966 0.950712 0
M  V30 49 H -5.863665 -4.303591 0.542160 0
M  V30 50 H -3.921159 -5.517343 -0.009260 0
M  V30 51 H -1.809270 -4.738866 0.780846 0
M  V30 52 H -1.999628 -4.517088 -1.018079 0
M  V30 53 H 0.953724 -4.461214 -1.057092 0
M  V30 54 H 1.747913 -4.260444 -3.091237 0
M  V30 55 H 2.649196 -2.771264 -2.917114 0
M  V30 56 H 0.793729 -2.787978 -3.057719 0
M  V30 57 H 3.642179 -4.086546 -1.421414 0
M  V30 58 H 2.885299 -4.861216 -0.035885 0
M  V30 59 H 3.361782 -3.095508 0.043686 0
M  V30 END ATOM
M  V30 BEGIN BOND
M  V30 1 1 1 2
M  V30 2 1 2 3
M  V30 3 1 3 4
M  V30 4 1 4 5
M  V30 5 1 5 6
M  V30 6 1 6 7
M  V30 7 2 7 8
M  V30 8 1 8 9
M  V30 9 2 9 10
M  V30 10 1 10 11
M  V30 11 2 11 12
M  V30 12 1 12 13
M  V30 13 1 13 14
M  V30 14 2 13 15
M  V30 15 1 12 16
M  V30 16 2 16 17
M  V30 17 1 17 18
M  V30 18 2 18 19
M  V30 19 1 5 20
M  V30 20 1 20 21
M  V30 21 2 21 22
M  V30 22 1 22 23
M  V30 23 2 23 24
M  V30 24 1 24 25
M  V30 25 1 3 26
M  V30 26 1 26 27
M  V30 27 1 26 28
M  V30 28 1 19 7
M  V30 29 1 25 20
M  V30 30 1 1 29
M  V30 31 1 1 30
M  V30 32 1 1 31
M  V30 33 1 2 32
M  V30 34 1 2 33
M  V30 35 1 4 34
M  V30 36 1 4 35
M  V30 37 1 5 36 CFG=1
M  V30 38 1 6 37
M  V30 39 1 8 38
M  V30 40 1 9 39
M  V30 41 1 10 40
M  V30 42 1 11 41
M  V30 43 1 14 42
M  V30 44 1 14 43
M  V30 45 1 16 44
M  V30 46 1 18 45
M  V30 47 1 20 46
M  V30 48 1 21 47
M  V30 49 1 22 48
M  V30 50 1 23 49
M  V30 51 1 24 50
M  V30 52 1 25 51
M  V30 53 1 25 52
M  V30 54 1 26 53
M  V30 55 1 27 54
M  V30 56 1 27 55
M  V30 57 1 27 56
M  V30 58 1 28 57
M  V30 59 1 28 58
M  V30 60 1 28 59
M  V30 END BOND
M  V30 END CTAB
M  END
>  <Dataset>  (849) 
ChEMBL_Kinases

>  <Ligand_Instance>  (849) 
nan

>  <PDB_ID>  (849) 
nan

>  <Standardized_SMILES>  (849) 
CCN(C[C@@H](Nc1ccccc(C(N)=O)cncn1)C1C=CC=CC1)C(C)C

>  <Name>  (849) 
nan

>  <Pocket>  (849) 
nan

>  <ATP_Site>  (849) 
nan

>  <Peripheral>  (849) 
nan

>  <Num_H_Atoms_ProtBoundConf>  (849) 
nan

>  <Num_Resolved_Atoms>  (849) 
nan

>  <Num_Not_Resolved_Atoms>  (849) 
nan

$$$$
CHEMBL426532
     RDKit          3D

  0  0  0  0  0  0  0  0  0  0999 V3000
M  V30 BEGIN CTAB
M  V30 COUNTS 58 60 0 0 0
M  V30 BEGIN ATOM
M  V30 1 C 2.826457 0.527953 5.621613 0
M  V30 2 O 2.820277 -0.011271 4.342746 0
M  V30 3 C 4.069023 -0.426356 3.957585 0
M  V30 4 C 5.124669 0.620835 3.913360 0
M  V30 5 C 4.815084 1.749325 2.961762 0
M  V30 6 N 4.645926 1.291631 1.601714 0
M  V30 7 N 4.410321 2.365821 0.791136 0
M  V30 8 S 2.838145 2.974051 0.716414 0
M  V30 9 O 2.430459 3.560711 2.013060 0
M  V30 10 O 2.851427 4.130100 -0.280503 0
M  V30 11 C 1.666792 1.829736 0.120158 0
M  V30 12 C 1.271533 1.577820 -1.176205 0
M  V30 13 C 0.319160 0.624800 -1.462443 0
M  V30 14 C -0.279865 -0.120677 -0.447626 0
M  V30 15 C -1.288813 -1.138086 -0.719076 0
M  V30 16 C -2.371072 -0.994648 -1.569333 0
M  V30 17 C -3.264372 -2.036856 -1.742916 0
M  V30 18 C -4.412049 -1.898301 -2.636946 0
M  V30 19 C -5.115233 -0.725082 -2.891444 0
M  V30 20 C -6.181215 -0.776142 -3.775055 0
M  V30 21 C -6.567391 -1.934745 -4.405272 0
M  V30 22 C -5.888043 -3.132528 -4.177003 0
M  V30 23 C -4.821483 -3.043477 -3.282611 0
M  V30 24 C -3.067253 -3.219577 -1.061519 0
M  V30 25 C -2.003864 -3.404424 -0.205742 0
M  V30 26 C -1.851070 -4.671922 0.485295 0
M  V30 27 N -2.788608 -5.719706 0.283212 0
M  V30 28 O -0.912773 -4.922408 1.282315 0
M  V30 29 C -1.123349 -2.355784 -0.044662 0
M  V30 30 N -0.040639 -2.642312 0.866386 0
M  V30 31 C 0.109100 0.123575 0.860964 0
M  V30 32 C 1.077521 1.092345 1.155123 0
M  V30 33 H 1.767834 0.834255 5.848815 0
M  V30 34 H 3.095805 -0.267450 6.344688 0
M  V30 35 H 3.419498 1.441925 5.702332 0
M  V30 36 H 4.087283 -0.998126 3.022699 0
M  V30 37 H 4.400868 -1.168282 4.744831 0
M  V30 38 H 6.072296 0.128089 3.628029 0
M  V30 39 H 5.254474 1.049448 4.918576 0
M  V30 40 H 3.935665 2.325524 3.250214 0
M  V30 41 H 5.724506 2.413399 2.939525 0
M  V30 42 H 3.808341 0.664948 1.616351 0
M  V30 43 H 4.940021 2.374732 -0.106354 0
M  V30 44 H 1.784477 2.198377 -1.894371 0
M  V30 45 H 0.047450 0.467174 -2.479154 0
M  V30 46 H -2.474955 -0.058255 -2.071488 0
M  V30 47 H -4.771201 0.153509 -2.371137 0
M  V30 48 H -6.725860 0.150022 -3.967161 0
M  V30 49 H -7.402882 -1.965123 -5.095146 0
M  V30 50 H -6.168764 -4.052911 -4.656880 0
M  V30 51 H -4.320419 -4.000098 -3.134603 0
M  V30 52 H -3.758702 -4.052648 -1.182383 0
M  V30 53 H -3.517630 -6.107599 0.940609 0
M  V30 54 H -2.620392 -6.064737 -0.697168 0
M  V30 55 H 0.992054 -2.735725 0.707963 0
M  V30 56 H -0.081974 -2.818175 1.895257 0
M  V30 57 H -0.346239 -0.443397 1.674111 0
M  V30 58 H 1.304252 1.198870 2.214624 0
M  V30 END ATOM
M  V30 BEGIN BOND
M  V30 1 1 1 2
M  V30 2 1 2 3
M  V30 3 1 3 4
M  V30 4 1 4 5
M  V30 5 1 5 6
M  V30 6 1 6 7
M  V30 7 1 7 8
M  V30 8 2 8 9
M  V30 9 2 8 10
M  V30 10 1 8 11
M  V30 11 2 11 12
M  V30 12 1 12 13
M  V30 13 2 13 14
M  V30 14 1 14 15
M  V30 15 2 15 16
M  V30 16 1 16 17
M  V30 17 1 17 18
M  V30 18 2 18 19
M  V30 19 1 19 20
M  V30 20 2 20 21
M  V30 21 1 21 22
M  V30 22 2 22 23
M  V30 23 2 17 24
M  V30 24 1 24 25
M  V30 25 1 25 26
M  V30 26 1 26 27
M  V30 27 2 26 28
M  V30 28 2 25 29
M  V30 29 1 29 30
M  V30 30 1 14 31
M  V30 31 2 31 32
M  V30 32 1 32 11
M  V30 33 1 29 15
M  V30 34 1 23 18
M  V30 35 1 1 33
M  V30 36 1 1 34
M  V30 37 1 1 35
M  V30 38 1 3 36
M  V30 39 1 3 37
M  V30 40 1 4 38
M  V30 41 1 4 39
M  V30 42 1 5 40
M  V30 43 1 5 41
M  V30 44 1 6 42
M  V30 45 1 7 43
M  V30 46 1 12 44
M  V30 47 1 13 45
M  V30 48 1 16 46
M  V30 49 1 19 47
M  V30 50 1 20 48
M  V30 51 1 21 49
M  V30 52 1 22 50
M  V30 53 1 23 51
M  V30 54 1 24 52
M  V30 55 1 27 53
M  V30 56 1 27 54
M  V30 57 1 30 55
M  V30 58 1 30 56
M  V30 59 1 31 57
M  V30 60 1 32 58
M  V30 END BOND
M  V30 END CTAB
M  END
>  <Dataset>  (850) 
ChEMBL_Kinases

>  <Ligand_Instance>  (850) 
nan

>  <PDB_ID>  (850) 
nan

>  <Standardized_SMILES>  (850) 
COCCCNNS(=O)(=O)c1ccc(-c2cc(-c3ccccc3)cc(C(N)=O)c2N)cc1

>  <Name>  (850) 
nan

>  <Pocket>  (850) 
nan

>  <ATP_Site>  (850) 
nan

>  <Peripheral>  (850) 
nan

>  <Num_H_Atoms_ProtBoundConf>  (850) 
nan

>  <Num_Resolved_Atoms>  (850) 
nan

>  <Num_Not_Resolved_Atoms>  (850) 
nan

$$$$
CHEMBL370130
     RDKit          3D

  0  0  0  0  0  0  0  0  0  0999 V3000
M  V30 BEGIN CTAB
M  V30 COUNTS 65 65 0 0 0
M  V30 BEGIN ATOM
M  V30 1 C 1.064998 -4.172474 5.076324 0
M  V30 2 C 0.349013 -3.107854 4.191546 0
M  V30 3 C 0.004125 -1.998593 5.182026 0
M  V30 4 C 1.354096 -2.608686 3.263389 0
M  V30 5 C 0.991081 -1.537838 2.257841 0
M  V30 6 C 2.361051 -1.270620 1.567745 0
M  V30 7 C 2.421482 -0.230148 0.599431 0
M  V30 8 C 1.796002 0.831636 0.192402 0
M  V30 9 C 0.556836 1.358802 0.785905 0
M  V30 10 C 0.328213 2.694971 0.105068 0
M  V30 11 C -0.038634 3.689926 1.174246 0
M  V30 12 O -1.258837 3.322333 1.730883 0
M  V30 13 C -0.793148 2.579839 -0.892992 0
M  V30 14 O -0.546478 1.544653 -1.837557 0
M  V30 15 C -1.446338 1.262532 -2.860716 0
M  V30 16 O -2.312575 2.135985 -2.581424 0
M  V30 17 C -1.277421 0.218527 -3.880873 0
M  V30 18 C -0.032992 0.405889 -4.712633 0
M  V30 19 C -1.281364 -1.172987 -3.291969 0
M  V30 20 C -2.459083 0.285804 -4.825962 0
M  V30 21 O 1.560943 2.982394 -0.534170 0
M  V30 22 C 2.147451 1.745676 -0.900665 0
M  V30 23 S 3.039434 1.307606 -2.218808 0
M  V30 24 C 0.076411 -2.052797 1.182517 0
M  V30 25 C -1.246593 -2.577019 1.454562 0
M  V30 26 C -2.214601 -1.671932 2.149495 0
M  V30 27 C -1.948245 -2.791754 0.046057 0
M  V30 28 H 1.734735 -4.765916 4.422791 0
M  V30 29 H 1.608969 -3.699749 5.897163 0
M  V30 30 H 0.320387 -4.871121 5.503951 0
M  V30 31 H -0.512426 -3.621175 3.822036 0
M  V30 32 H 0.689744 -1.988469 6.055024 0
M  V30 33 H -0.994181 -2.255065 5.589927 0
M  V30 34 H -0.023625 -1.019490 4.660753 0
M  V30 35 H 1.744992 -3.460710 2.611306 0
M  V30 36 H 2.284454 -2.267733 3.789962 0
M  V30 37 H 0.713367 -0.627285 2.757631 0
M  V30 38 H 3.134136 -1.127049 2.361055 0
M  V30 39 H 2.679374 -2.252777 1.090113 0
M  V30 40 H 3.343005 -0.411795 -0.002302 0
M  V30 41 H -0.288882 0.740639 0.555607 0
M  V30 42 H 0.652023 1.508820 1.888690 0
M  V30 43 H -0.083070 4.673871 0.714196 0
M  V30 44 H 0.772909 3.612025 1.948695 0
M  V30 45 H -1.364914 2.349955 1.739561 0
M  V30 46 H -1.730757 2.374168 -0.376285 0
M  V30 47 H -0.816199 3.543071 -1.438350 0
M  V30 48 H -0.228315 0.252893 -5.792233 0
M  V30 49 H 0.776603 -0.314835 -4.461866 0
M  V30 50 H 0.394677 1.422835 -4.590448 0
M  V30 51 H -0.456677 -1.341540 -2.579595 0
M  V30 52 H -1.321366 -1.952353 -4.084501 0
M  V30 53 H -2.266558 -1.285571 -2.751006 0
M  V30 54 H -2.316206 1.060223 -5.611058 0
M  V30 55 H -3.393586 0.460313 -4.262007 0
M  V30 56 H -2.540598 -0.700956 -5.345432 0
M  V30 57 H 0.691366 -2.979591 0.782951 0
M  V30 58 H 0.103829 -1.423511 0.282077 0
M  V30 59 H -1.322589 -3.588443 1.851627 0
M  V30 60 H -2.303468 -0.675851 1.669912 0
M  V30 61 H -2.110316 -1.615586 3.237215 0
M  V30 62 H -3.238310 -2.126426 1.993286 0
M  V30 63 H -3.026868 -2.819197 0.172150 0
M  V30 64 H -1.513566 -3.701677 -0.408226 0
M  V30 65 H -1.667982 -1.886615 -0.511247 0
M  V30 END ATOM
M  V30 BEGIN BOND
M  V30 1 1 1 2
M  V30 2 1 2 3
M  V30 3 1 2 4
M  V30 4 1 4 5
M  V30 5 1 5 6
M  V30 6 1 6 7
M  V30 7 2 7 8
M  V30 8 1 8 9
M  V30 9 1 9 10
M  V30 10 1 10 11
M  V30 11 1 11 12
M  V30 12 1 10 13
M  V30 13 1 13 14
M  V30 14 1 14 15
M  V30 15 2 15 16
M  V30 16 1 15 17
M  V30 17 1 17 18
M  V30 18 1 17 19
M  V30 19 1 17 20
M  V30 20 1 10 21
M  V30 21 1 21 22
M  V30 22 2 22 23
M  V30 23 1 5 24
M  V30 24 1 24 25
M  V30 25 1 25 26
M  V30 26 1 25 27
M  V30 27 1 22 8
M  V30 28 1 1 28
M  V30 29 1 1 29
M  V30 30 1 1 30
M  V30 31 1 2 31
M  V30 32 1 3 32
M  V30 33 1 3 33
M  V30 34 1 3 34
M  V30 35 1 4 35
M  V30 36 1 4 36
M  V30 37 1 5 37
M  V30 38 1 6 38
M  V30 39 1 6 39
M  V30 40 1 7 40
M  V30 41 1 9 41
M  V30 42 1 9 42
M  V30 43 1 11 43
M  V30 44 1 11 44
M  V30 45 1 12 45
M  V30 46 1 13 46
M  V30 47 1 13 47
M  V30 48 1 18 48
M  V30 49 1 18 49
M  V30 50 1 18 50
M  V30 51 1 19 51
M  V30 52 1 19 52
M  V30 53 1 19 53
M  V30 54 1 20 54
M  V30 55 1 20 55
M  V30 56 1 20 56
M  V30 57 1 24 57
M  V30 58 1 24 58
M  V30 59 1 25 59
M  V30 60 1 26 60
M  V30 61 1 26 61
M  V30 62 1 26 62
M  V30 63 1 27 63
M  V30 64 1 27 64
M  V30 65 1 27 65
M  V30 END BOND
M  V30 END CTAB
M  END
>  <Dataset>  (851) 
ChEMBL_Kinases

>  <Ligand_Instance>  (851) 
nan

>  <PDB_ID>  (851) 
nan

>  <Standardized_SMILES>  (851) 
CC(C)CC(C/C=C1\CC(CO)(COC(=O)C(C)(C)C)OC1=S)CC(C)C

>  <Name>  (851) 
nan

>  <Pocket>  (851) 
nan

>  <ATP_Site>  (851) 
nan

>  <Peripheral>  (851) 
nan

>  <Num_H_Atoms_ProtBoundConf>  (851) 
nan

>  <Num_Resolved_Atoms>  (851) 
nan

>  <Num_Not_Resolved_Atoms>  (851) 
nan

$$$$
CHEMBL2147531
     RDKit          3D

  0  0  0  0  0  0  0  0  0  0999 V3000
M  V30 BEGIN CTAB
M  V30 COUNTS 36 38 0 0 0
M  V30 BEGIN ATOM
M  V30 1 N 0.882578 -2.111343 3.958015 0
M  V30 2 C 1.285052 -2.656503 2.651843 0
M  V30 3 C 0.050582 -3.221941 1.995772 0
M  V30 4 N -0.976303 -2.262290 1.782024 0
M  V30 5 C -0.736784 -1.153911 0.959249 0
M  V30 6 N 0.453339 -0.979497 0.357773 0
M  V30 7 C 0.743878 0.059285 -0.443755 0
M  V30 8 C 2.080365 0.101422 -1.021159 0
M  V30 9 C 2.989052 -0.896939 -0.740734 0
M  V30 10 C 4.266843 -0.906952 -1.258949 0
M  V30 11 N 4.686759 0.082696 -2.079344 0
M  V30 12 C 3.815704 1.062397 -2.363041 0
M  V30 13 C 2.540838 1.090295 -1.857722 0
M  V30 14 C -0.180138 1.045991 -0.714102 0
M  V30 15 C -1.423727 0.928725 -0.128305 0
M  V30 16 C -2.402748 1.871037 -0.347010 0
M  V30 17 C -3.655783 1.782905 0.223507 0
M  V30 18 C -3.919628 0.686887 1.051666 0
M  V30 19 C -2.910464 -0.234667 1.244398 0
M  V30 20 C -1.653291 -0.162305 0.682544 0
M  V30 21 H 0.911825 -1.086719 3.971977 0
M  V30 22 H 0.044559 -2.563091 4.336866 0
M  V30 23 H 1.818173 -1.907054 2.069104 0
M  V30 24 H 1.979315 -3.488792 2.888796 0
M  V30 25 H -0.237268 -4.141790 2.527255 0
M  V30 26 H 0.379357 -3.569764 0.972232 0
M  V30 27 H -1.852456 -2.491168 2.286182 0
M  V30 28 H 2.784511 -1.727182 -0.113973 0
M  V30 29 H 5.004727 -1.689310 -1.049775 0
M  V30 30 H 4.196031 1.838400 -3.027314 0
M  V30 31 H 1.892085 1.898885 -2.120683 0
M  V30 32 H 0.018773 1.877667 -1.341969 0
M  V30 33 H -2.171038 2.717364 -0.997954 0
M  V30 34 H -4.408190 2.536384 0.036190 0
M  V30 35 H -4.894069 0.594719 1.510866 0
M  V30 36 H -3.188793 -1.050713 1.894516 0
M  V30 END ATOM
M  V30 BEGIN BOND
M  V30 1 1 1 2
M  V30 2 1 2 3
M  V30 3 1 3 4
M  V30 4 1 4 5
M  V30 5 2 5 6
M  V30 6 1 6 7
M  V30 7 1 7 8
M  V30 8 2 8 9
M  V30 9 1 9 10
M  V30 10 2 10 11
M  V30 11 1 11 12
M  V30 12 2 12 13
M  V30 13 2 7 14
M  V30 14 1 14 15
M  V30 15 2 15 16
M  V30 16 1 16 17
M  V30 17 2 17 18
M  V30 18 1 18 19
M  V30 19 2 19 20
M  V30 20 1 20 5
M  V30 21 1 13 8
M  V30 22 1 20 15
M  V30 23 1 1 21
M  V30 24 1 1 22
M  V30 25 1 2 23
M  V30 26 1 2 24
M  V30 27 1 3 25
M  V30 28 1 3 26
M  V30 29 1 4 27
M  V30 30 1 9 28
M  V30 31 1 10 29
M  V30 32 1 12 30
M  V30 33 1 13 31
M  V30 34 1 14 32
M  V30 35 1 16 33
M  V30 36 1 17 34
M  V30 37 1 18 35
M  V30 38 1 19 36
M  V30 END BOND
M  V30 END CTAB
M  END
>  <Dataset>  (852) 
ChEMBL_Kinases

>  <Ligand_Instance>  (852) 
nan

>  <PDB_ID>  (852) 
nan

>  <Standardized_SMILES>  (852) 
NCCNc1nc(-c2ccncc2)cc2ccccc12

>  <Name>  (852) 
nan

>  <Pocket>  (852) 
nan

>  <ATP_Site>  (852) 
nan

>  <Peripheral>  (852) 
nan

>  <Num_H_Atoms_ProtBoundConf>  (852) 
nan

>  <Num_Resolved_Atoms>  (852) 
nan

>  <Num_Not_Resolved_Atoms>  (852) 
nan

$$$$
CHEMBL4592699
     RDKit          3D

  0  0  0  0  0  0  0  0  0  0999 V3000
M  V30 BEGIN CTAB
M  V30 COUNTS 35 37 0 0 0
M  V30 BEGIN ATOM
M  V30 1 C -0.885731 -3.853877 3.064429 0
M  V30 2 C -0.718121 -2.875878 1.901548 0
M  V30 3 N -0.160272 -1.605590 2.321104 0
M  V30 4 C 0.261233 -0.491838 1.542343 0
M  V30 5 N 0.221896 -0.449017 0.204847 0
M  V30 6 C 0.615010 0.563988 -0.570105 0
M  V30 7 C 0.518915 0.483470 -2.020899 0
M  V30 8 C 0.017239 -0.647203 -2.624568 0
M  V30 9 C -0.092428 -0.767138 -4.005319 0
M  V30 10 N 0.312269 0.273178 -4.776837 0
M  V30 11 C 0.807519 1.391821 -4.204988 0
M  V30 12 C 0.915562 1.508252 -2.827721 0
M  V30 13 N 1.092706 1.635896 0.049087 0
M  V30 14 C 1.184783 1.717999 1.390738 0
M  V30 15 C 1.681967 2.835061 2.025970 0
M  V30 16 N 1.792509 2.962453 3.358972 0
M  V30 17 C 1.382230 1.909708 4.124858 0
M  V30 18 C 0.884002 0.789467 3.496273 0
M  V30 19 C 0.763593 0.641431 2.135120 0
M  V30 20 C -2.051492 -2.720186 1.180251 0
M  V30 21 F -1.924261 -1.850060 0.130494 0
M  V30 22 F -3.015313 -2.202729 2.014692 0
M  V30 23 F -2.448518 -3.933838 0.654971 0
M  V30 24 H -0.272860 -3.555795 3.936156 0
M  V30 25 H -1.966058 -3.900428 3.291224 0
M  V30 26 H -0.570126 -4.877117 2.775992 0
M  V30 27 H -0.027192 -3.362297 1.186163 0
M  V30 28 H -0.086493 -1.572597 3.353870 0
M  V30 29 H -0.314662 -1.494955 -2.045174 0
M  V30 30 H -0.497564 -1.685380 -4.442204 0
M  V30 31 H 1.099285 2.157021 -4.910237 0
M  V30 32 H 1.313407 2.414028 -2.438543 0
M  V30 33 H 1.997169 3.649076 1.386129 0
M  V30 34 H 1.472380 2.015222 5.196166 0
M  V30 35 H 0.591579 0.026397 4.174489 0
M  V30 END ATOM
M  V30 BEGIN BOND
M  V30 1 1 1 2
M  V30 2 1 2 3
M  V30 3 1 3 4
M  V30 4 2 4 5
M  V30 5 1 5 6
M  V30 6 1 6 7
M  V30 7 2 7 8
M  V30 8 1 8 9
M  V30 9 2 9 10
M  V30 10 1 10 11
M  V30 11 2 11 12
M  V30 12 2 6 13
M  V30 13 1 13 14
M  V30 14 2 14 15
M  V30 15 1 15 16
M  V30 16 2 16 17
M  V30 17 1 17 18
M  V30 18 2 18 19
M  V30 19 1 2 20
M  V30 20 1 20 21
M  V30 21 1 20 22
M  V30 22 1 20 23
M  V30 23 1 19 4
M  V30 24 1 12 7
M  V30 25 1 19 14
M  V30 26 1 1 24
M  V30 27 1 1 25
M  V30 28 1 1 26
M  V30 29 1 2 27
M  V30 30 1 3 28
M  V30 31 1 8 29
M  V30 32 1 9 30
M  V30 33 1 11 31
M  V30 34 1 12 32
M  V30 35 1 15 33
M  V30 36 1 17 34
M  V30 37 1 18 35
M  V30 END BOND
M  V30 END CTAB
M  END
>  <Dataset>  (853) 
ChEMBL_Kinases

>  <Ligand_Instance>  (853) 
nan

>  <PDB_ID>  (853) 
nan

>  <Standardized_SMILES>  (853) 
CC(Nc1nc(-c2ccncc2)nc2cnccc12)C(F)(F)F

>  <Name>  (853) 
nan

>  <Pocket>  (853) 
nan

>  <ATP_Site>  (853) 
nan

>  <Peripheral>  (853) 
nan

>  <Num_H_Atoms_ProtBoundConf>  (853) 
nan

>  <Num_Resolved_Atoms>  (853) 
nan

>  <Num_Not_Resolved_Atoms>  (853) 
nan

$$$$
CHEMBL426183
     RDKit          3D

  0  0  0  0  0  0  0  0  0  0999 V3000
M  V30 BEGIN CTAB
M  V30 COUNTS 49 51 0 0 0
M  V30 BEGIN ATOM
M  V30 1 C -1.426085 -2.011308 4.601414 0
M  V30 2 O -0.169036 -1.591988 5.003942 0
M  V30 3 C 0.495034 -0.915548 4.013592 0
M  V30 4 C 0.714335 -1.762942 2.761159 0
M  V30 5 N 1.429450 -1.019989 1.755710 0
M  V30 6 C 2.767416 -1.098506 1.752975 0
M  V30 7 S 4.124579 -1.872695 2.600324 0
M  V30 8 C 3.581217 -2.938141 3.918180 0
M  V30 9 N 3.193320 -0.306404 0.725124 0
M  V30 10 C 2.118974 0.242731 0.115526 0
M  V30 11 C 2.087233 1.165557 -1.042241 0
M  V30 12 C 1.484953 0.802510 -2.215582 0
M  V30 13 C 1.497760 1.715735 -3.248476 0
M  V30 14 C 2.080210 2.982775 -3.184055 0
M  V30 15 F 2.055754 3.829539 -4.238028 0
M  V30 16 C 2.679499 3.298698 -1.963828 0
M  V30 17 C 2.688649 2.420678 -0.913601 0
M  V30 18 C 0.996092 -0.212411 0.772488 0
M  V30 19 C -0.393612 0.082419 0.508172 0
M  V30 20 C -0.999987 1.309954 0.603507 0
M  V30 21 C -2.351485 1.450941 0.317497 0
M  V30 22 N -3.062577 0.370015 -0.054820 0
M  V30 23 C -2.522479 -0.861905 -0.166341 0
M  V30 24 N -3.378852 -1.921587 -0.568026 0
M  V30 25 C -3.693601 -2.409298 -1.873193 0
M  V30 26 C -4.654300 -3.550270 -1.754426 0
M  V30 27 O -3.165634 -1.861999 -2.877273 0
M  V30 28 C -1.161717 -1.019788 0.118431 0
M  V30 29 H -1.911462 -2.545057 5.465116 0
M  V30 30 H -1.384877 -2.797248 3.792693 0
M  V30 31 H -2.085847 -1.196483 4.249289 0
M  V30 32 H 1.483855 -0.559378 4.365285 0
M  V30 33 H -0.066448 0.014069 3.759205 0
M  V30 34 H 1.199681 -2.680557 3.061768 0
M  V30 35 H -0.263129 -2.045264 2.307454 0
M  V30 36 H 4.505313 -3.225516 4.508923 0
M  V30 37 H 3.162419 -3.911484 3.585769 0
M  V30 38 H 2.955642 -2.396540 4.651934 0
M  V30 39 H 1.013131 -0.160817 -2.340854 0
M  V30 40 H 1.037761 1.489096 -4.203304 0
M  V30 41 H 3.152897 4.279514 -1.854688 0
M  V30 42 H 3.153317 2.650256 0.051071 0
M  V30 43 H -0.353434 2.129131 0.910590 0
M  V30 44 H -2.788037 2.446405 0.407609 0
M  V30 45 H -3.713611 -2.243633 0.362613 0
M  V30 46 H -4.250672 -4.366492 -1.112935 0
M  V30 47 H -5.661876 -3.221749 -1.403208 0
M  V30 48 H -4.748852 -4.023637 -2.774904 0
M  V30 49 H -0.857983 -2.058839 -0.011979 0
M  V30 END ATOM
M  V30 BEGIN BOND
M  V30 1 1 1 2
M  V30 2 1 2 3
M  V30 3 1 3 4
M  V30 4 1 4 5
M  V30 5 1 5 6
M  V30 6 1 6 7
M  V30 7 1 7 8
M  V30 8 2 6 9
M  V30 9 1 9 10
M  V30 10 1 10 11
M  V30 11 2 11 12
M  V30 12 1 12 13
M  V30 13 2 13 14
M  V30 14 1 14 15
M  V30 15 1 14 16
M  V30 16 2 16 17
M  V30 17 2 10 18
M  V30 18 1 18 19
M  V30 19 2 19 20
M  V30 20 1 20 21
M  V30 21 2 21 22
M  V30 22 1 22 23
M  V30 23 1 23 24
M  V30 24 1 24 25
M  V30 25 1 25 26
M  V30 26 2 25 27
M  V30 27 2 23 28
M  V30 28 1 18 5
M  V30 29 1 28 19
M  V30 30 1 17 11
M  V30 31 1 1 29
M  V30 32 1 1 30
M  V30 33 1 1 31
M  V30 34 1 3 32
M  V30 35 1 3 33
M  V30 36 1 4 34
M  V30 37 1 4 35
M  V30 38 1 8 36
M  V30 39 1 8 37
M  V30 40 1 8 38
M  V30 41 1 12 39
M  V30 42 1 13 40
M  V30 43 1 16 41
M  V30 44 1 17 42
M  V30 45 1 20 43
M  V30 46 1 21 44
M  V30 47 1 24 45
M  V30 48 1 26 46
M  V30 49 1 26 47
M  V30 50 1 26 48
M  V30 51 1 28 49
M  V30 END BOND
M  V30 END CTAB
M  END
>  <Dataset>  (854) 
ChEMBL_Kinases

>  <Ligand_Instance>  (854) 
nan

>  <PDB_ID>  (854) 
nan

>  <Standardized_SMILES>  (854) 
COCCn1c(SC)nc(-c2ccc(F)cc2)c1-c1ccnc(NC(C)=O)c1

>  <Name>  (854) 
nan

>  <Pocket>  (854) 
nan

>  <ATP_Site>  (854) 
nan

>  <Peripheral>  (854) 
nan

>  <Num_H_Atoms_ProtBoundConf>  (854) 
nan

>  <Num_Resolved_Atoms>  (854) 
nan

>  <Num_Not_Resolved_Atoms>  (854) 
nan

$$$$
CHEMBL426134
     RDKit          3D

  0  0  0  0  0  0  0  0  0  0999 V3000
M  V30 BEGIN CTAB
M  V30 COUNTS 42 43 0 0 0
M  V30 BEGIN ATOM
M  V30 1 C -2.815112 -4.841886 2.695949 0
M  V30 2 C -1.533276 -5.092831 3.414771 0
M  V30 3 O -0.418148 -5.326255 2.618918 0
M  V30 4 C 0.132681 -4.487320 1.679901 0
M  V30 5 N -0.427711 -3.284352 1.452602 0
M  V30 6 C 0.032524 -2.409007 0.567862 0
M  V30 7 N -0.642134 -1.180593 0.403724 0
M  V30 8 C -0.308126 -0.084599 -0.407926 0
M  V30 9 O 0.727440 -0.122195 -1.116222 0
M  V30 10 C -0.985608 1.217109 -0.617370 0
M  V30 11 C -0.117412 2.377080 -0.224076 0
M  V30 12 C 0.790694 2.876052 -1.126085 0
M  V30 13 C 1.551200 3.945701 -0.709229 0
M  V30 14 C 1.437290 4.517482 0.544783 0
M  V30 15 O 2.083667 5.567597 1.154309 0
M  V30 16 C 3.083645 6.303552 0.501967 0
M  V30 17 C 0.498136 3.978157 1.437805 0
M  V30 18 C -0.289476 2.888441 1.039571 0
M  V30 19 C 1.148018 -2.820539 -0.119658 0
M  V30 20 C 1.782693 -4.034845 0.052365 0
M  V30 21 N 2.935472 -4.391382 -0.701022 0
M  V30 22 C 1.249896 -4.893615 0.988342 0
M  V30 23 C 1.860494 -6.191197 1.232704 0
M  V30 24 N 2.363803 -7.213892 1.432375 0
M  V30 25 H -3.471621 -4.257044 3.407154 0
M  V30 26 H -2.745068 -4.229783 1.795915 0
M  V30 27 H -3.399834 -5.773559 2.517505 0
M  V30 28 H -1.690596 -6.023822 4.033685 0
M  V30 29 H -1.315231 -4.294709 4.183790 0
M  V30 30 H -1.521959 -0.991983 0.932155 0
M  V30 31 H -1.228240 1.338371 -1.695706 0
M  V30 32 H -1.900546 1.234570 -0.003749 0
M  V30 33 H 0.947360 2.501452 -2.111676 0
M  V30 34 H 2.286573 4.418983 -1.312787 0
M  V30 35 H 2.894750 7.398697 0.544433 0
M  V30 36 H 3.210604 6.017239 -0.558338 0
M  V30 37 H 4.069835 6.146108 0.993384 0
M  V30 38 H 0.277033 4.304639 2.461859 0
M  V30 39 H -1.028034 2.443567 1.699009 0
M  V30 40 H 1.593775 -2.190756 -0.855174 0
M  V30 41 H 2.790886 -4.730071 -1.697115 0
M  V30 42 H 3.954555 -4.401103 -0.498991 0
M  V30 END ATOM
M  V30 BEGIN BOND
M  V30 1 1 1 2
M  V30 2 1 2 3
M  V30 3 1 3 4
M  V30 4 2 4 5
M  V30 5 1 5 6
M  V30 6 1 6 7
M  V30 7 1 7 8
M  V30 8 2 8 9
M  V30 9 1 8 10
M  V30 10 1 10 11
M  V30 11 2 11 12
M  V30 12 1 12 13
M  V30 13 2 13 14
M  V30 14 1 14 15
M  V30 15 1 15 16
M  V30 16 1 14 17
M  V30 17 2 17 18
M  V30 18 2 6 19
M  V30 19 1 19 20
M  V30 20 1 20 21
M  V30 21 2 20 22
M  V30 22 1 22 23
M  V30 23 3 23 24
M  V30 24 1 22 4
M  V30 25 1 18 11
M  V30 26 1 1 25
M  V30 27 1 1 26
M  V30 28 1 1 27
M  V30 29 1 2 28
M  V30 30 1 2 29
M  V30 31 1 7 30
M  V30 32 1 10 31
M  V30 33 1 10 32
M  V30 34 1 12 33
M  V30 35 1 13 34
M  V30 36 1 16 35
M  V30 37 1 16 36
M  V30 38 1 16 37
M  V30 39 1 17 38
M  V30 40 1 18 39
M  V30 41 1 19 40
M  V30 42 1 21 41
M  V30 43 1 21 42
M  V30 END BOND
M  V30 END CTAB
M  END
>  <Dataset>  (855) 
ChEMBL_Kinases

>  <Ligand_Instance>  (855) 
nan

>  <PDB_ID>  (855) 
nan

>  <Standardized_SMILES>  (855) 
CCOc1nc(NC(=O)Cc2ccc(OC)cc2)cc(N)c1C#N

>  <Name>  (855) 
nan

>  <Pocket>  (855) 
nan

>  <ATP_Site>  (855) 
nan

>  <Peripheral>  (855) 
nan

>  <Num_H_Atoms_ProtBoundConf>  (855) 
nan

>  <Num_Resolved_Atoms>  (855) 
nan

>  <Num_Not_Resolved_Atoms>  (855) 
nan

$$$$
CHEMBL2146883
     RDKit          3D

  0  0  0  0  0  0  0  0  0  0999 V3000
M  V30 BEGIN CTAB
M  V30 COUNTS 51 54 0 0 0
M  V30 BEGIN ATOM
M  V30 1 O -0.051342 0.710428 1.098435 0
M  V30 2 C 0.262916 0.385240 -0.063276 0
M  V30 3 C 0.913056 0.762288 -1.302171 0
M  V30 4 C 0.888933 -0.167399 -2.308661 0
M  V30 5 C 1.511906 0.224968 -3.469183 0
M  V30 6 C 2.110759 1.457348 -3.602153 0
M  V30 7 F 2.694558 1.736150 -4.792067 0
M  V30 8 C 2.089375 2.332232 -2.541352 0
M  V30 9 F 2.702389 3.511003 -2.794408 0
M  V30 10 C 1.479711 2.010935 -1.332469 0
M  V30 11 N 1.494098 2.965059 -0.286544 0
M  V30 12 C 2.280316 3.253867 0.859866 0
M  V30 13 C 1.671239 3.265248 2.114937 0
M  V30 14 C 2.346729 3.524463 3.283121 0
M  V30 15 C 3.684801 3.784071 3.204086 0
M  V30 16 I 4.779770 4.190250 4.968288 0
M  V30 17 C 4.341679 3.789252 2.012529 0
M  V30 18 C 3.625980 3.525973 0.883187 0
M  V30 19 F 4.288657 3.532993 -0.283471 0
M  V30 20 N -0.417306 -0.771328 0.388278 0
M  V30 21 C -1.009270 -0.948927 1.697706 0
M  V30 22 C -0.752708 -2.431072 1.530355 0
M  V30 23 O 0.541970 -2.744488 1.900091 0
M  V30 24 C -1.828942 -3.319409 2.116220 0 CFG=2
M  V30 25 C -1.555221 -4.763684 1.929925 0
M  V30 26 C -2.254141 -5.420975 0.783504 0
M  V30 27 C -3.605334 -4.878325 0.478781 0
M  V30 28 C -4.042118 -4.049456 1.683393 0
M  V30 29 N -3.134190 -2.893293 1.657656 0
M  V30 30 C -0.878636 -2.109394 0.078274 0
M  V30 31 H 0.437002 -1.128662 -2.246894 0
M  V30 32 H 1.525784 -0.473865 -4.307856 0
M  V30 33 H 0.695583 3.615535 -0.431442 0
M  V30 34 H 0.602966 3.073578 2.278803 0
M  V30 35 H 1.884175 3.534972 4.255344 0
M  V30 36 H 5.409564 3.998877 1.971239 0
M  V30 37 H -0.502843 -0.486842 2.554402 0
M  V30 38 H -2.100478 -0.733695 1.639163 0
M  V30 39 H 0.681131 -2.609432 2.873674 0
M  V30 40 H -1.812828 -3.100980 3.207054 0
M  V30 41 H -1.740444 -5.355850 2.865210 0
M  V30 42 H -0.453141 -4.878235 1.747050 0
M  V30 43 H -1.641414 -5.399299 -0.162429 0
M  V30 44 H -2.371685 -6.511682 1.008078 0
M  V30 45 H -4.370376 -5.655410 0.270613 0
M  V30 46 H -3.521753 -4.172928 -0.374401 0
M  V30 47 H -5.100860 -3.751882 1.636814 0
M  V30 48 H -3.769960 -4.605342 2.597808 0
M  V30 49 H -3.587601 -2.205774 2.330458 0
M  V30 50 H -0.266502 -2.707290 -0.608289 0
M  V30 51 H -1.928254 -2.036519 -0.272618 0
M  V30 END ATOM
M  V30 BEGIN BOND
M  V30 1 2 1 2
M  V30 2 1 2 3
M  V30 3 2 3 4
M  V30 4 1 4 5
M  V30 5 2 5 6
M  V30 6 1 6 7
M  V30 7 1 6 8
M  V30 8 1 8 9
M  V30 9 2 8 10
M  V30 10 1 10 11
M  V30 11 1 11 12
M  V30 12 2 12 13
M  V30 13 1 13 14
M  V30 14 2 14 15
M  V30 15 1 15 16
M  V30 16 1 15 17
M  V30 17 2 17 18
M  V30 18 1 18 19
M  V30 19 1 2 20
M  V30 20 1 20 21
M  V30 21 1 21 22
M  V30 22 1 22 23
M  V30 23 1 22 24
M  V30 24 1 24 25
M  V30 25 1 25 26
M  V30 26 1 26 27
M  V30 27 1 27 28
M  V30 28 1 28 29
M  V30 29 1 22 30
M  V30 30 1 10 3
M  V30 31 1 18 12
M  V30 32 1 30 20
M  V30 33 1 29 24
M  V30 34 1 4 31
M  V30 35 1 5 32
M  V30 36 1 11 33
M  V30 37 1 13 34
M  V30 38 1 14 35
M  V30 39 1 17 36
M  V30 40 1 21 37
M  V30 41 1 21 38
M  V30 42 1 23 39
M  V30 43 1 24 40 CFG=1
M  V30 44 1 25 41
M  V30 45 1 25 42
M  V30 46 1 26 43
M  V30 47 1 26 44
M  V30 48 1 27 45
M  V30 49 1 27 46
M  V30 50 1 28 47
M  V30 51 1 28 48
M  V30 52 1 29 49
M  V30 53 1 30 50
M  V30 54 1 30 51
M  V30 END BOND
M  V30 END CTAB
M  END
>  <Dataset>  (856) 
ChEMBL_Kinases

>  <Ligand_Instance>  (856) 
nan

>  <PDB_ID>  (856) 
nan

>  <Standardized_SMILES>  (856) 
O=C(c1ccc(F)c(F)c1Nc1ccc(I)cc1F)N1CC(O)([C@@H]2CCCCN2)C1

>  <Name>  (856) 
COBIMETINIB

>  <Pocket>  (856) 
nan

>  <ATP_Site>  (856) 
nan

>  <Peripheral>  (856) 
nan

>  <Num_H_Atoms_ProtBoundConf>  (856) 
nan

>  <Num_Resolved_Atoms>  (856) 
nan

>  <Num_Not_Resolved_Atoms>  (856) 
nan

$$$$
CHEMBL4592870
     RDKit          3D

  0  0  0  0  0  0  0  0  0  0999 V3000
M  V30 BEGIN CTAB
M  V30 COUNTS 56 59 0 0 0
M  V30 BEGIN ATOM
M  V30 1 C 8.092657 -0.811380 0.988091 0
M  V30 2 O 7.156070 -1.755538 1.409674 0
M  V30 3 C 5.889074 -1.470987 1.893617 0
M  V30 4 C 5.180382 -2.609198 2.236091 0
M  V30 5 C 3.892111 -2.479055 2.737189 0
M  V30 6 C 3.390148 -1.202871 2.864955 0
M  V30 7 C 4.050084 -0.037593 2.539991 0
M  V30 8 C 3.465660 1.298562 2.696003 0
M  V30 9 C 2.767058 1.733932 1.451690 0
M  V30 10 C 1.657786 0.866472 1.018723 0
M  V30 11 O 0.942350 -0.155322 1.183830 0
M  V30 12 N 1.071980 1.422685 -0.183610 0
M  V30 13 C -0.041332 0.703946 -0.764131 0
M  V30 14 C -1.401372 0.846227 -0.498669 0
M  V30 15 C -2.265178 0.026773 -1.195916 0
M  V30 16 C -3.672921 0.215659 -0.876299 0
M  V30 17 N -4.664511 1.131599 -0.925700 0
M  V30 18 C -5.798554 0.603783 -0.427317 0
M  V30 19 S -7.279034 1.601380 -0.371983 0
M  V30 20 C -8.244964 1.410152 -1.900748 0
M  V30 21 N -5.543918 -0.669112 -0.049189 0
M  V30 22 C -4.229089 -0.938807 -0.316600 0
M  V30 23 C -3.803879 -2.302497 0.042254 0
M  V30 24 C -4.387316 -3.436868 -0.476699 0
M  V30 25 C -3.954015 -4.681762 -0.112351 0
M  V30 26 C -2.917987 -4.806678 0.787584 0
M  V30 27 F -2.480249 -6.035703 1.155550 0
M  V30 28 C -2.297848 -3.714964 1.337924 0
M  V30 29 C -2.757029 -2.456213 0.951241 0
M  V30 30 C -1.789927 -0.890628 -2.114759 0
M  V30 31 C -0.421693 -0.996672 -2.346769 0
M  V30 32 N 0.409840 -0.192452 -1.660664 0
M  V30 33 C 5.325808 -0.215833 2.046477 0
M  V30 34 H 9.010485 -1.382586 0.705923 0
M  V30 35 H 8.343338 -0.066037 1.781707 0
M  V30 36 H 7.664045 -0.259112 0.134724 0
M  V30 37 H 5.562126 -3.626569 2.141462 0
M  V30 38 H 3.328837 -3.360295 3.008134 0
M  V30 39 H 2.379801 -1.165844 3.266561 0
M  V30 40 H 4.309036 1.989719 2.918423 0
M  V30 41 H 2.816190 1.347189 3.597137 0
M  V30 42 H 3.524188 1.779265 0.636268 0
M  V30 43 H 2.394611 2.790882 1.584740 0
M  V30 44 H 1.241290 2.271937 -0.806156 0
M  V30 45 H -1.597626 1.599377 0.236636 0
M  V30 46 H -4.336984 2.047945 -1.338335 0
M  V30 47 H -8.897860 2.288818 -2.052398 0
M  V30 48 H -8.903901 0.522445 -1.807111 0
M  V30 49 H -7.574280 1.212225 -2.775013 0
M  V30 50 H -5.179561 -3.261947 -1.163476 0
M  V30 51 H -4.432653 -5.550313 -0.537080 0
M  V30 52 H -1.480865 -3.793848 2.047846 0
M  V30 53 H -2.275092 -1.588321 1.377776 0
M  V30 54 H -2.519851 -1.503844 -2.628824 0
M  V30 55 H -0.050475 -1.723629 -3.076027 0
M  V30 56 H 5.958517 0.625641 1.750445 0
M  V30 END ATOM
M  V30 BEGIN BOND
M  V30 1 1 1 2
M  V30 2 1 2 3
M  V30 3 2 3 4
M  V30 4 1 4 5
M  V30 5 2 5 6
M  V30 6 1 6 7
M  V30 7 1 7 8
M  V30 8 1 8 9
M  V30 9 1 9 10
M  V30 10 2 10 11
M  V30 11 1 10 12
M  V30 12 1 12 13
M  V30 13 2 13 14
M  V30 14 1 14 15
M  V30 15 1 15 16
M  V30 16 1 16 17
M  V30 17 1 17 18
M  V30 18 1 18 19
M  V30 19 1 19 20
M  V30 20 2 18 21
M  V30 21 1 21 22
M  V30 22 1 22 23
M  V30 23 2 23 24
M  V30 24 1 24 25
M  V30 25 2 25 26
M  V30 26 1 26 27
M  V30 27 1 26 28
M  V30 28 2 28 29
M  V30 29 2 15 30
M  V30 30 1 30 31
M  V30 31 2 31 32
M  V30 32 2 7 33
M  V30 33 1 33 3
M  V30 34 1 32 13
M  V30 35 2 22 16
M  V30 36 1 29 23
M  V30 37 1 1 34
M  V30 38 1 1 35
M  V30 39 1 1 36
M  V30 40 1 4 37
M  V30 41 1 5 38
M  V30 42 1 6 39
M  V30 43 1 8 40
M  V30 44 1 8 41
M  V30 45 1 9 42
M  V30 46 1 9 43
M  V30 47 1 12 44
M  V30 48 1 14 45
M  V30 49 1 17 46
M  V30 50 1 20 47
M  V30 51 1 20 48
M  V30 52 1 20 49
M  V30 53 1 24 50
M  V30 54 1 25 51
M  V30 55 1 28 52
M  V30 56 1 29 53
M  V30 57 1 30 54
M  V30 58 1 31 55
M  V30 59 1 33 56
M  V30 END BOND
M  V30 END CTAB
M  END
>  <Dataset>  (857) 
ChEMBL_Kinases

>  <Ligand_Instance>  (857) 
nan

>  <PDB_ID>  (857) 
nan

>  <Standardized_SMILES>  (857) 
COc1cccc(CCC(=O)Nc2cc(-c3[nH]c(SC)nc3-c3ccc(F)cc3)ccn2)c1

>  <Name>  (857) 
nan

>  <Pocket>  (857) 
nan

>  <ATP_Site>  (857) 
nan

>  <Peripheral>  (857) 
nan

>  <Num_H_Atoms_ProtBoundConf>  (857) 
nan

>  <Num_Resolved_Atoms>  (857) 
nan

>  <Num_Not_Resolved_Atoms>  (857) 
nan

$$$$
CHEMBL2147532
     RDKit          3D

  0  0  0  0  0  0  0  0  0  0999 V3000
M  V30 BEGIN CTAB
M  V30 COUNTS 35 37 0 0 0
M  V30 BEGIN ATOM
M  V30 1 N 0.581063 -1.668883 4.147385 0
M  V30 2 C 1.119159 -2.235931 2.926268 0
M  V30 3 C 0.042494 -2.998556 2.174146 0
M  V30 4 N -1.074023 -2.189886 1.796013 0
M  V30 5 C -0.888059 -1.088733 0.921067 0
M  V30 6 N 0.336828 -0.809700 0.442178 0
M  V30 7 C 0.564558 0.220320 -0.392623 0
M  V30 8 C 1.934608 0.417286 -0.844163 0
M  V30 9 C 2.942282 -0.422304 -0.427920 0
M  V30 10 C 4.273476 -0.286924 -0.822905 0
M  V30 11 N 4.602379 0.707821 -1.650379 0
M  V30 12 C 3.669005 1.550007 -2.084949 0
M  V30 13 C 2.345887 1.417497 -1.693892 0
M  V30 14 C -0.449671 1.055478 -0.808872 0
M  V30 15 C -1.726726 0.811326 -0.345230 0
M  V30 16 N -2.740129 1.610565 -0.734332 0
M  V30 17 C -3.992332 1.367826 -0.277195 0
M  V30 18 C -4.254439 0.320808 0.577950 0
M  V30 19 C -3.191675 -0.474264 0.953152 0
M  V30 20 C -1.906124 -0.256555 0.507845 0
M  V30 21 H 0.599608 -0.631255 4.166283 0
M  V30 22 H -0.356443 -2.082825 4.323834 0
M  V30 23 H 1.624181 -1.470695 2.324607 0
M  V30 24 H 1.894703 -2.965719 3.236179 0
M  V30 25 H -0.180925 -3.897525 2.751326 0
M  V30 26 H 0.495347 -3.373403 1.211961 0
M  V30 27 H -1.964720 -2.507979 2.225580 0
M  V30 28 H 2.777008 -1.254518 0.239151 0
M  V30 29 H 5.059327 -0.944921 -0.495807 0
M  V30 30 H 3.965151 2.344821 -2.753449 0
M  V30 31 H 1.617175 2.121087 -2.068146 0
M  V30 32 H -0.302215 1.874807 -1.465503 0
M  V30 33 H -4.821886 2.005932 -0.583410 0
M  V30 34 H -5.271551 0.149743 0.929368 0
M  V30 35 H -3.429158 -1.286203 1.623773 0
M  V30 END ATOM
M  V30 BEGIN BOND
M  V30 1 1 1 2
M  V30 2 1 2 3
M  V30 3 1 3 4
M  V30 4 1 4 5
M  V30 5 2 5 6
M  V30 6 1 6 7
M  V30 7 1 7 8
M  V30 8 2 8 9
M  V30 9 1 9 10
M  V30 10 2 10 11
M  V30 11 1 11 12
M  V30 12 2 12 13
M  V30 13 2 7 14
M  V30 14 1 14 15
M  V30 15 2 15 16
M  V30 16 1 16 17
M  V30 17 2 17 18
M  V30 18 1 18 19
M  V30 19 2 19 20
M  V30 20 1 20 5
M  V30 21 1 13 8
M  V30 22 1 20 15
M  V30 23 1 1 21
M  V30 24 1 1 22
M  V30 25 1 2 23
M  V30 26 1 2 24
M  V30 27 1 3 25
M  V30 28 1 3 26
M  V30 29 1 4 27
M  V30 30 1 9 28
M  V30 31 1 10 29
M  V30 32 1 12 30
M  V30 33 1 13 31
M  V30 34 1 14 32
M  V30 35 1 17 33
M  V30 36 1 18 34
M  V30 37 1 19 35
M  V30 END BOND
M  V30 END CTAB
M  END
>  <Dataset>  (858) 
ChEMBL_Kinases

>  <Ligand_Instance>  (858) 
nan

>  <PDB_ID>  (858) 
nan

>  <Standardized_SMILES>  (858) 
NCCNc1nc(-c2ccncc2)cc2ncccc12

>  <Name>  (858) 
nan

>  <Pocket>  (858) 
nan

>  <ATP_Site>  (858) 
nan

>  <Peripheral>  (858) 
nan

>  <Num_H_Atoms_ProtBoundConf>  (858) 
nan

>  <Num_Resolved_Atoms>  (858) 
nan

>  <Num_Not_Resolved_Atoms>  (858) 
nan

$$$$
CHEMBL3109954
     RDKit          3D

  0  0  0  0  0  0  0  0  0  0999 V3000
M  V30 BEGIN CTAB
M  V30 COUNTS 41 44 0 0 0
M  V30 BEGIN ATOM
M  V30 1 C 0.068287 -5.146341 -0.557860 0
M  V30 2 C -0.088509 -3.817854 0.104269 0
M  V30 3 O 0.785758 -2.820858 -0.324997 0
M  V30 4 C 0.924522 -2.312564 -1.584932 0
M  V30 5 C 0.203857 -2.710449 -2.677405 0
M  V30 6 C 0.352028 -2.190622 -3.946839 0
M  V30 7 C 1.271742 -1.213081 -4.155293 0
M  V30 8 C 2.040778 -0.763156 -3.075908 0
M  V30 9 C 1.873543 -1.304959 -1.795469 0
M  V30 10 N 2.713781 -0.769861 -0.778964 0
M  V30 11 C 2.321570 -0.099223 0.409781 0
M  V30 12 C 0.991825 0.127899 0.685905 0
M  V30 13 C 0.680697 0.783716 1.863055 0
M  V30 14 N -0.521811 1.125740 2.365691 0
M  V30 15 C -0.350268 1.762415 3.559630 0
M  V30 16 C -1.399033 2.303797 4.447823 0
M  V30 17 C -1.232842 2.952243 5.660507 0
M  V30 18 N -2.496049 3.252361 6.083192 0
M  V30 19 N -3.381816 2.818024 5.190825 0
M  V30 20 C -2.748172 2.221133 4.155899 0
M  V30 21 C 1.011350 1.806262 3.786493 0
M  V30 22 C 1.680862 1.190760 2.721825 0
M  V30 23 C 3.006782 0.935525 2.392979 0
M  V30 24 N 3.303676 0.293441 1.239845 0
M  V30 25 H 0.835716 -5.057426 -1.373533 0
M  V30 26 H 0.415766 -5.964955 0.131668 0
M  V30 27 H -0.875355 -5.542640 -1.004276 0
M  V30 28 H -1.161583 -3.466746 0.151116 0
M  V30 29 H 0.152496 -3.994170 1.193916 0
M  V30 30 H -0.540457 -3.486131 -2.560816 0
M  V30 31 H -0.243454 -2.532635 -4.802813 0
M  V30 32 H 1.459490 -0.741783 -5.125793 0
M  V30 33 H 2.774928 0.025832 -3.271597 0
M  V30 34 H 3.709481 -0.942604 -1.031697 0
M  V30 35 H 0.187319 -0.176901 0.032269 0
M  V30 36 H -1.468648 0.945927 1.931978 0
M  V30 37 H -0.286574 3.158517 6.138913 0
M  V30 38 H -4.415243 2.968350 5.360869 0
M  V30 39 H -3.278138 1.786163 3.299284 0
M  V30 40 H 1.498922 2.235689 4.631507 0
M  V30 41 H 3.775610 1.265113 3.084034 0
M  V30 END ATOM
M  V30 BEGIN BOND
M  V30 1 1 1 2
M  V30 2 1 2 3
M  V30 3 1 3 4
M  V30 4 2 4 5
M  V30 5 1 5 6
M  V30 6 2 6 7
M  V30 7 1 7 8
M  V30 8 2 8 9
M  V30 9 1 9 10
M  V30 10 1 10 11
M  V30 11 2 11 12
M  V30 12 1 12 13
M  V30 13 1 13 14
M  V30 14 1 14 15
M  V30 15 1 15 16
M  V30 16 1 16 17
M  V30 17 2 17 18
M  V30 18 1 18 19
M  V30 19 1 19 20
M  V30 20 2 15 21
M  V30 21 1 21 22
M  V30 22 1 22 23
M  V30 23 2 23 24
M  V30 24 1 9 4
M  V30 25 1 24 11
M  V30 26 2 22 13
M  V30 27 2 20 16
M  V30 28 1 1 25
M  V30 29 1 1 26
M  V30 30 1 1 27
M  V30 31 1 2 28
M  V30 32 1 2 29
M  V30 33 1 5 30
M  V30 34 1 6 31
M  V30 35 1 7 32
M  V30 36 1 8 33
M  V30 37 1 10 34
M  V30 38 1 12 35
M  V30 39 1 14 36
M  V30 40 1 17 37
M  V30 41 1 19 38
M  V30 42 1 20 39
M  V30 43 1 21 40
M  V30 44 1 23 41
M  V30 END BOND
M  V30 END CTAB
M  END
>  <Dataset>  (859) 
ChEMBL_Kinases

>  <Ligand_Instance>  (859) 
nan

>  <PDB_ID>  (859) 
nan

>  <Standardized_SMILES>  (859) 
CCOc1ccccc1Nc1cc2[nH]c(-c3cn[nH]c3)cc2cn1

>  <Name>  (859) 
nan

>  <Pocket>  (859) 
nan

>  <ATP_Site>  (859) 
nan

>  <Peripheral>  (859) 
nan

>  <Num_H_Atoms_ProtBoundConf>  (859) 
nan

>  <Num_Resolved_Atoms>  (859) 
nan

>  <Num_Not_Resolved_Atoms>  (859) 
nan

$$$$
CHEMBL3680495
     RDKit          3D

  0  0  0  0  0  0  0  0  0  0999 V3000
M  V30 BEGIN CTAB
M  V30 COUNTS 62 65 0 0 0
M  V30 BEGIN ATOM
M  V30 1 C 3.813995 -2.209632 3.854327 0
M  V30 2 C 4.563581 -1.181994 3.040390 0
M  V30 3 C 5.451753 -1.938370 2.061425 0
M  V30 4 C 3.619930 -0.259693 2.299332 0
M  V30 5 N 4.314735 0.737758 1.509193 0
M  V30 6 C 3.534763 1.666709 0.764897 0
M  V30 7 C 2.135850 1.607261 0.804563 0
M  V30 8 C 1.409742 2.523161 0.070751 0
M  V30 9 C -0.040741 2.402084 0.159054 0
M  V30 10 O -0.534882 1.484126 0.891120 0
M  V30 11 N -1.005170 3.200747 -0.486272 0
M  V30 12 C -2.314542 2.724038 -0.112450 0
M  V30 13 C -3.057281 3.155197 0.967504 0
M  V30 14 C -4.289800 2.572764 1.155753 0
M  V30 15 C -4.752915 1.588177 0.280593 0
M  V30 16 C -3.986304 1.161796 -0.810669 0
M  V30 17 C -4.711786 0.125174 -1.569905 0
M  V30 18 N -4.502401 -1.223892 -1.058229 0
M  V30 19 C -3.259452 -1.898089 -1.002274 0
M  V30 20 N -2.114942 -1.351017 -1.430880 0
M  V30 21 C -0.916873 -1.911579 -1.416603 0
M  V30 22 N -0.803544 -3.170427 -0.922644 0
M  V30 23 C -1.894971 -3.813587 -0.464266 0
M  V30 24 C -1.805194 -5.090799 0.041596 0
M  V30 25 C -0.497681 -5.737547 0.071833 0
M  V30 26 N 0.667125 -5.079541 -0.405160 0
M  V30 27 O -0.252930 -6.874643 0.492382 0
M  V30 28 C -2.890573 -5.807404 0.529069 0
M  V30 29 C -4.098593 -5.145147 0.475059 0
M  V30 30 C -4.199208 -3.867184 -0.029163 0
M  V30 31 C -3.112297 -3.172925 -0.507818 0
M  V30 32 C -2.760445 1.756215 -0.979926 0
M  V30 33 C 1.973452 3.506444 -0.709622 0
M  V30 34 C 3.353424 3.507720 -0.703011 0
M  V30 35 N 4.108205 2.623462 0.005742 0
M  V30 36 H 3.983373 -1.962964 4.918985 0
M  V30 37 H 2.731437 -2.140352 3.649158 0
M  V30 38 H 4.133478 -3.254538 3.612816 0
M  V30 39 H 5.235887 -0.543975 3.647672 0
M  V30 40 H 6.487179 -2.043745 2.438330 0
M  V30 41 H 5.420332 -1.375933 1.084522 0
M  V30 42 H 5.010088 -2.947033 1.847188 0
M  V30 43 H 2.975545 -0.926174 1.676851 0
M  V30 44 H 2.936242 0.191617 3.041089 0
M  V30 45 H 5.339416 0.805021 1.461525 0
M  V30 46 H 1.703125 0.835299 1.417228 0
M  V30 47 H -0.618722 3.975669 -1.104224 0
M  V30 48 H -2.597313 3.916726 1.569678 0
M  V30 49 H -4.844755 2.929777 2.005670 0
M  V30 50 H -5.744382 1.232424 0.571310 0
M  V30 51 H -5.771025 0.383979 -1.714556 0
M  V30 52 H -4.279032 0.189572 -2.620157 0
M  V30 53 H -5.395740 -1.641364 -0.730502 0
M  V30 54 H -0.117305 -1.313531 -1.804239 0
M  V30 55 H 0.740614 -4.990987 -1.445021 0
M  V30 56 H 1.549206 -4.614983 -0.039146 0
M  V30 57 H -2.743881 -6.796678 0.906998 0
M  V30 58 H -4.948713 -5.719067 0.862079 0
M  V30 59 H -5.196508 -3.459457 -0.016839 0
M  V30 60 H -2.245353 1.371178 -1.847489 0
M  V30 61 H 1.399240 4.217041 -1.278900 0
M  V30 62 H 3.912357 4.250876 -1.292008 0
M  V30 END ATOM
M  V30 BEGIN BOND
M  V30 1 1 1 2
M  V30 2 1 2 3
M  V30 3 1 2 4
M  V30 4 1 4 5
M  V30 5 1 5 6
M  V30 6 2 6 7
M  V30 7 1 7 8
M  V30 8 1 8 9
M  V30 9 2 9 10
M  V30 10 1 9 11
M  V30 11 1 11 12
M  V30 12 2 12 13
M  V30 13 1 13 14
M  V30 14 2 14 15
M  V30 15 1 15 16
M  V30 16 1 16 17
M  V30 17 1 17 18
M  V30 18 1 18 19
M  V30 19 2 19 20
M  V30 20 1 20 21
M  V30 21 2 21 22
M  V30 22 1 22 23
M  V30 23 2 23 24
M  V30 24 1 24 25
M  V30 25 1 25 26
M  V30 26 2 25 27
M  V30 27 1 24 28
M  V30 28 2 28 29
M  V30 29 1 29 30
M  V30 30 2 30 31
M  V30 31 2 16 32
M  V30 32 2 8 33
M  V30 33 1 33 34
M  V30 34 2 34 35
M  V30 35 1 35 6
M  V30 36 1 32 12
M  V30 37 1 31 19
M  V30 38 1 31 23
M  V30 39 1 1 36
M  V30 40 1 1 37
M  V30 41 1 1 38
M  V30 42 1 2 39
M  V30 43 1 3 40
M  V30 44 1 3 41
M  V30 45 1 3 42
M  V30 46 1 4 43
M  V30 47 1 4 44
M  V30 48 1 5 45
M  V30 49 1 7 46
M  V30 50 1 11 47
M  V30 51 1 13 48
M  V30 52 1 14 49
M  V30 53 1 15 50
M  V30 54 1 17 51
M  V30 55 1 17 52
M  V30 56 1 18 53
M  V30 57 1 21 54
M  V30 58 1 26 55
M  V30 59 1 26 56
M  V30 60 1 28 57
M  V30 61 1 29 58
M  V30 62 1 30 59
M  V30 63 1 32 60
M  V30 64 1 33 61
M  V30 65 1 34 62
M  V30 END BOND
M  V30 END CTAB
M  END
>  <Dataset>  (860) 
ChEMBL_Kinases

>  <Ligand_Instance>  (860) 
nan

>  <PDB_ID>  (860) 
nan

>  <Standardized_SMILES>  (860) 
CC(C)CNc1cc(C(=O)Nc2cccc(CNc3ncnc4c(C(N)=O)cccc34)c2)ccn1

>  <Name>  (860) 
nan

>  <Pocket>  (860) 
nan

>  <ATP_Site>  (860) 
nan

>  <Peripheral>  (860) 
nan

>  <Num_H_Atoms_ProtBoundConf>  (860) 
nan

>  <Num_Resolved_Atoms>  (860) 
nan

>  <Num_Not_Resolved_Atoms>  (860) 
nan

$$$$
CHEMBL3701724
     RDKit          3D

  0  0  0  0  0  0  0  0  0  0999 V3000
M  V30 BEGIN CTAB
M  V30 COUNTS 57 62 0 0 0
M  V30 BEGIN ATOM
M  V30 1 C 6.636837 -0.378132 2.665100 0
M  V30 2 C 5.213004 -0.279225 2.228370 0
M  V30 3 O 4.346387 -0.640748 3.241706 0
M  V30 4 C 4.826587 0.974505 1.483064 0
M  V30 5 C 4.165379 0.162103 0.421970 0
M  V30 6 N 4.637157 0.575378 -0.885960 0
M  V30 7 C 2.729252 -0.101194 0.535867 0
M  V30 8 C 1.811440 0.277179 1.494845 0
M  V30 9 C 0.484313 -0.090207 1.399249 0
M  V30 10 C 0.030221 -0.849010 0.340351 0
M  V30 11 C -1.399983 -1.138299 0.410294 0
M  V30 12 N -2.066951 -1.819094 1.370886 0
M  V30 13 C -3.352588 -1.846585 1.039082 0
M  V30 14 N -3.511745 -1.190954 -0.121969 0
M  V30 15 C -2.321704 -0.731742 -0.552021 0
M  V30 16 C -2.008066 0.031177 -1.756718 0
M  V30 17 C -2.319071 -0.638700 -2.936748 0
M  V30 18 C -2.091223 -0.071104 -4.185697 0
M  V30 19 C -1.540666 1.192202 -4.225864 0
M  V30 20 C -1.231154 1.859076 -3.057206 0
M  V30 21 C -1.457074 1.295957 -1.810290 0
M  V30 22 C -4.782570 -1.029178 -0.770972 0
M  V30 23 O -5.841746 -1.623998 -0.071555 0
M  V30 24 C -5.735669 -2.301314 1.110693 0
M  V30 25 C -6.814920 -2.868071 1.756313 0
M  V30 26 C -6.719481 -3.551642 2.946042 0
M  V30 27 C -5.457145 -3.676299 3.529236 0
M  V30 28 F -5.407916 -4.356379 4.699346 0
M  V30 29 C -4.355754 -3.105936 2.884009 0
M  V30 30 C -4.512049 -2.437987 1.702951 0
M  V30 31 C 0.927992 -1.240191 -0.631876 0
M  V30 32 C 2.255497 -0.871874 -0.534891 0
M  V30 33 C 5.007770 -1.025500 0.908509 0
M  V30 34 H 6.746406 -0.463699 3.776072 0
M  V30 35 H 7.072739 -1.307096 2.243458 0
M  V30 36 H 7.258768 0.464484 2.277543 0
M  V30 37 H 4.787207 -1.199880 3.930149 0
M  V30 38 H 4.126714 1.612266 2.024591 0
M  V30 39 H 5.712675 1.571513 1.140806 0
M  V30 40 H 3.915718 0.458308 -1.623211 0
M  V30 41 H 5.574828 0.204913 -1.132984 0
M  V30 42 H 2.255532 0.864038 2.279268 0
M  V30 43 H -0.119720 0.282426 2.230656 0
M  V30 44 H -2.755835 -1.637032 -3.004631 0
M  V30 45 H -2.326652 -0.576899 -5.116592 0
M  V30 46 H -1.359973 1.641591 -5.193717 0
M  V30 47 H -0.800591 2.846853 -3.085546 0
M  V30 48 H -1.241139 1.755961 -0.856266 0
M  V30 49 H -4.986031 0.081108 -0.764955 0
M  V30 50 H -4.825334 -1.432393 -1.803235 0
M  V30 51 H -7.797093 -2.785569 1.327058 0
M  V30 52 H -7.593856 -3.976273 3.410368 0
M  V30 53 H -3.393273 -3.228262 3.374905 0
M  V30 54 H 0.501134 -1.827397 -1.422687 0
M  V30 55 H 2.832242 -1.259593 -1.380502 0
M  V30 56 H 5.940136 -1.182915 0.332246 0
M  V30 57 H 4.393051 -1.924418 1.102181 0
M  V30 END ATOM
M  V30 BEGIN BOND
M  V30 1 1 1 2
M  V30 2 1 2 3
M  V30 3 1 2 4
M  V30 4 1 4 5
M  V30 5 1 5 6
M  V30 6 1 5 7
M  V30 7 2 7 8
M  V30 8 1 8 9
M  V30 9 2 9 10
M  V30 10 1 10 11
M  V30 11 1 11 12
M  V30 12 2 12 13
M  V30 13 1 13 14
M  V30 14 1 14 15
M  V30 15 1 15 16
M  V30 16 2 16 17
M  V30 17 1 17 18
M  V30 18 2 18 19
M  V30 19 1 19 20
M  V30 20 2 20 21
M  V30 21 1 14 22
M  V30 22 1 22 23
M  V30 23 1 23 24
M  V30 24 2 24 25
M  V30 25 1 25 26
M  V30 26 2 26 27
M  V30 27 1 27 28
M  V30 28 1 27 29
M  V30 29 2 29 30
M  V30 30 1 10 31
M  V30 31 2 31 32
M  V30 32 1 5 33
M  V30 33 1 33 2
M  V30 34 1 32 7
M  V30 35 2 15 11
M  V30 36 1 21 16
M  V30 37 1 30 24
M  V30 38 1 30 13
M  V30 39 1 1 34
M  V30 40 1 1 35
M  V30 41 1 1 36
M  V30 42 1 3 37
M  V30 43 1 4 38
M  V30 44 1 4 39
M  V30 45 1 6 40
M  V30 46 1 6 41
M  V30 47 1 8 42
M  V30 48 1 9 43
M  V30 49 1 17 44
M  V30 50 1 18 45
M  V30 51 1 19 46
M  V30 52 1 20 47
M  V30 53 1 21 48
M  V30 54 1 22 49
M  V30 55 1 22 50
M  V30 56 1 25 51
M  V30 57 1 26 52
M  V30 58 1 29 53
M  V30 59 1 31 54
M  V30 60 1 32 55
M  V30 61 1 33 56
M  V30 62 1 33 57
M  V30 END BOND
M  V30 END CTAB
M  END
>  <Dataset>  (861) 
ChEMBL_Kinases

>  <Ligand_Instance>  (861) 
nan

>  <PDB_ID>  (861) 
nan

>  <Standardized_SMILES>  (861) 
CC1(O)CC(N)(c2ccc(-c3nc4n(c3-c3ccccc3)COc3ccc(F)cc3-4)cc2)C1

>  <Name>  (861) 
nan

>  <Pocket>  (861) 
nan

>  <ATP_Site>  (861) 
nan

>  <Peripheral>  (861) 
nan

>  <Num_H_Atoms_ProtBoundConf>  (861) 
nan

>  <Num_Resolved_Atoms>  (861) 
nan

>  <Num_Not_Resolved_Atoms>  (861) 
nan

$$$$
CHEMBL4277887
     RDKit          3D

  0  0  0  0  0  0  0  0  0  0999 V3000
M  V30 BEGIN CTAB
M  V30 COUNTS 46 50 0 0 0
M  V30 BEGIN ATOM
M  V30 1 N -5.138058 -2.376896 0.674247 0
M  V30 2 C -3.760637 -2.012062 0.637182 0
M  V30 3 N -3.524780 -0.668582 0.652278 0
M  V30 4 C -2.263689 -0.196992 0.620641 0
M  V30 5 O -1.932156 1.068555 0.631421 0
M  V30 6 C -0.703534 1.501695 0.600145 0
M  V30 7 C -0.404133 2.834530 0.613054 0
M  V30 8 C 0.900664 3.277387 0.579530 0
M  V30 9 C 1.974660 2.438502 0.531769 0
M  V30 10 N 3.310916 2.908561 0.495895 0
M  V30 11 C 3.685545 4.303573 0.459902 0
M  V30 12 C 4.517722 4.572219 1.710239 0
M  V30 13 O 5.659031 3.776652 1.638206 0
M  V30 14 C 5.252453 2.430137 1.782751 0
M  V30 15 C 4.497117 2.078206 0.492774 0
M  V30 16 C 1.648782 1.106810 0.519732 0
M  V30 17 C 0.357857 0.623026 0.552162 0
M  V30 18 C 0.072131 -0.720861 0.538639 0
M  V30 19 O 1.028972 -1.562229 0.494562 0
M  V30 20 C -1.243979 -1.136506 0.572953 0
M  V30 21 C -1.442703 -2.503592 0.556302 0
M  V30 22 C -2.752059 -2.939975 0.590037 0
M  V30 23 C -3.113919 -4.353699 0.577593 0
M  V30 24 O -4.341301 -4.629016 0.611041 0
M  V30 25 N -2.164419 -5.400575 0.530618 0
M  V30 26 C -2.593827 -6.758776 0.521001 0
M  V30 27 N -3.853769 -7.219777 0.552211 0
M  V30 28 N -3.826888 -8.550941 0.528910 0
M  V30 29 N -2.555469 -8.958847 0.482678 0
M  V30 30 N -1.804609 -7.847562 0.478199 0
M  V30 31 H -5.394507 -2.580199 1.672242 0
M  V30 32 H -5.500611 -2.336384 -0.315717 0
M  V30 33 H -1.258260 3.511145 0.651182 0
M  V30 34 H 0.985588 4.342096 0.595551 0
M  V30 35 H 2.851949 5.010284 0.365607 0
M  V30 36 H 4.405654 4.419374 -0.404844 0
M  V30 37 H 3.982068 4.245715 2.634163 0
M  V30 38 H 4.755271 5.636927 1.837992 0
M  V30 39 H 6.095088 1.748490 1.944499 0
M  V30 40 H 4.488421 2.431734 2.587575 0
M  V30 41 H 5.154631 2.372258 -0.363230 0
M  V30 42 H 4.278570 1.002257 0.499497 0
M  V30 43 H 2.397466 0.331430 0.482942 0
M  V30 44 H -0.636876 -3.209939 0.519233 0
M  V30 45 H -1.153096 -5.183725 0.502921 0
M  V30 46 H -2.048978 -9.870892 0.451615 0
M  V30 END ATOM
M  V30 BEGIN BOND
M  V30 1 1 1 2
M  V30 2 2 2 3
M  V30 3 1 3 4
M  V30 4 1 4 5
M  V30 5 1 5 6
M  V30 6 2 6 7
M  V30 7 1 7 8
M  V30 8 2 8 9
M  V30 9 1 9 10
M  V30 10 1 10 11
M  V30 11 1 11 12
M  V30 12 1 12 13
M  V30 13 1 13 14
M  V30 14 1 14 15
M  V30 15 1 9 16
M  V30 16 2 16 17
M  V30 17 1 17 18
M  V30 18 2 18 19
M  V30 19 1 18 20
M  V30 20 1 20 21
M  V30 21 2 21 22
M  V30 22 1 22 23
M  V30 23 2 23 24
M  V30 24 1 23 25
M  V30 25 1 25 26
M  V30 26 1 26 27
M  V30 27 2 27 28
M  V30 28 1 28 29
M  V30 29 1 29 30
M  V30 30 1 22 2
M  V30 31 2 30 26
M  V30 32 2 20 4
M  V30 33 1 17 6
M  V30 34 1 15 10
M  V30 35 1 1 31
M  V30 36 1 1 32
M  V30 37 1 7 33
M  V30 38 1 8 34
M  V30 39 1 11 35
M  V30 40 1 11 36
M  V30 41 1 12 37
M  V30 42 1 12 38
M  V30 43 1 14 39
M  V30 44 1 14 40
M  V30 45 1 15 41
M  V30 46 1 15 42
M  V30 47 1 16 43
M  V30 48 1 21 44
M  V30 49 1 25 45
M  V30 50 1 29 46
M  V30 END BOND
M  V30 END CTAB
M  END
>  <Dataset>  (862) 
ChEMBL_Kinases

>  <Ligand_Instance>  (862) 
nan

>  <PDB_ID>  (862) 
nan

>  <Standardized_SMILES>  (862) 
Nc1nc2oc3ccc(N4CCOCC4)cc3c(=O)c2cc1C(=O)Nc1nn[nH]n1

>  <Name>  (862) 
nan

>  <Pocket>  (862) 
nan

>  <ATP_Site>  (862) 
nan

>  <Peripheral>  (862) 
nan

>  <Num_H_Atoms_ProtBoundConf>  (862) 
nan

>  <Num_Resolved_Atoms>  (862) 
nan

>  <Num_Not_Resolved_Atoms>  (862) 
nan

$$$$
CHEMBL3701723
     RDKit          3D

  0  0  0  0  0  0  0  0  0  0999 V3000
M  V30 BEGIN CTAB
M  V30 COUNTS 56 61 0 0 0
M  V30 BEGIN ATOM
M  V30 1 C 5.937811 -0.532099 4.156276 0
M  V30 2 C 4.612781 -0.482838 3.452191 0
M  V30 3 O 3.646301 -1.260274 4.046378 0
M  V30 4 C 4.072490 0.926187 3.206940 0
M  V30 5 C 3.812945 0.605498 1.779667 0
M  V30 6 N 4.463564 1.586246 0.901997 0
M  V30 7 C 2.472395 0.231999 1.365491 0
M  V30 8 C 1.411410 0.156544 2.233649 0
M  V30 9 C 0.154972 -0.197607 1.820311 0
M  V30 10 C -0.101992 -0.496844 0.500261 0
M  V30 11 C -1.352235 -0.887690 -0.137131 0
M  V30 12 N -1.396238 -2.149964 -0.656908 0
M  V30 13 C -2.602383 -2.365717 -1.205545 0
M  V30 14 N -3.329029 -1.241598 -1.036557 0
M  V30 15 C -2.577576 -0.348507 -0.392445 0
M  V30 16 C -2.856204 1.014326 0.042061 0
M  V30 17 C -2.945395 1.591369 1.292448 0
M  V30 18 C -3.226301 2.936913 1.387962 0
M  V30 19 N -3.415179 3.699476 0.297478 0
M  V30 20 C -3.339819 3.189557 -0.937850 0
M  V30 21 C -3.056503 1.827127 -1.081264 0
M  V30 22 C -4.672011 -1.153145 -1.516867 0
M  V30 23 O -5.129444 -2.308074 -2.152594 0
M  V30 24 C -4.445882 -3.474359 -2.355020 0
M  V30 25 C -5.034490 -4.538521 -3.005073 0
M  V30 26 C -4.283509 -5.696435 -3.178294 0
M  V30 27 C -2.981647 -5.788255 -2.715202 0
M  V30 28 C -2.419466 -4.706601 -2.068313 0
M  V30 29 F -1.154570 -4.720694 -1.588679 0
M  V30 30 C -3.164603 -3.542814 -1.890459 0
M  V30 31 C 0.983797 -0.418342 -0.380589 0
M  V30 32 C 2.272458 -0.057238 0.031883 0
M  V30 33 C 4.708379 -0.612235 1.942181 0
M  V30 34 H 5.798388 -0.215592 5.208360 0
M  V30 35 H 6.689559 0.098256 3.666052 0
M  V30 36 H 6.277493 -1.575636 4.151730 0
M  V30 37 H 3.493225 -2.127902 3.617138 0
M  V30 38 H 3.262197 1.242628 3.856873 0
M  V30 39 H 4.927552 1.639868 3.350819 0
M  V30 40 H 5.037601 1.150776 0.166969 0
M  V30 41 H 5.103561 2.217495 1.458630 0
M  V30 42 H 1.515761 0.369760 3.267633 0
M  V30 43 H -0.707678 -0.274141 2.453111 0
M  V30 44 H -2.772666 0.855654 2.060799 0
M  V30 45 H -3.275249 3.296744 2.421011 0
M  V30 46 H -3.502336 3.857862 -1.771600 0
M  V30 47 H -3.022574 1.536355 -2.136281 0
M  V30 48 H -5.342298 -0.871153 -0.660383 0
M  V30 49 H -4.758120 -0.309172 -2.257562 0
M  V30 50 H -6.053926 -4.511189 -3.385467 0
M  V30 51 H -4.686026 -6.569213 -3.680647 0
M  V30 52 H -2.386166 -6.693931 -2.847825 0
M  V30 53 H 0.885048 -0.637201 -1.452920 0
M  V30 54 H 3.073499 -0.013790 -0.697671 0
M  V30 55 H 4.260979 -1.574631 1.618173 0
M  V30 56 H 5.740851 -0.483104 1.557517 0
M  V30 END ATOM
M  V30 BEGIN BOND
M  V30 1 1 1 2
M  V30 2 1 2 3
M  V30 3 1 2 4
M  V30 4 1 4 5
M  V30 5 1 5 6
M  V30 6 1 5 7
M  V30 7 2 7 8
M  V30 8 1 8 9
M  V30 9 2 9 10
M  V30 10 1 10 11
M  V30 11 1 11 12
M  V30 12 2 12 13
M  V30 13 1 13 14
M  V30 14 1 14 15
M  V30 15 1 15 16
M  V30 16 2 16 17
M  V30 17 1 17 18
M  V30 18 2 18 19
M  V30 19 1 19 20
M  V30 20 2 20 21
M  V30 21 1 14 22
M  V30 22 1 22 23
M  V30 23 1 23 24
M  V30 24 2 24 25
M  V30 25 1 25 26
M  V30 26 2 26 27
M  V30 27 1 27 28
M  V30 28 1 28 29
M  V30 29 2 28 30
M  V30 30 1 10 31
M  V30 31 2 31 32
M  V30 32 1 5 33
M  V30 33 1 33 2
M  V30 34 1 32 7
M  V30 35 2 15 11
M  V30 36 1 21 16
M  V30 37 1 30 24
M  V30 38 1 30 13
M  V30 39 1 1 34
M  V30 40 1 1 35
M  V30 41 1 1 36
M  V30 42 1 3 37
M  V30 43 1 4 38
M  V30 44 1 4 39
M  V30 45 1 6 40
M  V30 46 1 6 41
M  V30 47 1 8 42
M  V30 48 1 9 43
M  V30 49 1 17 44
M  V30 50 1 18 45
M  V30 51 1 20 46
M  V30 52 1 21 47
M  V30 53 1 22 48
M  V30 54 1 22 49
M  V30 55 1 25 50
M  V30 56 1 26 51
M  V30 57 1 27 52
M  V30 58 1 31 53
M  V30 59 1 32 54
M  V30 60 1 33 55
M  V30 61 1 33 56
M  V30 END BOND
M  V30 END CTAB
M  END
>  <Dataset>  (863) 
ChEMBL_Kinases

>  <Ligand_Instance>  (863) 
nan

>  <PDB_ID>  (863) 
nan

>  <Standardized_SMILES>  (863) 
CC1(O)CC(N)(c2ccc(-c3nc4n(c3-c3ccncc3)COc3cccc(F)c3-4)cc2)C1

>  <Name>  (863) 
nan

>  <Pocket>  (863) 
nan

>  <ATP_Site>  (863) 
nan

>  <Peripheral>  (863) 
nan

>  <Num_H_Atoms_ProtBoundConf>  (863) 
nan

>  <Num_Resolved_Atoms>  (863) 
nan

>  <Num_Not_Resolved_Atoms>  (863) 
nan

$$$$
CHEMBL427787
     RDKit          3D

  0  0  0  0  0  0  0  0  0  0999 V3000
M  V30 BEGIN CTAB
M  V30 COUNTS 64 68 0 0 0
M  V30 BEGIN ATOM
M  V30 1 C 1.932477 -1.614549 5.143841 0
M  V30 2 C 2.532831 -0.312844 5.624048 0 CFG=1
M  V30 3 C 3.430888 0.293343 4.656811 0
M  V30 4 O 4.639328 0.633307 4.831532 0
M  V30 5 N 3.558298 0.762764 3.335662 0
M  V30 6 C 4.740404 1.361408 2.770257 0
M  V30 7 C 4.676418 0.885747 1.344295 0
M  V30 8 N 5.355246 0.661953 0.202936 0
M  V30 9 N 4.536439 0.178564 -0.714617 0
M  V30 10 C 3.284311 0.062364 -0.221714 0
M  V30 11 N 2.172579 -0.430457 -0.946294 0
M  V30 12 C 1.255207 0.264762 -1.775903 0
M  V30 13 O 1.420075 1.504682 -1.910334 0
M  V30 14 C 0.166802 -0.437443 -2.445067 0
M  V30 15 C -0.713537 0.310123 -3.234224 0
M  V30 16 C -1.764961 -0.329483 -3.891424 0
M  V30 17 C -1.986140 -1.688609 -3.801167 0
M  V30 18 N -3.080076 -2.272611 -4.488968 0
M  V30 19 C -4.094607 -1.475501 -5.108628 0
M  V30 20 C -5.430333 -2.116374 -4.949991 0
M  V30 21 N -5.476018 -3.036859 -3.852545 0
M  V30 22 C -5.407505 -2.351617 -2.600971 0
M  V30 23 C -4.543118 -4.126523 -3.990830 0
M  V30 24 C -3.255361 -3.702369 -4.632498 0
M  V30 25 C -1.086780 -2.363644 -3.012217 0
M  V30 26 C -0.032921 -1.786686 -2.341581 0
M  V30 27 C 3.376010 0.512989 1.084843 0
M  V30 28 C 2.549008 0.722277 2.279020 0
M  V30 29 C 1.395926 0.545396 6.034217 0
M  V30 30 C 1.321005 0.872560 7.386811 0
M  V30 31 C 0.312459 1.671058 7.910342 0
M  V30 32 C -0.664714 2.168355 7.059445 0
M  V30 33 C -0.621133 1.866610 5.718191 0
M  V30 34 C 0.409321 1.067835 5.270384 0
M  V30 35 H 2.670738 -2.083336 4.454037 0
M  V30 36 H 0.938447 -1.484677 4.675626 0
M  V30 37 H 1.847939 -2.286623 6.016873 0
M  V30 38 H 3.126808 -0.530427 6.533180 0
M  V30 39 H 4.701355 2.451590 2.717608 0
M  V30 40 H 5.663748 0.964089 3.244114 0
M  V30 41 H 6.372101 0.861058 0.116211 0
M  V30 42 H 2.122963 -1.454295 -0.763260 0
M  V30 43 H -0.531272 1.386967 -3.300801 0
M  V30 44 H -2.360236 0.361011 -4.468798 0
M  V30 45 H -4.176377 -0.478855 -4.593458 0
M  V30 46 H -3.919526 -1.321552 -6.195720 0
M  V30 47 H -5.692058 -2.686792 -5.887177 0
M  V30 48 H -6.260386 -1.391703 -4.801859 0
M  V30 49 H -5.438113 -3.058211 -1.737196 0
M  V30 50 H -4.540264 -1.693479 -2.477690 0
M  V30 51 H -6.368194 -1.761934 -2.493167 0
M  V30 52 H -5.016439 -4.934298 -4.589573 0
M  V30 53 H -4.316293 -4.491346 -2.958753 0
M  V30 54 H -2.450435 -4.304274 -4.196521 0
M  V30 55 H -3.301617 -4.000984 -5.708122 0
M  V30 56 H -1.194616 -3.431435 -2.893611 0
M  V30 57 H 0.623891 -2.398669 -1.739421 0
M  V30 58 H 2.045994 1.691833 2.216618 0
M  V30 59 H 1.870126 -0.126910 2.487380 0
M  V30 60 H 2.029790 0.539795 8.142405 0
M  V30 61 H 0.251861 1.931024 8.963556 0
M  V30 62 H -1.478340 2.793439 7.406977 0
M  V30 63 H -1.358644 2.229732 5.003549 0
M  V30 64 H 0.439684 0.823355 4.227044 0
M  V30 END ATOM
M  V30 BEGIN BOND
M  V30 1 1 1 2
M  V30 2 1 2 3
M  V30 3 2 3 4
M  V30 4 1 3 5
M  V30 5 1 5 6
M  V30 6 1 6 7
M  V30 7 1 7 8
M  V30 8 1 8 9
M  V30 9 2 9 10
M  V30 10 1 10 11
M  V30 11 1 11 12
M  V30 12 2 12 13
M  V30 13 1 12 14
M  V30 14 2 14 15
M  V30 15 1 15 16
M  V30 16 2 16 17
M  V30 17 1 17 18
M  V30 18 1 18 19
M  V30 19 1 19 20
M  V30 20 1 20 21
M  V30 21 1 21 22
M  V30 22 1 21 23
M  V30 23 1 23 24
M  V30 24 1 17 25
M  V30 25 2 25 26
M  V30 26 1 10 27
M  V30 27 1 27 28
M  V30 28 1 2 29
M  V30 29 2 29 30
M  V30 30 1 30 31
M  V30 31 2 31 32
M  V30 32 1 32 33
M  V30 33 2 33 34
M  V30 34 1 28 5
M  V30 35 1 34 29
M  V30 36 2 27 7
M  V30 37 1 26 14
M  V30 38 1 24 18
M  V30 39 1 1 35
M  V30 40 1 1 36
M  V30 41 1 1 37
M  V30 42 1 2 38 CFG=1
M  V30 43 1 6 39
M  V30 44 1 6 40
M  V30 45 1 8 41
M  V30 46 1 11 42
M  V30 47 1 15 43
M  V30 48 1 16 44
M  V30 49 1 19 45
M  V30 50 1 19 46
M  V30 51 1 20 47
M  V30 52 1 20 48
M  V30 53 1 22 49
M  V30 54 1 22 50
M  V30 55 1 22 51
M  V30 56 1 23 52
M  V30 57 1 23 53
M  V30 58 1 24 54
M  V30 59 1 24 55
M  V30 60 1 25 56
M  V30 61 1 26 57
M  V30 62 1 28 58
M  V30 63 1 28 59
M  V30 64 1 30 60
M  V30 65 1 31 61
M  V30 66 1 32 62
M  V30 67 1 33 63
M  V30 68 1 34 64
M  V30 END BOND
M  V30 END CTAB
M  END
>  <Dataset>  (864) 
ChEMBL_Kinases

>  <Ligand_Instance>  (864) 
nan

>  <PDB_ID>  (864) 
nan

>  <Standardized_SMILES>  (864) 
C[C@@H](C(=O)N1Cc2[nH]nc(NC(=O)c3ccc(N4CCN(C)CC4)cc3)c2C1)c1ccccc1

>  <Name>  (864) 
nan

>  <Pocket>  (864) 
nan

>  <ATP_Site>  (864) 
nan

>  <Peripheral>  (864) 
nan

>  <Num_H_Atoms_ProtBoundConf>  (864) 
nan

>  <Num_Resolved_Atoms>  (864) 
nan

>  <Num_Not_Resolved_Atoms>  (864) 
nan

$$$$
CHEMBL3701722
     RDKit          3D

  0  0  0  0  0  0  0  0  0  0999 V3000
M  V30 BEGIN CTAB
M  V30 COUNTS 54 59 0 0 0
M  V30 BEGIN ATOM
M  V30 1 C 5.414189 0.272409 4.762858 0
M  V30 2 C 5.013058 -0.788927 3.791933 0
M  V30 3 O 5.837008 -1.893591 3.715947 0
M  V30 4 C 4.580838 -0.295409 2.409004 0
M  V30 5 C 3.221082 -0.058385 3.011414 0
M  V30 6 N 3.206681 1.216910 3.708295 0
M  V30 7 C 2.056895 -0.288074 2.126863 0
M  V30 8 C 1.360537 -1.468454 1.952865 0
M  V30 9 C 0.283901 -1.551090 1.090409 0
M  V30 10 C -0.130054 -0.439814 0.369366 0
M  V30 11 C -1.278098 -0.712333 -0.487873 0
M  V30 12 N -1.183810 -1.634497 -1.478573 0
M  V30 13 C -2.344981 -1.728191 -2.141299 0
M  V30 14 N -3.180491 -0.855051 -1.561598 0
M  V30 15 C -2.568206 -0.230447 -0.565959 0
M  V30 16 C -2.987064 0.803967 0.394422 0
M  V30 17 C -3.061835 0.687129 1.738218 0
M  V30 18 C -3.456003 1.698684 2.494355 0
M  V30 19 S -3.798040 3.066103 1.246092 0
M  V30 20 C -3.350526 2.050173 -0.127186 0
M  V30 21 C -4.558074 -0.604925 -1.941124 0
M  V30 22 O -4.970553 -1.394070 -3.028692 0
M  V30 23 C -4.173656 -2.320281 -3.686380 0
M  V30 24 C -4.677520 -3.041118 -4.739080 0
M  V30 25 C -3.850956 -3.952825 -5.366320 0
M  V30 26 C -2.535422 -4.145274 -4.949817 0
M  V30 27 C -2.032883 -3.413729 -3.885801 0
M  V30 28 F -0.754440 -3.540343 -3.413588 0
M  V30 29 C -2.873439 -2.501104 -3.264269 0
M  V30 30 C 0.555011 0.747346 0.531695 0
M  V30 31 C 1.627676 0.805434 1.399321 0
M  V30 32 C 3.536504 -1.147804 4.003515 0
M  V30 33 H 6.360433 -0.004968 5.289790 0
M  V30 34 H 5.524189 1.263608 4.246786 0
M  V30 35 H 4.683573 0.447098 5.587016 0
M  V30 36 H 5.971116 -2.159429 2.785855 0
M  V30 37 H 4.657144 -1.053852 1.628957 0
M  V30 38 H 5.081957 0.653370 2.099304 0
M  V30 39 H 3.460985 2.015555 3.084112 0
M  V30 40 H 2.336779 1.381033 4.256722 0
M  V30 41 H 1.714898 -2.305468 2.531210 0
M  V30 42 H -0.173273 -2.545402 1.050849 0
M  V30 43 H -2.792904 -0.262920 2.233072 0
M  V30 44 H -3.576972 1.792758 3.570610 0
M  V30 45 H -3.378135 2.399553 -1.158280 0
M  V30 46 H -4.667404 0.486847 -2.193227 0
M  V30 47 H -5.270362 -0.827491 -1.094390 0
M  V30 48 H -5.710636 -2.912871 -5.091853 0
M  V30 49 H -4.229062 -4.543171 -6.211929 0
M  V30 50 H -1.866136 -4.868095 -5.440486 0
M  V30 51 H 0.175228 1.552362 -0.057003 0
M  V30 52 H 2.096868 1.790330 1.451766 0
M  V30 53 H 3.175923 -0.979665 5.043145 0
M  V30 54 H 3.389419 -2.185057 3.687660 0
M  V30 END ATOM
M  V30 BEGIN BOND
M  V30 1 1 1 2
M  V30 2 1 2 3
M  V30 3 1 2 4
M  V30 4 1 4 5
M  V30 5 1 5 6
M  V30 6 1 5 7
M  V30 7 2 7 8
M  V30 8 1 8 9
M  V30 9 2 9 10
M  V30 10 1 10 11
M  V30 11 1 11 12
M  V30 12 2 12 13
M  V30 13 1 13 14
M  V30 14 1 14 15
M  V30 15 1 15 16
M  V30 16 1 16 17
M  V30 17 2 17 18
M  V30 18 1 18 19
M  V30 19 1 19 20
M  V30 20 1 14 21
M  V30 21 1 21 22
M  V30 22 1 22 23
M  V30 23 2 23 24
M  V30 24 1 24 25
M  V30 25 2 25 26
M  V30 26 1 26 27
M  V30 27 1 27 28
M  V30 28 2 27 29
M  V30 29 1 10 30
M  V30 30 2 30 31
M  V30 31 1 5 32
M  V30 32 1 32 2
M  V30 33 1 31 7
M  V30 34 2 15 11
M  V30 35 2 20 16
M  V30 36 1 29 23
M  V30 37 1 29 13
M  V30 38 1 1 33
M  V30 39 1 1 34
M  V30 40 1 1 35
M  V30 41 1 3 36
M  V30 42 1 4 37
M  V30 43 1 4 38
M  V30 44 1 6 39
M  V30 45 1 6 40
M  V30 46 1 8 41
M  V30 47 1 9 42
M  V30 48 1 17 43
M  V30 49 1 18 44
M  V30 50 1 20 45
M  V30 51 1 21 46
M  V30 52 1 21 47
M  V30 53 1 24 48
M  V30 54 1 25 49
M  V30 55 1 26 50
M  V30 56 1 30 51
M  V30 57 1 31 52
M  V30 58 1 32 53
M  V30 59 1 32 54
M  V30 END BOND
M  V30 END CTAB
M  END
>  <Dataset>  (865) 
ChEMBL_Kinases

>  <Ligand_Instance>  (865) 
nan

>  <PDB_ID>  (865) 
nan

>  <Standardized_SMILES>  (865) 
CC1(O)CC(N)(c2ccc(-c3nc4n(c3-c3ccsc3)COc3cccc(F)c3-4)cc2)C1

>  <Name>  (865) 
nan

>  <Pocket>  (865) 
nan

>  <ATP_Site>  (865) 
nan

>  <Peripheral>  (865) 
nan

>  <Num_H_Atoms_ProtBoundConf>  (865) 
nan

>  <Num_Resolved_Atoms>  (865) 
nan

>  <Num_Not_Resolved_Atoms>  (865) 
nan

$$$$
CHEMBL3701721
     RDKit          3D

  0  0  0  0  0  0  0  0  0  0999 V3000
M  V30 BEGIN CTAB
M  V30 COUNTS 60 66 0 0 0
M  V30 BEGIN ATOM
M  V30 1 N -0.094837 -1.967454 4.906416 0
M  V30 2 C -1.001290 -1.233871 4.059830 0
M  V30 3 C -0.601703 -1.219201 2.642449 0
M  V30 4 C -0.739829 -0.228686 1.691332 0
M  V30 5 C -0.306513 -0.376188 0.391060 0
M  V30 6 C 0.301573 -1.578812 0.008029 0
M  V30 7 C 0.691271 -1.545637 -1.409311 0
M  V30 8 N 0.266805 -2.347489 -2.433379 0
M  V30 9 C 0.879310 -1.969791 -3.572166 0
M  V30 10 N 1.682443 -0.933394 -3.248362 0
M  V30 11 C 1.606793 -0.634401 -1.947214 0
M  V30 12 C 2.284613 0.389246 -1.171058 0
M  V30 13 C 3.164764 0.092851 -0.149056 0
M  V30 14 C 3.800692 1.099614 0.580292 0
M  V30 15 N 3.552430 2.404864 0.282948 0
M  V30 16 C 2.681664 2.700557 -0.728243 0
M  V30 17 C 2.037446 1.716306 -1.467385 0
M  V30 18 C 2.522959 -0.235393 -4.209171 0
M  V30 19 O 2.432733 -0.730450 -5.510849 0
M  V30 20 C 1.630009 -1.788970 -5.910169 0
M  V30 21 C 1.584377 -2.233645 -7.220031 0
M  V30 22 C 0.753761 -3.305925 -7.554030 0
M  V30 23 C -0.022851 -3.927766 -6.592236 0
M  V30 24 C 0.007937 -3.494693 -5.262905 0
M  V30 25 F -0.754782 -4.107853 -4.323828 0
M  V30 26 C 0.847095 -2.422036 -4.960874 0
M  V30 27 C 0.451720 -2.584849 0.939302 0
M  V30 28 C 0.003099 -2.392910 2.228229 0
M  V30 29 C -2.435785 -1.746772 4.281876 0
M  V30 30 C -2.609555 -0.705124 5.382997 0
M  V30 31 O -2.225978 -1.230168 6.594886 0
M  V30 32 C -3.884583 0.063816 5.350595 0
M  V30 33 C -4.288846 1.059413 6.361659 0
M  V30 34 C -3.735988 1.547344 5.053202 0
M  V30 35 C -1.497189 0.072959 4.647789 0
M  V30 36 H -0.542531 -2.785876 5.367061 0
M  V30 37 H 0.367194 -1.344991 5.584864 0
M  V30 38 H -1.205869 0.662833 2.034346 0
M  V30 39 H -0.479958 0.479072 -0.242383 0
M  V30 40 H 3.370595 -0.953513 0.097328 0
M  V30 41 H 4.495314 0.849097 1.387476 0
M  V30 42 H 2.496304 3.757710 -0.951227 0
M  V30 43 H 1.353009 2.001479 -2.263303 0
M  V30 44 H 2.217036 0.836841 -4.241994 0
M  V30 45 H 3.580335 -0.236165 -3.823078 0
M  V30 46 H 2.220460 -1.695574 -7.912618 0
M  V30 47 H 0.759789 -3.612917 -8.609554 0
M  V30 48 H -0.661621 -4.762725 -6.882391 0
M  V30 49 H 0.932318 -3.460128 0.528168 0
M  V30 50 H 0.176268 -3.260607 2.876676 0
M  V30 51 H -2.515433 -2.777515 4.626176 0
M  V30 52 H -3.068944 -1.554691 3.389780 0
M  V30 53 H -2.865589 -1.067235 7.322693 0
M  V30 54 H -4.687276 -0.413570 4.709211 0
M  V30 55 H -3.701384 1.120535 7.281436 0
M  V30 56 H -5.382578 1.232796 6.476343 0
M  V30 57 H -2.778309 2.061960 5.141334 0
M  V30 58 H -4.411936 2.024011 4.311536 0
M  V30 59 H -0.841135 0.544329 5.400983 0
M  V30 60 H -1.853152 0.804393 3.923384 0
M  V30 END ATOM
M  V30 BEGIN BOND
M  V30 1 1 1 2
M  V30 2 1 2 3
M  V30 3 2 3 4
M  V30 4 1 4 5
M  V30 5 2 5 6
M  V30 6 1 6 7
M  V30 7 1 7 8
M  V30 8 2 8 9
M  V30 9 1 9 10
M  V30 10 1 10 11
M  V30 11 1 11 12
M  V30 12 2 12 13
M  V30 13 1 13 14
M  V30 14 2 14 15
M  V30 15 1 15 16
M  V30 16 2 16 17
M  V30 17 1 10 18
M  V30 18 1 18 19
M  V30 19 1 19 20
M  V30 20 2 20 21
M  V30 21 1 21 22
M  V30 22 2 22 23
M  V30 23 1 23 24
M  V30 24 1 24 25
M  V30 25 2 24 26
M  V30 26 1 6 27
M  V30 27 2 27 28
M  V30 28 1 2 29
M  V30 29 1 29 30
M  V30 30 1 30 31
M  V30 31 1 30 32
M  V30 32 1 32 33
M  V30 33 1 33 34
M  V30 34 1 30 35
M  V30 35 1 35 2
M  V30 36 1 28 3
M  V30 37 1 34 32
M  V30 38 2 11 7
M  V30 39 1 17 12
M  V30 40 1 26 20
M  V30 41 1 26 9
M  V30 42 1 1 36
M  V30 43 1 1 37
M  V30 44 1 4 38
M  V30 45 1 5 39
M  V30 46 1 13 40
M  V30 47 1 14 41
M  V30 48 1 16 42
M  V30 49 1 17 43
M  V30 50 1 18 44
M  V30 51 1 18 45
M  V30 52 1 21 46
M  V30 53 1 22 47
M  V30 54 1 23 48
M  V30 55 1 27 49
M  V30 56 1 28 50
M  V30 57 1 29 51
M  V30 58 1 29 52
M  V30 59 1 31 53
M  V30 60 1 32 54
M  V30 61 1 33 55
M  V30 62 1 33 56
M  V30 63 1 34 57
M  V30 64 1 34 58
M  V30 65 1 35 59
M  V30 66 1 35 60
M  V30 END BOND
M  V30 END CTAB
M  END
>  <Dataset>  (866) 
ChEMBL_Kinases

>  <Ligand_Instance>  (866) 
nan

>  <PDB_ID>  (866) 
nan

>  <Standardized_SMILES>  (866) 
NC1(c2ccc(-c3nc4n(c3-c3ccncc3)COc3cccc(F)c3-4)cc2)CC(O)(C2CC2)C1

>  <Name>  (866) 
nan

>  <Pocket>  (866) 
nan

>  <ATP_Site>  (866) 
nan

>  <Peripheral>  (866) 
nan

>  <Num_H_Atoms_ProtBoundConf>  (866) 
nan

>  <Num_Resolved_Atoms>  (866) 
nan

>  <Num_Not_Resolved_Atoms>  (866) 
nan

$$$$
CHEMBL3680487
     RDKit          3D

  0  0  0  0  0  0  0  0  0  0999 V3000
M  V30 BEGIN CTAB
M  V30 COUNTS 69 73 0 0 0
M  V30 BEGIN ATOM
M  V30 1 C 0.971565 0.872124 5.604692 0
M  V30 2 C 0.436007 1.396410 4.286406 0
M  V30 3 N -0.181468 2.701672 4.409600 0
M  V30 4 C -0.686412 3.367548 3.273436 0
M  V30 5 N -0.589411 2.791058 2.059672 0
M  V30 6 C -1.073810 3.449801 0.964805 0
M  V30 7 N -1.665056 4.680873 1.005038 0
M  V30 8 C -1.773997 5.277998 2.211281 0
M  V30 9 C -2.364689 6.514580 2.270387 0
M  V30 10 C -2.847354 7.155596 1.071672 0
M  V30 11 N -3.452855 8.461392 1.121962 0
M  V30 12 O -2.841106 6.759832 -0.112931 0
M  V30 13 C -2.494832 7.155532 3.476504 0
M  V30 14 C -2.013985 6.517690 4.621514 0
M  V30 15 C -1.424095 5.265323 4.503498 0
M  V30 16 C -1.283398 4.606207 3.306117 0
M  V30 17 C -0.573844 0.385663 3.821757 0
M  V30 18 C -1.836397 0.279447 4.364863 0
M  V30 19 C -2.776353 -0.652010 3.958894 0
M  V30 20 C -2.386890 -1.524225 2.931909 0
M  V30 21 C -1.133991 -1.460328 2.353854 0
M  V30 22 N -0.706485 -2.334903 1.314352 0
M  V30 23 C -0.032054 -3.561977 1.275342 0
M  V30 24 O 0.330196 -4.100987 2.350078 0
M  V30 25 C 0.196928 -4.120901 -0.052451 0
M  V30 26 C -0.272572 -3.651594 -1.261814 0
M  V30 27 C 0.020073 -4.268913 -2.460124 0
M  V30 28 C 0.806187 -5.398489 -2.503556 0
M  V30 29 N 1.066637 -6.007062 -3.761940 0
M  V30 30 C 0.331936 -5.754106 -4.973831 0
M  V30 31 C 1.206294 -5.065938 -5.959433 0
M  V30 32 N 2.594764 -5.302332 -5.812288 0
M  V30 33 C 3.285860 -4.138393 -5.298737 0
M  V30 34 C 2.996706 -6.523667 -5.188740 0
M  V30 35 C 2.107568 -6.968198 -4.069152 0
M  V30 36 C 1.285368 -5.883845 -1.307999 0
M  V30 37 C 0.999420 -5.273145 -0.090999 0
M  V30 38 C -0.261113 -0.508401 2.813272 0
M  V30 39 H 0.196867 1.071773 6.394604 0
M  V30 40 H 1.924997 1.315530 5.893374 0
M  V30 41 H 1.052466 -0.231722 5.506067 0
M  V30 42 H 1.200962 1.460182 3.499308 0
M  V30 43 H -0.200300 3.057099 5.384299 0
M  V30 44 H -1.011962 3.010147 -0.031779 0
M  V30 45 H -4.138776 8.884934 0.491930 0
M  V30 46 H -3.171604 9.089217 1.901169 0
M  V30 47 H -2.934211 8.113596 3.648194 0
M  V30 48 H -2.096281 6.993255 5.606107 0
M  V30 49 H -1.080899 4.838745 5.416174 0
M  V30 50 H -2.069988 0.992704 5.163227 0
M  V30 51 H -3.762996 -0.716542 4.402959 0
M  V30 52 H -3.082887 -2.274382 2.575814 0
M  V30 53 H -1.078368 -1.736266 0.543662 0
M  V30 54 H -0.889143 -2.761786 -1.189724 0
M  V30 55 H -0.421237 -3.772736 -3.300204 0
M  V30 56 H -0.555522 -5.103841 -4.807060 0
M  V30 57 H -0.011996 -6.717007 -5.411323 0
M  V30 58 H 0.981550 -3.962735 -6.039091 0
M  V30 59 H 0.926371 -5.441669 -6.987723 0
M  V30 60 H 2.758377 -3.629595 -4.494446 0
M  V30 61 H 4.327347 -4.344340 -5.007558 0
M  V30 62 H 3.322621 -3.395119 -6.149599 0
M  V30 63 H 3.122233 -7.364695 -5.903684 0
M  V30 64 H 4.003768 -6.333568 -4.762128 0
M  V30 65 H 2.690688 -7.131036 -3.143401 0
M  V30 66 H 1.620320 -7.932885 -4.322990 0
M  V30 67 H 1.908941 -6.772025 -1.301163 0
M  V30 68 H 1.405072 -5.701630 0.836230 0
M  V30 69 H 0.709083 -0.448717 2.376167 0
M  V30 END ATOM
M  V30 BEGIN BOND
M  V30 1 1 1 2
M  V30 2 1 2 3
M  V30 3 1 3 4
M  V30 4 2 4 5
M  V30 5 1 5 6
M  V30 6 2 6 7
M  V30 7 1 7 8
M  V30 8 2 8 9
M  V30 9 1 9 10
M  V30 10 1 10 11
M  V30 11 2 10 12
M  V30 12 1 9 13
M  V30 13 2 13 14
M  V30 14 1 14 15
M  V30 15 2 15 16
M  V30 16 1 2 17
M  V30 17 2 17 18
M  V30 18 1 18 19
M  V30 19 2 19 20
M  V30 20 1 20 21
M  V30 21 1 21 22
M  V30 22 1 22 23
M  V30 23 2 23 24
M  V30 24 1 23 25
M  V30 25 2 25 26
M  V30 26 1 26 27
M  V30 27 2 27 28
M  V30 28 1 28 29
M  V30 29 1 29 30
M  V30 30 1 30 31
M  V30 31 1 31 32
M  V30 32 1 32 33
M  V30 33 1 32 34
M  V30 34 1 34 35
M  V30 35 1 28 36
M  V30 36 2 36 37
M  V30 37 2 21 38
M  V30 38 1 16 4
M  V30 39 1 38 17
M  V30 40 1 16 8
M  V30 41 1 37 25
M  V30 42 1 35 29
M  V30 43 1 1 39
M  V30 44 1 1 40
M  V30 45 1 1 41
M  V30 46 1 2 42
M  V30 47 1 3 43
M  V30 48 1 6 44
M  V30 49 1 11 45
M  V30 50 1 11 46
M  V30 51 1 13 47
M  V30 52 1 14 48
M  V30 53 1 15 49
M  V30 54 1 18 50
M  V30 55 1 19 51
M  V30 56 1 20 52
M  V30 57 1 22 53
M  V30 58 1 26 54
M  V30 59 1 27 55
M  V30 60 1 30 56
M  V30 61 1 30 57
M  V30 62 1 31 58
M  V30 63 1 31 59
M  V30 64 1 33 60
M  V30 65 1 33 61
M  V30 66 1 33 62
M  V30 67 1 34 63
M  V30 68 1 34 64
M  V30 69 1 35 65
M  V30 70 1 35 66
M  V30 71 1 36 67
M  V30 72 1 37 68
M  V30 73 1 38 69
M  V30 END BOND
M  V30 END CTAB
M  END
>  <Dataset>  (867) 
ChEMBL_Kinases

>  <Ligand_Instance>  (867) 
nan

>  <PDB_ID>  (867) 
nan

>  <Standardized_SMILES>  (867) 
CC(Nc1ncnc2c(C(N)=O)cccc12)c1cccc(NC(=O)c2ccc(N3CCN(C)CC3)cc2)c1

>  <Name>  (867) 
nan

>  <Pocket>  (867) 
nan

>  <ATP_Site>  (867) 
nan

>  <Peripheral>  (867) 
nan

>  <Num_H_Atoms_ProtBoundConf>  (867) 
nan

>  <Num_Resolved_Atoms>  (867) 
nan

>  <Num_Not_Resolved_Atoms>  (867) 
nan

$$$$
CHEMBL3680491
     RDKit          3D

  0  0  0  0  0  0  0  0  0  0999 V3000
M  V30 BEGIN CTAB
M  V30 COUNTS 56 59 0 0 0
M  V30 BEGIN ATOM
M  V30 1 C 0.372849 -2.672864 4.483380 0
M  V30 2 C 1.409857 -2.114108 3.555347 0
M  V30 3 N 1.278561 -0.679519 3.340223 0
M  V30 4 C 2.205729 -0.042590 2.480183 0
M  V30 5 N 3.182260 -0.733408 1.875221 0
M  V30 6 C 4.080511 -0.163130 1.052336 0
M  V30 7 N 4.057339 1.163116 0.777260 0
M  V30 8 C 3.097963 1.926152 1.352954 0
M  V30 9 C 3.051508 3.276445 1.090634 0
M  V30 10 C 4.041923 3.851850 0.195100 0
M  V30 11 N 5.051531 3.081231 -0.417922 0
M  V30 12 O 4.039905 5.079305 -0.074538 0
M  V30 13 C 2.090832 4.051739 1.664632 0
M  V30 14 C 1.177336 3.458880 2.504335 0
M  V30 15 C 1.246146 2.109209 2.749175 0
M  V30 16 C 2.199419 1.296112 2.189274 0
M  V30 17 C 1.320896 -2.840504 2.251075 0
M  V30 18 C 2.184691 -3.851815 1.907147 0
M  V30 19 C 2.066773 -4.485334 0.709549 0
M  V30 20 C 1.085556 -4.145709 -0.204945 0
M  V30 21 C 0.192971 -3.136492 0.092701 0
M  V30 22 N -0.876769 -2.641622 -0.703307 0
M  V30 23 C -2.216214 -3.098250 -0.714168 0
M  V30 24 O -2.624511 -4.038303 0.016099 0
M  V30 25 C -3.220209 -2.498070 -1.585582 0
M  V30 26 C -4.512800 -2.978512 -1.559542 0
M  V30 27 C -5.540826 -2.465399 -2.358919 0
M  V30 28 C -5.224270 -1.421115 -3.214155 0
M  V30 29 O -6.174080 -0.846351 -4.044951 0
M  V30 30 C -6.964830 0.267121 -3.611084 0
M  V30 31 F -7.718556 -0.013350 -2.507455 0
M  V30 32 F -6.066732 1.263964 -3.240302 0
M  V30 33 F -7.690598 0.780412 -4.667033 0
M  V30 34 C -3.932898 -0.903855 -3.274316 0
M  V30 35 C -2.992289 -1.459802 -2.463700 0
M  V30 36 C 0.334289 -2.500904 1.328509 0
M  V30 37 H 0.321921 -3.770530 4.286741 0
M  V30 38 H -0.610359 -2.211660 4.217187 0
M  V30 39 H 0.583994 -2.453372 5.550446 0
M  V30 40 H 2.421882 -2.260148 3.985858 0
M  V30 41 H 0.503592 -0.246260 3.845712 0
M  V30 42 H 4.844002 -0.798592 0.600420 0
M  V30 43 H 6.027961 2.780795 -0.180593 0
M  V30 44 H 4.797933 2.691913 -1.351735 0
M  V30 45 H 2.102587 5.105232 1.422731 0
M  V30 46 H 0.431742 4.118953 2.936922 0
M  V30 47 H 0.511569 1.717350 3.405656 0
M  V30 48 H 2.961906 -4.140650 2.599535 0
M  V30 49 H 2.723351 -5.287534 0.394107 0
M  V30 50 H 0.927294 -4.603637 -1.179441 0
M  V30 51 H -0.551228 -1.860687 -1.314327 0
M  V30 52 H -4.840514 -3.789464 -0.921632 0
M  V30 53 H -6.549161 -2.850191 -2.329435 0
M  V30 54 H -3.668956 -0.077366 -3.946885 0
M  V30 55 H -1.992754 -1.057043 -2.512460 0
M  V30 56 H -0.336520 -1.687500 1.640821 0
M  V30 END ATOM
M  V30 BEGIN BOND
M  V30 1 1 1 2
M  V30 2 1 2 3
M  V30 3 1 3 4
M  V30 4 2 4 5
M  V30 5 1 5 6
M  V30 6 2 6 7
M  V30 7 1 7 8
M  V30 8 2 8 9
M  V30 9 1 9 10
M  V30 10 1 10 11
M  V30 11 2 10 12
M  V30 12 1 9 13
M  V30 13 2 13 14
M  V30 14 1 14 15
M  V30 15 2 15 16
M  V30 16 1 2 17
M  V30 17 2 17 18
M  V30 18 1 18 19
M  V30 19 2 19 20
M  V30 20 1 20 21
M  V30 21 1 21 22
M  V30 22 1 22 23
M  V30 23 2 23 24
M  V30 24 1 23 25
M  V30 25 2 25 26
M  V30 26 1 26 27
M  V30 27 2 27 28
M  V30 28 1 28 29
M  V30 29 1 29 30
M  V30 30 1 30 31
M  V30 31 1 30 32
M  V30 32 1 30 33
M  V30 33 1 28 34
M  V30 34 2 34 35
M  V30 35 2 21 36
M  V30 36 1 16 4
M  V30 37 1 36 17
M  V30 38 1 16 8
M  V30 39 1 35 25
M  V30 40 1 1 37
M  V30 41 1 1 38
M  V30 42 1 1 39
M  V30 43 1 2 40
M  V30 44 1 3 41
M  V30 45 1 6 42
M  V30 46 1 11 43
M  V30 47 1 11 44
M  V30 48 1 13 45
M  V30 49 1 14 46
M  V30 50 1 15 47
M  V30 51 1 18 48
M  V30 52 1 19 49
M  V30 53 1 20 50
M  V30 54 1 22 51
M  V30 55 1 26 52
M  V30 56 1 27 53
M  V30 57 1 34 54
M  V30 58 1 35 55
M  V30 59 1 36 56
M  V30 END BOND
M  V30 END CTAB
M  END
>  <Dataset>  (868) 
ChEMBL_Kinases

>  <Ligand_Instance>  (868) 
nan

>  <PDB_ID>  (868) 
nan

>  <Standardized_SMILES>  (868) 
CC(Nc1ncnc2c(C(N)=O)cccc12)c1cccc(NC(=O)c2ccc(OC(F)(F)F)cc2)c1

>  <Name>  (868) 
nan

>  <Pocket>  (868) 
nan

>  <ATP_Site>  (868) 
nan

>  <Peripheral>  (868) 
nan

>  <Num_H_Atoms_ProtBoundConf>  (868) 
nan

>  <Num_Resolved_Atoms>  (868) 
nan

>  <Num_Not_Resolved_Atoms>  (868) 
nan

$$$$
CHEMBL3701719
     RDKit          3D

  0  0  0  0  0  0  0  0  0  0999 V3000
M  V30 BEGIN CTAB
M  V30 COUNTS 53 58 0 0 0
M  V30 BEGIN ATOM
M  V30 1 N -2.688677 -1.252702 5.268323 0
M  V30 2 C -2.517207 -2.346515 4.300810 0
M  V30 3 C -1.732615 -2.001811 3.126370 0
M  V30 4 C -1.985665 -0.693128 2.693866 0
M  V30 5 C -1.325490 -0.176351 1.573743 0
M  V30 6 C -0.411535 -0.950721 0.874853 0
M  V30 7 C 0.285676 -0.424056 -0.292440 0
M  V30 8 N -0.028217 -1.081634 -1.450025 0
M  V30 9 C 0.680283 -0.498395 -2.462235 0
M  V30 10 N 1.419007 0.509842 -1.909980 0
M  V30 11 C 1.195440 0.575827 -0.583601 0
M  V30 12 C 1.641999 1.374245 0.524619 0
M  V30 13 C 2.344017 0.680538 1.517300 0
M  V30 14 C 2.850598 1.262935 2.649367 0
M  V30 15 C 2.673137 2.615281 2.851014 0
M  V30 16 C 1.981209 3.333602 1.885738 0
M  V30 17 C 1.481531 2.725124 0.755471 0
M  V30 18 C 2.316055 1.386986 -2.634803 0
M  V30 19 O 2.386280 1.124285 -4.003508 0
M  V30 20 C 1.672130 0.122609 -4.645111 0
M  V30 21 C 1.757323 -0.122699 -6.021409 0
M  V30 22 C 1.017817 -1.140818 -6.608595 0
M  V30 23 C 0.172103 -1.949329 -5.862138 0
M  V30 24 C 0.086092 -1.708463 -4.499401 0
M  V30 25 F -0.723597 -2.468278 -3.727172 0
M  V30 26 C 0.827550 -0.691163 -3.923494 0
M  V30 27 C -0.150581 -2.251644 1.292894 0
M  V30 28 C -0.817695 -2.730229 2.400000 0
M  V30 29 C -3.862472 -2.982960 4.067037 0
M  V30 30 C -3.584455 -3.821484 5.322420 0
M  V30 31 C -2.096284 -3.575537 5.044774 0
M  V30 32 H -1.903113 -0.575906 5.094302 0
M  V30 33 H -3.564197 -0.739531 4.976675 0
M  V30 34 H -2.655766 0.016519 3.125532 0
M  V30 35 H -1.483264 0.829421 1.195928 0
M  V30 36 H 2.532045 -0.398159 1.441172 0
M  V30 37 H 3.391146 0.693100 3.400514 0
M  V30 38 H 3.053406 3.122444 3.726705 0
M  V30 39 H 1.832000 4.388844 2.022851 0
M  V30 40 H 0.932481 3.235776 -0.033768 0
M  V30 41 H 1.918637 2.437084 -2.513850 0
M  V30 42 H 3.364088 1.358369 -2.231238 0
M  V30 43 H 2.420374 0.510971 -6.606832 0
M  V30 44 H 1.078483 -1.336344 -7.668747 0
M  V30 45 H -0.424477 -2.753552 -6.271333 0
M  V30 46 H 0.548412 -2.912148 0.796845 0
M  V30 47 H -0.663409 -3.719576 2.772961 0
M  V30 48 H -3.941684 -3.646321 3.204383 0
M  V30 49 H -4.754149 -2.378624 4.223456 0
M  V30 50 H -3.799990 -4.900961 5.215426 0
M  V30 51 H -3.926615 -3.371018 6.255348 0
M  V30 52 H -1.652574 -4.359740 4.413412 0
M  V30 53 H -1.579527 -3.357987 6.003175 0
M  V30 END ATOM
M  V30 BEGIN BOND
M  V30 1 1 1 2
M  V30 2 1 2 3
M  V30 3 2 3 4
M  V30 4 1 4 5
M  V30 5 2 5 6
M  V30 6 1 6 7
M  V30 7 1 7 8
M  V30 8 2 8 9
M  V30 9 1 9 10
M  V30 10 1 10 11
M  V30 11 1 11 12
M  V30 12 2 12 13
M  V30 13 1 13 14
M  V30 14 2 14 15
M  V30 15 1 15 16
M  V30 16 2 16 17
M  V30 17 1 10 18
M  V30 18 1 18 19
M  V30 19 1 19 20
M  V30 20 2 20 21
M  V30 21 1 21 22
M  V30 22 2 22 23
M  V30 23 1 23 24
M  V30 24 1 24 25
M  V30 25 2 24 26
M  V30 26 1 6 27
M  V30 27 2 27 28
M  V30 28 1 2 29
M  V30 29 1 29 30
M  V30 30 1 30 31
M  V30 31 1 31 2
M  V30 32 1 28 3
M  V30 33 2 11 7
M  V30 34 1 17 12
M  V30 35 1 26 20
M  V30 36 1 26 9
M  V30 37 1 1 32
M  V30 38 1 1 33
M  V30 39 1 4 34
M  V30 40 1 5 35
M  V30 41 1 13 36
M  V30 42 1 14 37
M  V30 43 1 15 38
M  V30 44 1 16 39
M  V30 45 1 17 40
M  V30 46 1 18 41
M  V30 47 1 18 42
M  V30 48 1 21 43
M  V30 49 1 22 44
M  V30 50 1 23 45
M  V30 51 1 27 46
M  V30 52 1 28 47
M  V30 53 1 29 48
M  V30 54 1 29 49
M  V30 55 1 30 50
M  V30 56 1 30 51
M  V30 57 1 31 52
M  V30 58 1 31 53
M  V30 END BOND
M  V30 END CTAB
M  END
>  <Dataset>  (869) 
ChEMBL_Kinases

>  <Ligand_Instance>  (869) 
nan

>  <PDB_ID>  (869) 
nan

>  <Standardized_SMILES>  (869) 
NC1(c2ccc(-c3nc4n(c3-c3ccccc3)COc3cccc(F)c3-4)cc2)CCC1

>  <Name>  (869) 
nan

>  <Pocket>  (869) 
nan

>  <ATP_Site>  (869) 
nan

>  <Peripheral>  (869) 
nan

>  <Num_H_Atoms_ProtBoundConf>  (869) 
nan

>  <Num_Resolved_Atoms>  (869) 
nan

>  <Num_Not_Resolved_Atoms>  (869) 
nan

$$$$
CHEMBL3701718
     RDKit          3D

  0  0  0  0  0  0  0  0  0  0999 V3000
M  V30 BEGIN CTAB
M  V30 COUNTS 57 62 0 0 0
M  V30 BEGIN ATOM
M  V30 1 C 6.595803 0.080732 2.613868 0
M  V30 2 C 5.182437 0.018141 2.085062 0
M  V30 3 O 4.362528 -0.743133 2.880904 0
M  V30 4 C 4.622806 1.356673 1.646857 0
M  V30 5 C 4.111954 0.672327 0.397754 0
M  V30 6 N 4.376893 1.505979 -0.766699 0
M  V30 7 C 2.717784 0.222254 0.430510 0
M  V30 8 C 1.772284 0.316299 1.428356 0
M  V30 9 C 0.493265 -0.173511 1.268871 0
M  V30 10 C 0.092047 -0.793665 0.077919 0
M  V30 11 C -1.294043 -1.245120 0.105789 0
M  V30 12 N -1.652304 -2.215617 0.992368 0
M  V30 13 C -2.961410 -2.451932 0.822512 0
M  V30 14 N -3.463843 -1.669562 -0.142124 0
M  V30 15 C -2.432139 -0.918572 -0.589979 0
M  V30 16 C -2.447795 0.075736 -1.620019 0
M  V30 17 C -3.241542 1.172443 -1.246634 0
M  V30 18 C -3.408218 2.266245 -2.095517 0
M  V30 19 C -2.777503 2.274418 -3.336961 0
M  V30 20 C -2.001335 1.205781 -3.706234 0
M  V30 21 C -1.845935 0.131635 -2.856320 0
M  V30 22 C -4.833771 -1.639577 -0.605833 0
M  V30 23 O -5.636081 -2.562311 0.092858 0
M  V30 24 C -5.194661 -3.390156 1.085183 0
M  V30 25 C -6.076545 -4.256662 1.700224 0
M  V30 26 C -5.666514 -5.107616 2.706578 0
M  V30 27 C -4.327901 -5.088955 3.109316 0
M  V30 28 C -3.444685 -4.207846 2.479615 0
M  V30 29 F -2.156243 -4.218643 2.896649 0
M  V30 30 C -3.884126 -3.369642 1.477190 0
M  V30 31 C 1.042663 -0.885611 -0.918559 0
M  V30 32 C 2.300034 -0.399577 -0.751026 0
M  V30 33 C 5.148341 -0.405981 0.627753 0
M  V30 34 H 6.558793 -0.072183 3.698864 0
M  V30 35 H 7.171269 -0.741089 2.158710 0
M  V30 36 H 7.055666 1.054009 2.352848 0
M  V30 37 H 4.501713 -1.690669 2.673308 0
M  V30 38 H 3.891882 1.832320 2.296959 0
M  V30 39 H 5.482428 2.034741 1.404675 0
M  V30 40 H 4.373331 0.877043 -1.608959 0
M  V30 41 H 5.333146 1.914972 -0.593274 0
M  V30 42 H 2.140868 0.803160 2.321310 0
M  V30 43 H -0.119333 -0.025671 2.127965 0
M  V30 44 H -3.796546 1.309303 -0.307942 0
M  V30 45 H -4.002190 3.127356 -1.859840 0
M  V30 46 H -2.851423 3.073552 -4.050727 0
M  V30 47 H -1.463296 1.110893 -4.656003 0
M  V30 48 H -1.260199 -0.750864 -3.058714 0
M  V30 49 H -4.915738 -1.936282 -1.688496 0
M  V30 50 H -5.274000 -0.626575 -0.566212 0
M  V30 51 H -7.107382 -4.306357 1.426094 0
M  V30 52 H -6.275484 -5.820102 3.249040 0
M  V30 53 H -3.946984 -5.735712 3.896213 0
M  V30 54 H 0.668667 -1.373152 -1.801716 0
M  V30 55 H 2.922019 -0.556816 -1.640162 0
M  V30 56 H 6.092064 -0.125787 0.121910 0
M  V30 57 H 4.810501 -1.444820 0.505009 0
M  V30 END ATOM
M  V30 BEGIN BOND
M  V30 1 1 1 2
M  V30 2 1 2 3
M  V30 3 1 2 4
M  V30 4 1 4 5
M  V30 5 1 5 6
M  V30 6 1 5 7
M  V30 7 2 7 8
M  V30 8 1 8 9
M  V30 9 2 9 10
M  V30 10 1 10 11
M  V30 11 1 11 12
M  V30 12 2 12 13
M  V30 13 1 13 14
M  V30 14 1 14 15
M  V30 15 1 15 16
M  V30 16 2 16 17
M  V30 17 1 17 18
M  V30 18 2 18 19
M  V30 19 1 19 20
M  V30 20 2 20 21
M  V30 21 1 14 22
M  V30 22 1 22 23
M  V30 23 1 23 24
M  V30 24 2 24 25
M  V30 25 1 25 26
M  V30 26 2 26 27
M  V30 27 1 27 28
M  V30 28 1 28 29
M  V30 29 2 28 30
M  V30 30 1 10 31
M  V30 31 2 31 32
M  V30 32 1 5 33
M  V30 33 1 33 2
M  V30 34 1 32 7
M  V30 35 2 15 11
M  V30 36 1 21 16
M  V30 37 1 30 24
M  V30 38 1 30 13
M  V30 39 1 1 34
M  V30 40 1 1 35
M  V30 41 1 1 36
M  V30 42 1 3 37
M  V30 43 1 4 38
M  V30 44 1 4 39
M  V30 45 1 6 40
M  V30 46 1 6 41
M  V30 47 1 8 42
M  V30 48 1 9 43
M  V30 49 1 17 44
M  V30 50 1 18 45
M  V30 51 1 19 46
M  V30 52 1 20 47
M  V30 53 1 21 48
M  V30 54 1 22 49
M  V30 55 1 22 50
M  V30 56 1 25 51
M  V30 57 1 26 52
M  V30 58 1 27 53
M  V30 59 1 31 54
M  V30 60 1 32 55
M  V30 61 1 33 56
M  V30 62 1 33 57
M  V30 END BOND
M  V30 END CTAB
M  END
>  <Dataset>  (870) 
ChEMBL_Kinases

>  <Ligand_Instance>  (870) 
nan

>  <PDB_ID>  (870) 
nan

>  <Standardized_SMILES>  (870) 
CC1(O)CC(N)(c2ccc(-c3nc4n(c3-c3ccccc3)COc3cccc(F)c3-4)cc2)C1

>  <Name>  (870) 
nan

>  <Pocket>  (870) 
nan

>  <ATP_Site>  (870) 
nan

>  <Peripheral>  (870) 
nan

>  <Num_H_Atoms_ProtBoundConf>  (870) 
nan

>  <Num_Resolved_Atoms>  (870) 
nan

>  <Num_Not_Resolved_Atoms>  (870) 
nan

$$$$
CHEMBL4277642
     RDKit          3D

  0  0  0  0  0  0  0  0  0  0999 V3000
M  V30 BEGIN CTAB
M  V30 COUNTS 53 54 0 0 0
M  V30 BEGIN ATOM
M  V30 1 C 3.427423 -2.258570 -1.973858 0
M  V30 2 C 4.016311 -2.882381 -0.726922 0
M  V30 3 C 3.643412 -2.054146 0.511584 0
M  V30 4 N 4.208512 -2.655257 1.696394 0
M  V30 5 S 3.849477 -1.801425 3.140605 0
M  V30 6 O 4.524749 -2.461669 4.306974 0
M  V30 7 O 4.437245 -0.403935 3.040240 0
M  V30 8 N 2.174614 -1.710656 3.486983 0
M  V30 9 C 1.177030 -1.088419 2.680363 0
M  V30 10 C 1.535127 0.152453 2.222426 0
M  V30 11 C 0.599095 0.788677 1.442441 0
M  V30 12 C 0.803307 2.127275 0.862049 0
M  V30 13 C 1.409618 2.066507 -0.524658 0
M  V30 14 C -0.442177 2.970604 0.792489 0
M  V30 15 C -0.612655 0.146044 1.179775 0
M  V30 16 S -2.033758 0.658643 0.224422 0
M  V30 17 C -3.030302 -0.870648 0.517756 0
M  V30 18 N -4.332874 -0.990115 -0.057440 0
M  V30 19 C -4.803836 0.094373 -0.840670 0
M  V30 20 O -4.198084 1.166885 -1.091910 0
M  V30 21 N -6.098838 0.001247 -1.425683 0
M  V30 22 C -6.534150 1.146616 -2.222540 0
M  V30 23 C -2.163644 -1.647760 1.337258 0
M  V30 24 C -2.714140 -2.930323 1.722616 0
M  V30 25 N -2.091705 -3.892450 2.517045 0
M  V30 26 O -3.848079 -3.289333 1.352238 0
M  V30 27 C -0.954768 -1.125321 1.661054 0
M  V30 28 C -0.003350 -1.740686 2.437987 0
M  V30 29 H 3.997924 -2.631692 -2.847673 0
M  V30 30 H 2.367165 -2.549190 -2.114484 0
M  V30 31 H 3.534993 -1.155255 -1.886162 0
M  V30 32 H 3.632979 -3.904611 -0.529624 0
M  V30 33 H 5.123379 -2.856048 -0.787044 0
M  V30 34 H 3.983089 -1.036517 0.326625 0
M  V30 35 H 2.524724 -2.030223 0.609052 0
M  V30 36 H 5.247884 -2.694572 1.610437 0
M  V30 37 H 1.755885 -2.133274 4.368559 0
M  V30 38 H 2.456177 0.659941 2.412503 0
M  V30 39 H 1.522517 2.652725 1.526810 0
M  V30 40 H 2.016960 1.154356 -0.627492 0
M  V30 41 H 0.579279 2.154396 -1.247146 0
M  V30 42 H 2.105087 2.927093 -0.677385 0
M  V30 43 H -1.137550 2.628256 1.562226 0
M  V30 44 H -0.943781 2.914830 -0.195386 0
M  V30 45 H -0.135402 4.033298 0.919636 0
M  V30 46 H -4.952503 -1.795068 0.050572 0
M  V30 47 H -6.669112 -0.849857 -1.270084 0
M  V30 48 H -6.891518 1.894136 -1.472750 0
M  V30 49 H -7.426449 0.876149 -2.826642 0
M  V30 50 H -5.722249 1.596111 -2.797451 0
M  V30 51 H -1.616274 -4.833353 2.391760 0
M  V30 52 H -1.613197 -4.834178 2.409657 0
M  V30 53 H -0.097498 -2.717667 2.890069 0
M  V30 END ATOM
M  V30 BEGIN BOND
M  V30 1 1 1 2
M  V30 2 1 2 3
M  V30 3 1 3 4
M  V30 4 1 4 5
M  V30 5 2 5 6
M  V30 6 2 5 7
M  V30 7 1 5 8
M  V30 8 1 8 9
M  V30 9 2 9 10
M  V30 10 1 10 11
M  V30 11 1 11 12
M  V30 12 1 12 13
M  V30 13 1 12 14
M  V30 14 2 11 15
M  V30 15 1 15 16
M  V30 16 1 16 17
M  V30 17 1 17 18
M  V30 18 1 18 19
M  V30 19 2 19 20
M  V30 20 1 19 21
M  V30 21 1 21 22
M  V30 22 2 17 23
M  V30 23 1 23 24
M  V30 24 1 24 25
M  V30 25 2 24 26
M  V30 26 1 23 27
M  V30 27 2 27 28
M  V30 28 1 28 9
M  V30 29 1 27 15
M  V30 30 1 1 29
M  V30 31 1 1 30
M  V30 32 1 1 31
M  V30 33 1 2 32
M  V30 34 1 2 33
M  V30 35 1 3 34
M  V30 36 1 3 35
M  V30 37 1 4 36
M  V30 38 1 8 37
M  V30 39 1 10 38
M  V30 40 1 12 39
M  V30 41 1 13 40
M  V30 42 1 13 41
M  V30 43 1 13 42
M  V30 44 1 14 43
M  V30 45 1 14 44
M  V30 46 1 14 45
M  V30 47 1 18 46
M  V30 48 1 21 47
M  V30 49 1 22 48
M  V30 50 1 22 49
M  V30 51 1 22 50
M  V30 52 1 25 51
M  V30 53 1 25 52
M  V30 54 1 28 53
M  V30 END BOND
M  V30 END CTAB
M  END
>  <Dataset>  (871) 
ChEMBL_Kinases

>  <Ligand_Instance>  (871) 
nan

>  <PDB_ID>  (871) 
nan

>  <Standardized_SMILES>  (871) 
CCCNS(=O)(=O)Nc1cc(C(C)C)c2sc(NC(=O)NC)c(C(N)=O)c2c1

>  <Name>  (871) 
nan

>  <Pocket>  (871) 
nan

>  <ATP_Site>  (871) 
nan

>  <Peripheral>  (871) 
nan

>  <Num_H_Atoms_ProtBoundConf>  (871) 
nan

>  <Num_Resolved_Atoms>  (871) 
nan

>  <Num_Not_Resolved_Atoms>  (871) 
nan

$$$$
CHEMBL4277614
     RDKit          3D

  0  0  0  0  0  0  0  0  0  0999 V3000
M  V30 BEGIN CTAB
M  V30 COUNTS 34 36 0 0 0
M  V30 BEGIN ATOM
M  V30 1 C 0.612565 -5.788609 2.246442 0
M  V30 2 C -0.151768 -4.923831 1.601223 0
M  V30 3 C -1.411195 -5.472317 1.080804 0
M  V30 4 C 0.295065 -3.543913 1.459584 0
M  V30 5 C 1.519444 -3.235436 2.026903 0
M  V30 6 C 1.976345 -1.927217 1.910392 0
M  V30 7 C 1.223578 -0.964892 1.244688 0
M  V30 8 O 1.618765 0.287025 1.110811 0
M  V30 9 C 0.881823 1.177574 0.473273 0
M  V30 10 N 1.405191 2.436551 0.405718 0
M  V30 11 C 0.738923 3.431555 -0.222919 0
M  V30 12 N 1.303550 4.743938 -0.283158 0
M  V30 13 C -0.483327 3.137519 -0.793103 0
M  V30 14 C -1.239051 4.162434 -1.477587 0
M  V30 15 O -2.375328 4.030854 -2.046752 0
M  V30 16 O -0.854851 5.486784 -1.637126 0
M  V30 17 C -1.054718 1.881820 -0.752033 0
M  V30 18 C -0.356679 0.880972 -0.104857 0
M  V30 19 C -0.803528 -0.423410 0.015955 0
M  V30 20 O -1.912843 -0.727434 -0.491305 0
M  V30 21 C 0.005848 -1.315525 0.692497 0
M  V30 22 C -0.466705 -2.606949 0.796068 0
M  V30 23 H 1.535846 -5.955158 2.784303 0
M  V30 24 H 1.518129 -6.011916 2.790466 0
M  V30 25 H -2.238573 -5.355371 1.815100 0
M  V30 26 H -1.687282 -4.962191 0.115223 0
M  V30 27 H -1.330197 -6.554392 0.852422 0
M  V30 28 H 2.169273 -3.913191 2.559444 0
M  V30 29 H 2.906002 -1.617260 2.320343 0
M  V30 30 H 0.700575 5.515949 0.110106 0
M  V30 31 H 0.876913 5.656997 0.050541 0
M  V30 32 H -1.503068 6.249551 -1.392532 0
M  V30 33 H -2.016389 1.638231 -1.197288 0
M  V30 34 H -1.403939 -2.962226 0.394597 0
M  V30 END ATOM
M  V30 BEGIN BOND
M  V30 1 2 1 2
M  V30 2 1 2 3
M  V30 3 1 2 4
M  V30 4 2 4 5
M  V30 5 1 5 6
M  V30 6 2 6 7
M  V30 7 1 7 8
M  V30 8 1 8 9
M  V30 9 2 9 10
M  V30 10 1 10 11
M  V30 11 1 11 12
M  V30 12 2 11 13
M  V30 13 1 13 14
M  V30 14 2 14 15
M  V30 15 1 14 16
M  V30 16 1 13 17
M  V30 17 2 17 18
M  V30 18 1 18 19
M  V30 19 2 19 20
M  V30 20 1 19 21
M  V30 21 2 21 22
M  V30 22 1 22 4
M  V30 23 1 21 7
M  V30 24 1 18 9
M  V30 25 1 1 23
M  V30 26 1 1 24
M  V30 27 1 3 25
M  V30 28 1 3 26
M  V30 29 1 3 27
M  V30 30 1 5 28
M  V30 31 1 6 29
M  V30 32 1 12 30
M  V30 33 1 12 31
M  V30 34 1 16 32
M  V30 35 1 17 33
M  V30 36 1 22 34
M  V30 END BOND
M  V30 END CTAB
M  END
>  <Dataset>  (872) 
ChEMBL_Kinases

>  <Ligand_Instance>  (872) 
nan

>  <PDB_ID>  (872) 
nan

>  <Standardized_SMILES>  (872) 
C=C(C)c1ccc2oc3nc(N)c(C(=O)O)cc3c(=O)c2c1

>  <Name>  (872) 
nan

>  <Pocket>  (872) 
nan

>  <ATP_Site>  (872) 
nan

>  <Peripheral>  (872) 
nan

>  <Num_H_Atoms_ProtBoundConf>  (872) 
nan

>  <Num_Resolved_Atoms>  (872) 
nan

>  <Num_Not_Resolved_Atoms>  (872) 
nan

$$$$
CHEMBL3680490
     RDKit          3D

  0  0  0  0  0  0  0  0  0  0999 V3000
M  V30 BEGIN CTAB
M  V30 COUNTS 50 53 0 0 0
M  V30 BEGIN ATOM
M  V30 1 C 0.189299 -1.114437 2.103523 0
M  V30 2 C -0.197858 -0.006103 1.180875 0 CFG=1
M  V30 3 N 0.978698 0.727037 0.709426 0
M  V30 4 C 1.789900 1.421017 1.644154 0
M  V30 5 N 1.485817 1.418960 2.951856 0
M  V30 6 C 2.203442 2.054974 3.884100 0
M  V30 7 N 3.308286 2.754493 3.538795 0
M  V30 8 C 3.690420 2.812783 2.250081 0
M  V30 9 C 4.806089 3.508000 1.830331 0
M  V30 10 C 5.603998 4.209453 2.830075 0
M  V30 11 N 5.266105 4.196243 4.212146 0
M  V30 12 O 6.639172 4.872603 2.556632 0
M  V30 13 C 5.217030 3.581542 0.513693 0
M  V30 14 C 4.424678 2.899968 -0.383995 0
M  V30 15 C 3.310984 2.201663 0.007452 0
M  V30 16 C 2.919698 2.141965 1.326882 0
M  V30 17 C -1.100783 -0.403429 0.084107 0
M  V30 18 C -1.357092 0.556124 -0.871271 0
M  V30 19 C -2.194097 0.225400 -1.907924 0
M  V30 20 C -2.761449 -1.022448 -1.994992 0
M  V30 21 C -2.537077 -2.006834 -1.071726 0
M  V30 22 N -3.148219 -3.268933 -1.214996 0
M  V30 23 C -3.092367 -4.437324 -0.430103 0
M  V30 24 O -2.374487 -4.388836 0.600388 0
M  V30 25 C -3.806550 -5.665257 -0.746094 0
M  V30 26 C -4.619843 -5.876716 -1.818585 0
M  V30 27 N -5.246443 -7.044105 -2.041951 0
M  V30 28 C -5.102453 -8.077751 -1.209146 0
M  V30 29 N -4.301885 -7.931866 -0.116057 0
M  V30 30 C -3.677541 -6.756707 0.099313 0
M  V30 31 C -1.694448 -1.637722 -0.049826 0
M  V30 32 H -0.623509 -1.288630 2.833632 0
M  V30 33 H 0.389790 -2.055287 1.539720 0
M  V30 34 H 1.121725 -0.888991 2.640757 0
M  V30 35 H -0.781893 0.750755 1.782989 0
M  V30 36 H 1.116057 0.667681 -0.310470 0
M  V30 37 H 1.847483 1.974153 4.915712 0
M  V30 38 H 4.480869 4.357076 4.888453 0
M  V30 39 H 4.487001 4.355374 4.889074 0
M  V30 40 H 6.100302 4.144203 0.259432 0
M  V30 41 H 4.744985 2.953515 -1.434201 0
M  V30 42 H 2.766395 1.706721 -0.777954 0
M  V30 43 H -0.945168 1.555702 -0.864315 0
M  V30 44 H -2.414529 0.955785 -2.672571 0
M  V30 45 H -3.411884 -1.216845 -2.838284 0
M  V30 46 H -3.772327 -3.398494 -2.058290 0
M  V30 47 H -4.773067 -5.091438 -2.515909 0
M  V30 48 H -5.552685 -9.051073 -1.288889 0
M  V30 49 H -3.050182 -6.686320 0.982239 0
M  V30 50 H -1.448867 -2.329082 0.730975 0
M  V30 END ATOM
M  V30 BEGIN BOND
M  V30 1 1 1 2
M  V30 2 1 2 3
M  V30 3 1 3 4
M  V30 4 2 4 5
M  V30 5 1 5 6
M  V30 6 2 6 7
M  V30 7 1 7 8
M  V30 8 2 8 9
M  V30 9 1 9 10
M  V30 10 1 10 11
M  V30 11 2 10 12
M  V30 12 1 9 13
M  V30 13 2 13 14
M  V30 14 1 14 15
M  V30 15 2 15 16
M  V30 16 1 2 17
M  V30 17 2 17 18
M  V30 18 1 18 19
M  V30 19 2 19 20
M  V30 20 1 20 21
M  V30 21 1 21 22
M  V30 22 1 22 23
M  V30 23 2 23 24
M  V30 24 1 23 25
M  V30 25 2 25 26
M  V30 26 1 26 27
M  V30 27 2 27 28
M  V30 28 1 28 29
M  V30 29 2 29 30
M  V30 30 2 21 31
M  V30 31 1 16 4
M  V30 32 1 31 17
M  V30 33 1 16 8
M  V30 34 1 30 25
M  V30 35 1 1 32
M  V30 36 1 1 33
M  V30 37 1 1 34
M  V30 38 1 2 35 CFG=1
M  V30 39 1 3 36
M  V30 40 1 6 37
M  V30 41 1 11 38
M  V30 42 1 11 39
M  V30 43 1 13 40
M  V30 44 1 14 41
M  V30 45 1 15 42
M  V30 46 1 18 43
M  V30 47 1 19 44
M  V30 48 1 20 45
M  V30 49 1 22 46
M  V30 50 1 26 47
M  V30 51 1 28 48
M  V30 52 1 30 49
M  V30 53 1 31 50
M  V30 END BOND
M  V30 END CTAB
M  END
>  <Dataset>  (873) 
ChEMBL_Kinases

>  <Ligand_Instance>  (873) 
nan

>  <PDB_ID>  (873) 
nan

>  <Standardized_SMILES>  (873) 
C[C@@H](Nc1ncnc2c(C(N)=O)cccc12)c1cccc(NC(=O)c2cncnc2)c1

>  <Name>  (873) 
nan

>  <Pocket>  (873) 
nan

>  <ATP_Site>  (873) 
nan

>  <Peripheral>  (873) 
nan

>  <Num_H_Atoms_ProtBoundConf>  (873) 
nan

>  <Num_Resolved_Atoms>  (873) 
nan

>  <Num_Not_Resolved_Atoms>  (873) 
nan

$$$$
CHEMBL3680489
     RDKit          3D

  0  0  0  0  0  0  0  0  0  0999 V3000
M  V30 BEGIN CTAB
M  V30 COUNTS 62 65 0 0 0
M  V30 BEGIN ATOM
M  V30 1 C 5.537449 -1.047061 7.802645 0
M  V30 2 C 4.896097 -2.262388 7.142146 0
M  V30 3 O 3.817440 -1.803150 6.349418 0
M  V30 4 C 3.994432 -0.903348 5.308057 0
M  V30 5 O 5.236553 -0.772288 5.433262 0
M  V30 6 C 2.911969 -0.412299 4.471725 0
M  V30 7 C 1.637604 -0.870654 4.720877 0
M  V30 8 C 0.643771 -0.381094 3.900724 0
M  V30 9 C 0.956731 0.523230 2.889406 0
M  V30 10 C -0.059453 1.074643 1.958696 0
M  V30 11 O 0.205201 1.872159 1.051625 0
M  V30 12 N -1.433312 0.723261 2.036602 0
M  V30 13 C -2.348456 1.259998 1.131923 0
M  V30 14 C -3.393738 2.038494 1.422880 0
M  V30 15 C -4.372830 2.621578 0.484429 0
M  V30 16 C -4.220313 2.220843 -0.938025 0
M  V30 17 C -3.059688 1.363062 -1.236216 0
M  V30 18 C -3.025479 1.127458 -2.725327 0 CFG=2
M  V30 19 C -4.438031 0.617196 -3.126163 0
M  V30 20 N -2.160135 0.051360 -3.085787 0
M  V30 21 C -1.267356 -0.872132 -3.719685 0
M  V30 22 N -0.589013 -0.820136 -4.873054 0
M  V30 23 C 0.284638 -1.710733 -5.290148 0
M  V30 24 N 0.483232 -2.730042 -4.472883 0
M  V30 25 C -0.109018 -2.929549 -3.296322 0
M  V30 26 C 0.219930 -4.073857 -2.607888 0
M  V30 27 C 1.215750 -5.003998 -3.134670 0
M  V30 28 N 1.859221 -4.711133 -4.367214 0
M  V30 29 O 1.460352 -6.037055 -2.462311 0
M  V30 30 C -0.414988 -4.296436 -1.411997 0
M  V30 31 C -1.358412 -3.389170 -0.922304 0
M  V30 32 C -1.589522 -2.290390 -1.709371 0
M  V30 33 C -1.012674 -1.964818 -2.916379 0
M  V30 34 C -2.263948 0.967599 -0.285894 0
M  V30 35 C 2.266616 0.981735 2.649207 0
M  V30 36 N 3.164460 0.454246 3.492836 0
M  V30 37 H 5.682706 -1.234960 8.905209 0
M  V30 38 H 4.916731 -0.138363 7.716386 0
M  V30 39 H 6.553040 -0.851972 7.392756 0
M  V30 40 H 4.459119 -2.867450 7.969953 0
M  V30 41 H 5.655440 -2.786123 6.553462 0
M  V30 42 H 1.400375 -1.577419 5.505528 0
M  V30 43 H -0.377312 -0.691874 4.037358 0
M  V30 44 H -1.771037 0.052643 2.786935 0
M  V30 45 H -3.555133 2.277415 2.465303 0
M  V30 46 H -4.305499 3.731719 0.601158 0
M  V30 47 H -5.391955 2.327395 0.865113 0
M  V30 48 H -4.100301 3.168680 -1.544648 0
M  V30 49 H -5.157614 1.772709 -1.316308 0
M  V30 50 H -2.892948 2.086930 -3.204424 0
M  V30 51 H -5.039117 1.519195 -3.299846 0
M  V30 52 H -4.383099 0.050192 -4.075202 0
M  V30 53 H -4.897434 0.035108 -2.316721 0
M  V30 54 H -2.175093 0.600361 -3.984320 0
M  V30 55 H 0.739944 -1.517789 -6.239051 0
M  V30 56 H 1.687850 -4.823136 -5.389173 0
M  V30 57 H 2.802561 -4.242206 -4.469810 0
M  V30 58 H -0.173457 -5.187561 -0.853046 0
M  V30 59 H -1.861283 -3.553329 0.009121 0
M  V30 60 H -2.343247 -1.637481 -1.318211 0
M  V30 61 H -1.437674 0.367900 -0.637825 0
M  V30 62 H 2.488180 1.682045 1.859186 0
M  V30 END ATOM
M  V30 BEGIN BOND
M  V30 1 1 1 2
M  V30 2 1 2 3
M  V30 3 1 3 4
M  V30 4 2 4 5
M  V30 5 1 4 6
M  V30 6 2 6 7
M  V30 7 1 7 8
M  V30 8 2 8 9
M  V30 9 1 9 10
M  V30 10 2 10 11
M  V30 11 1 10 12
M  V30 12 1 12 13
M  V30 13 2 13 14
M  V30 14 1 14 15
M  V30 15 1 15 16
M  V30 16 1 16 17
M  V30 17 1 17 18
M  V30 18 1 18 19
M  V30 19 1 18 20
M  V30 20 1 20 21
M  V30 21 2 21 22
M  V30 22 1 22 23
M  V30 23 2 23 24
M  V30 24 1 24 25
M  V30 25 2 25 26
M  V30 26 1 26 27
M  V30 27 1 27 28
M  V30 28 2 27 29
M  V30 29 1 26 30
M  V30 30 2 30 31
M  V30 31 1 31 32
M  V30 32 2 32 33
M  V30 33 2 17 34
M  V30 34 1 9 35
M  V30 35 2 35 36
M  V30 36 1 36 6
M  V30 37 1 34 13
M  V30 38 1 33 21
M  V30 39 1 33 25
M  V30 40 1 1 37
M  V30 41 1 1 38
M  V30 42 1 1 39
M  V30 43 1 2 40
M  V30 44 1 2 41
M  V30 45 1 7 42
M  V30 46 1 8 43
M  V30 47 1 12 44
M  V30 48 1 14 45
M  V30 49 1 15 46
M  V30 50 1 15 47
M  V30 51 1 16 48
M  V30 52 1 16 49
M  V30 53 1 18 50 CFG=3
M  V30 54 1 19 51
M  V30 55 1 19 52
M  V30 56 1 19 53
M  V30 57 1 20 54
M  V30 58 1 23 55
M  V30 59 1 28 56
M  V30 60 1 28 57
M  V30 61 1 30 58
M  V30 62 1 31 59
M  V30 63 1 32 60
M  V30 64 1 34 61
M  V30 65 1 35 62
M  V30 END BOND
M  V30 END CTAB
M  END
>  <Dataset>  (874) 
ChEMBL_Kinases

>  <Ligand_Instance>  (874) 
nan

>  <PDB_ID>  (874) 
nan

>  <Standardized_SMILES>  (874) 
CCOC(=O)c1ccc(C(=O)NC2=CCCC([C@H](C)Nc3ncnc4c(C(N)=O)cccc34)=C2)cn1

>  <Name>  (874) 
nan

>  <Pocket>  (874) 
nan

>  <ATP_Site>  (874) 
nan

>  <Peripheral>  (874) 
nan

>  <Num_H_Atoms_ProtBoundConf>  (874) 
nan

>  <Num_Resolved_Atoms>  (874) 
nan

>  <Num_Not_Resolved_Atoms>  (874) 
nan

$$$$
CHEMBL3680488
     RDKit          3D

  0  0  0  0  0  0  0  0  0  0999 V3000
M  V30 BEGIN CTAB
M  V30 COUNTS 55 58 0 0 0
M  V30 BEGIN ATOM
M  V30 1 C 1.084044 -1.870288 2.777413 0
M  V30 2 C 0.481822 -0.615551 3.369329 0 CFG=1
M  V30 3 N 1.444259 0.457432 3.237971 0
M  V30 4 C 1.863807 0.863116 1.943802 0
M  V30 5 N 1.381915 0.275936 0.835302 0
M  V30 6 C 1.737153 0.617105 -0.416744 0
M  V30 7 N 2.624787 1.597155 -0.665306 0
M  V30 8 C 3.144016 2.224510 0.410040 0
M  V30 9 C 4.061747 3.242016 0.253832 0
M  V30 10 C 4.437347 3.601239 -1.105572 0
M  V30 11 N 3.895262 2.946648 -2.253694 0
M  V30 12 O 5.244694 4.484688 -1.484245 0
M  V30 13 C 4.640663 3.933914 1.286132 0
M  V30 14 C 4.250505 3.555182 2.570028 0
M  V30 15 C 3.334135 2.539850 2.741304 0
M  V30 16 C 2.773344 1.867340 1.689131 0
M  V30 17 C -0.772639 -0.330621 2.623378 0
M  V30 18 C -1.269161 0.950169 2.751888 0
M  V30 19 C -2.433235 1.234725 2.069585 0
M  V30 20 C -3.070440 0.288603 1.297363 0
M  V30 21 C -2.580729 -0.991463 1.164559 0
M  V30 22 N -3.293835 -1.908252 0.351408 0
M  V30 23 C -3.013677 -3.250109 0.055173 0
M  V30 24 O -2.006004 -3.787977 0.541046 0
M  V30 25 C -3.845549 -4.113727 -0.819020 0
M  V30 26 C -3.236563 -5.485001 -0.903081 0
M  V30 27 C -2.799939 -5.711762 -2.318412 0
M  V30 28 C -2.552146 -4.309980 -2.843098 0
M  V30 29 C -3.676712 -3.530468 -2.228349 0
M  V30 30 C -1.437240 -1.250113 1.842395 0
M  V30 31 H 2.126464 -2.029845 3.150077 0
M  V30 32 H 1.017412 -1.898798 1.673450 0
M  V30 33 H 0.537264 -2.787275 3.115846 0
M  V30 34 H 0.224864 -0.850589 4.417725 0
M  V30 35 H 1.761081 0.857498 4.128113 0
M  V30 36 H 1.245791 0.034096 -1.194286 0
M  V30 37 H 3.195026 3.149418 -3.011610 0
M  V30 38 H 3.963066 2.059270 -2.780784 0
M  V30 39 H 5.347813 4.714450 1.085572 0
M  V30 40 H 4.680586 4.072433 3.409365 0
M  V30 41 H 3.086423 2.308420 3.762355 0
M  V30 42 H -0.849554 1.762824 3.328999 0
M  V30 43 H -2.884870 2.211698 2.118462 0
M  V30 44 H -3.996444 0.568202 0.773903 0
M  V30 45 H -4.173909 -1.587295 -0.126782 0
M  V30 46 H -4.913908 -4.128387 -0.532415 0
M  V30 47 H -2.326816 -5.600896 -0.260951 0
M  V30 48 H -3.970081 -6.295556 -0.643910 0
M  V30 49 H -1.866773 -6.316170 -2.388345 0
M  V30 50 H -3.596052 -6.186825 -2.942296 0
M  V30 51 H -2.596769 -4.311199 -3.949313 0
M  V30 52 H -1.539451 -3.935913 -2.587314 0
M  V30 53 H -3.374379 -2.456555 -2.188802 0
M  V30 54 H -4.581287 -3.612801 -2.829286 0
M  V30 55 H -0.982048 -2.205457 1.805914 0
M  V30 END ATOM
M  V30 BEGIN BOND
M  V30 1 1 1 2
M  V30 2 1 2 3
M  V30 3 1 3 4
M  V30 4 2 4 5
M  V30 5 1 5 6
M  V30 6 2 6 7
M  V30 7 1 7 8
M  V30 8 2 8 9
M  V30 9 1 9 10
M  V30 10 1 10 11
M  V30 11 2 10 12
M  V30 12 1 9 13
M  V30 13 2 13 14
M  V30 14 1 14 15
M  V30 15 2 15 16
M  V30 16 1 2 17
M  V30 17 2 17 18
M  V30 18 1 18 19
M  V30 19 2 19 20
M  V30 20 1 20 21
M  V30 21 1 21 22
M  V30 22 1 22 23
M  V30 23 2 23 24
M  V30 24 1 23 25
M  V30 25 1 25 26
M  V30 26 1 26 27
M  V30 27 1 27 28
M  V30 28 1 28 29
M  V30 29 2 21 30
M  V30 30 1 16 4
M  V30 31 1 30 17
M  V30 32 1 16 8
M  V30 33 1 29 25
M  V30 34 1 1 31
M  V30 35 1 1 32
M  V30 36 1 1 33
M  V30 37 1 2 34 CFG=1
M  V30 38 1 3 35
M  V30 39 1 6 36
M  V30 40 1 11 37
M  V30 41 1 11 38
M  V30 42 1 13 39
M  V30 43 1 14 40
M  V30 44 1 15 41
M  V30 45 1 18 42
M  V30 46 1 19 43
M  V30 47 1 20 44
M  V30 48 1 22 45
M  V30 49 1 25 46
M  V30 50 1 26 47
M  V30 51 1 26 48
M  V30 52 1 27 49
M  V30 53 1 27 50
M  V30 54 1 28 51
M  V30 55 1 28 52
M  V30 56 1 29 53
M  V30 57 1 29 54
M  V30 58 1 30 55
M  V30 END BOND
M  V30 END CTAB
M  END
>  <Dataset>  (875) 
ChEMBL_Kinases

>  <Ligand_Instance>  (875) 
nan

>  <PDB_ID>  (875) 
nan

>  <Standardized_SMILES>  (875) 
C[C@@H](Nc1ncnc2c(C(N)=O)cccc12)c1cccc(NC(=O)C2CCCC2)c1

>  <Name>  (875) 
nan

>  <Pocket>  (875) 
nan

>  <ATP_Site>  (875) 
nan

>  <Peripheral>  (875) 
nan

>  <Num_H_Atoms_ProtBoundConf>  (875) 
nan

>  <Num_Resolved_Atoms>  (875) 
nan

>  <Num_Not_Resolved_Atoms>  (875) 
nan

$$$$
CHEMBL3701717
     RDKit          3D

  0  0  0  0  0  0  0  0  0  0999 V3000
M  V30 BEGIN CTAB
M  V30 COUNTS 61 67 0 0 0
M  V30 BEGIN ATOM
M  V30 1 N -0.186015 -1.562361 5.155427 0
M  V30 2 C -1.150997 -0.881119 4.294098 0
M  V30 3 C -0.638616 -0.754283 2.920308 0
M  V30 4 C -0.586543 0.348008 2.093553 0
M  V30 5 C -0.058754 0.252349 0.822389 0
M  V30 6 C 0.427176 -0.951724 0.356002 0
M  V30 7 C 0.994279 -1.101892 -0.982697 0
M  V30 8 N 0.301985 -1.971292 -1.772235 0
M  V30 9 C 0.890400 -2.048958 -2.980222 0
M  V30 10 N 1.950187 -1.223662 -2.934940 0
M  V30 11 C 2.060978 -0.619229 -1.737966 0
M  V30 12 C 2.927612 0.321909 -1.088459 0
M  V30 13 C 2.972255 1.571653 -1.709748 0
M  V30 14 C 3.743173 2.619833 -1.246964 0
M  V30 15 C 4.512555 2.419761 -0.105951 0
M  V30 16 C 4.488712 1.184278 0.535406 0
M  V30 17 C 3.704645 0.161540 0.041213 0
M  V30 18 C 2.876089 -0.993157 -4.025952 0
M  V30 19 O 2.568644 -1.732273 -5.188791 0
M  V30 20 C 1.489812 -2.600563 -5.299364 0
M  V30 21 C 1.227782 -3.303318 -6.458493 0
M  V30 22 C 0.156517 -4.165897 -6.569045 0
M  V30 23 C -0.658648 -4.297372 -5.444875 0
M  V30 24 C -0.451299 -3.616433 -4.240458 0
M  V30 25 F -1.291589 -3.801081 -3.194672 0
M  V30 26 C 0.643555 -2.776550 -4.223369 0
M  V30 27 C 0.389007 -2.082835 1.165806 0
M  V30 28 C -0.147154 -1.974536 2.450036 0
M  V30 29 C -1.705712 0.332031 4.951165 0
M  V30 30 C -3.089317 -0.280379 4.864141 0
M  V30 31 O -3.775406 -0.363893 6.085812 0
M  V30 32 C -3.999669 0.377126 3.851178 0
M  V30 33 C -5.391855 -0.101746 3.639704 0
M  V30 34 C -5.144543 1.195963 4.322558 0
M  V30 35 C -2.479866 -1.595920 4.417982 0
M  V30 36 H -0.226103 -2.581036 5.010974 0
M  V30 37 H -0.515342 -1.411285 6.148402 0
M  V30 38 H -0.982070 1.225508 2.537327 0
M  V30 39 H -0.034782 1.126282 0.210637 0
M  V30 40 H 2.397466 1.817475 -2.614996 0
M  V30 41 H 3.768905 3.582911 -1.737777 0
M  V30 42 H 5.135707 3.192478 0.308377 0
M  V30 43 H 5.065395 0.953125 1.434988 0
M  V30 44 H 3.629662 -0.829408 0.481066 0
M  V30 45 H 2.835686 0.093635 -4.313507 0
M  V30 46 H 3.915262 -1.213599 -3.713850 0
M  V30 47 H 1.877355 -3.184434 -7.321037 0
M  V30 48 H -0.094633 -4.739997 -7.450926 0
M  V30 49 H -1.523893 -4.965472 -5.468331 0
M  V30 50 H 0.779621 -3.025177 0.775037 0
M  V30 51 H -0.125912 -2.925038 2.995921 0
M  V30 52 H -1.438702 0.420368 6.041872 0
M  V30 53 H -1.570738 1.307640 4.486270 0
M  V30 54 H -4.179506 -1.276780 6.170554 0
M  V30 55 H -3.478492 0.782615 2.948963 0
M  V30 56 H -5.743375 -0.990755 4.217326 0
M  V30 57 H -5.849337 -0.064785 2.628810 0
M  V30 58 H -5.472948 2.115679 3.822284 0
M  V30 59 H -5.299492 1.233922 5.432311 0
M  V30 60 H -2.558201 -2.359618 5.196916 0
M  V30 61 H -2.908729 -1.928845 3.445244 0
M  V30 END ATOM
M  V30 BEGIN BOND
M  V30 1 1 1 2
M  V30 2 1 2 3
M  V30 3 2 3 4
M  V30 4 1 4 5
M  V30 5 2 5 6
M  V30 6 1 6 7
M  V30 7 1 7 8
M  V30 8 2 8 9
M  V30 9 1 9 10
M  V30 10 1 10 11
M  V30 11 1 11 12
M  V30 12 2 12 13
M  V30 13 1 13 14
M  V30 14 2 14 15
M  V30 15 1 15 16
M  V30 16 2 16 17
M  V30 17 1 10 18
M  V30 18 1 18 19
M  V30 19 1 19 20
M  V30 20 2 20 21
M  V30 21 1 21 22
M  V30 22 2 22 23
M  V30 23 1 23 24
M  V30 24 1 24 25
M  V30 25 2 24 26
M  V30 26 1 6 27
M  V30 27 2 27 28
M  V30 28 1 2 29
M  V30 29 1 29 30
M  V30 30 1 30 31
M  V30 31 1 30 32
M  V30 32 1 32 33
M  V30 33 1 33 34
M  V30 34 1 30 35
M  V30 35 1 35 2
M  V30 36 1 28 3
M  V30 37 1 34 32
M  V30 38 2 11 7
M  V30 39 1 17 12
M  V30 40 1 26 20
M  V30 41 1 26 9
M  V30 42 1 1 36
M  V30 43 1 1 37
M  V30 44 1 4 38
M  V30 45 1 5 39
M  V30 46 1 13 40
M  V30 47 1 14 41
M  V30 48 1 15 42
M  V30 49 1 16 43
M  V30 50 1 17 44
M  V30 51 1 18 45
M  V30 52 1 18 46
M  V30 53 1 21 47
M  V30 54 1 22 48
M  V30 55 1 23 49
M  V30 56 1 27 50
M  V30 57 1 28 51
M  V30 58 1 29 52
M  V30 59 1 29 53
M  V30 60 1 31 54
M  V30 61 1 32 55
M  V30 62 1 33 56
M  V30 63 1 33 57
M  V30 64 1 34 58
M  V30 65 1 34 59
M  V30 66 1 35 60
M  V30 67 1 35 61
M  V30 END BOND
M  V30 END CTAB
M  END
>  <Dataset>  (876) 
ChEMBL_Kinases

>  <Ligand_Instance>  (876) 
nan

>  <PDB_ID>  (876) 
nan

>  <Standardized_SMILES>  (876) 
NC1(c2ccc(-c3nc4n(c3-c3ccccc3)COc3cccc(F)c3-4)cc2)CC(O)(C2CC2)C1

>  <Name>  (876) 
nan

>  <Pocket>  (876) 
nan

>  <ATP_Site>  (876) 
nan

>  <Peripheral>  (876) 
nan

>  <Num_H_Atoms_ProtBoundConf>  (876) 
nan

>  <Num_Resolved_Atoms>  (876) 
nan

>  <Num_Not_Resolved_Atoms>  (876) 
nan

$$$$
CHEMBL3701720
     RDKit          3D

  0  0  0  0  0  0  0  0  0  0999 V3000
M  V30 BEGIN CTAB
M  V30 COUNTS 58 64 0 0 0
M  V30 BEGIN ATOM
M  V30 1 N 3.009870 -3.996844 1.166023 0
M  V30 2 C 2.263576 -3.614688 -0.022630 0
M  V30 3 C 1.404407 -2.432276 0.143482 0
M  V30 4 C 1.146946 -1.312174 -0.620548 0
M  V30 5 C 0.262804 -0.344980 -0.187990 0
M  V30 6 C -0.407631 -0.435039 1.014175 0
M  V30 7 C -1.302376 0.677903 1.309631 0
M  V30 8 N -2.653449 0.509850 1.444403 0
M  V30 9 C -3.203852 1.720452 1.713667 0
M  V30 10 N -2.239315 2.655431 1.754106 0
M  V30 11 C -1.077835 2.023052 1.508061 0
M  V30 12 C 0.232511 2.575214 1.445132 0
M  V30 13 C 1.344368 2.386399 2.199895 0
M  V30 14 C 2.569408 3.041152 1.974394 0
M  V30 15 S 2.216615 4.127145 0.477296 0
M  V30 16 C 0.409687 3.597249 0.275930 0
M  V30 17 C -2.407202 4.067894 2.011631 0
M  V30 18 O -3.723690 4.429125 2.231624 0
M  V30 19 C -4.732880 3.489957 2.195721 0
M  V30 20 C -6.014832 3.956047 2.428879 0
M  V30 21 C -7.103462 3.082503 2.413574 0
M  V30 22 C -6.908312 1.727137 2.162192 0
M  V30 23 C -5.617367 1.268139 1.929107 0
M  V30 24 F -5.289524 -0.034342 1.670520 0
M  V30 25 C -4.571313 2.155565 1.951948 0
M  V30 26 C -0.166691 -1.548683 1.798701 0
M  V30 27 C 0.725375 -2.530426 1.368507 0
M  V30 28 C 1.638570 -4.800253 -0.696545 0
M  V30 29 C 2.293278 -4.394165 -1.981029 0
M  V30 30 O 1.460087 -3.701061 -2.865152 0
M  V30 31 C 3.002340 -5.484389 -2.729978 0
M  V30 32 C 4.125888 -6.242929 -2.182598 0
M  V30 33 C 4.427361 -5.156210 -3.146248 0
M  V30 34 C 3.222128 -3.516386 -1.184928 0
M  V30 35 H 3.912205 -3.476098 1.123645 0
M  V30 36 H 3.078780 -5.009203 1.293669 0
M  V30 37 H 1.712551 -1.328872 -1.534895 0
M  V30 38 H 0.174672 0.458141 -0.895517 0
M  V30 39 H 1.224498 1.684476 3.003536 0
M  V30 40 H 3.449984 2.876860 2.590549 0
M  V30 41 H -0.337222 3.889075 -0.433511 0
M  V30 42 H -1.925917 4.687534 1.203258 0
M  V30 43 H -1.770936 4.289570 2.911219 0
M  V30 44 H -6.257737 4.986429 2.631373 0
M  V30 45 H -8.138783 3.354860 2.584432 0
M  V30 46 H -7.672161 0.972732 2.127581 0
M  V30 47 H -0.719370 -1.563227 2.726153 0
M  V30 48 H 0.782435 -3.318537 2.110887 0
M  V30 49 H 2.061373 -5.755361 -0.328610 0
M  V30 50 H 0.544221 -4.873610 -0.703192 0
M  V30 51 H 1.160077 -4.270345 -3.613542 0
M  V30 52 H 2.343962 -6.005448 -3.464914 0
M  V30 53 H 4.288006 -7.280573 -2.564933 0
M  V30 54 H 4.415225 -6.167019 -1.118907 0
M  V30 55 H 4.649946 -5.448770 -4.208694 0
M  V30 56 H 4.891236 -4.207375 -2.885955 0
M  V30 57 H 3.316167 -2.527448 -1.648898 0
M  V30 58 H 4.225906 -3.951010 -0.988424 0
M  V30 END ATOM
M  V30 BEGIN BOND
M  V30 1 1 1 2
M  V30 2 1 2 3
M  V30 3 2 3 4
M  V30 4 1 4 5
M  V30 5 2 5 6
M  V30 6 1 6 7
M  V30 7 1 7 8
M  V30 8 2 8 9
M  V30 9 1 9 10
M  V30 10 1 10 11
M  V30 11 1 11 12
M  V30 12 1 12 13
M  V30 13 2 13 14
M  V30 14 1 14 15
M  V30 15 1 15 16
M  V30 16 1 10 17
M  V30 17 1 17 18
M  V30 18 1 18 19
M  V30 19 2 19 20
M  V30 20 1 20 21
M  V30 21 2 21 22
M  V30 22 1 22 23
M  V30 23 1 23 24
M  V30 24 2 23 25
M  V30 25 1 6 26
M  V30 26 2 26 27
M  V30 27 1 2 28
M  V30 28 1 28 29
M  V30 29 1 29 30
M  V30 30 1 29 31
M  V30 31 1 31 32
M  V30 32 1 32 33
M  V30 33 1 29 34
M  V30 34 1 34 2
M  V30 35 1 27 3
M  V30 36 1 33 31
M  V30 37 2 11 7
M  V30 38 2 16 12
M  V30 39 1 25 19
M  V30 40 1 25 9
M  V30 41 1 1 35
M  V30 42 1 1 36
M  V30 43 1 4 37
M  V30 44 1 5 38
M  V30 45 1 13 39
M  V30 46 1 14 40
M  V30 47 1 16 41
M  V30 48 1 17 42
M  V30 49 1 17 43
M  V30 50 1 20 44
M  V30 51 1 21 45
M  V30 52 1 22 46
M  V30 53 1 26 47
M  V30 54 1 27 48
M  V30 55 1 28 49
M  V30 56 1 28 50
M  V30 57 1 30 51
M  V30 58 1 31 52
M  V30 59 1 32 53
M  V30 60 1 32 54
M  V30 61 1 33 55
M  V30 62 1 33 56
M  V30 63 1 34 57
M  V30 64 1 34 58
M  V30 END BOND
M  V30 END CTAB
M  END
>  <Dataset>  (877) 
ChEMBL_Kinases

>  <Ligand_Instance>  (877) 
nan

>  <PDB_ID>  (877) 
nan

>  <Standardized_SMILES>  (877) 
NC1(c2ccc(-c3nc4n(c3-c3ccsc3)COc3cccc(F)c3-4)cc2)CC(O)(C2CC2)C1

>  <Name>  (877) 
nan

>  <Pocket>  (877) 
nan

>  <ATP_Site>  (877) 
nan

>  <Peripheral>  (877) 
nan

>  <Num_H_Atoms_ProtBoundConf>  (877) 
nan

>  <Num_Resolved_Atoms>  (877) 
nan

>  <Num_Not_Resolved_Atoms>  (877) 
nan

$$$$
CHEMBL3680554
     RDKit          3D

  0  0  0  0  0  0  0  0  0  0999 V3000
M  V30 BEGIN CTAB
M  V30 COUNTS 56 60 0 0 0
M  V30 BEGIN ATOM
M  V30 1 N 4.806309 -5.226801 2.902301 0
M  V30 2 C 4.801823 -4.372516 1.782421 0
M  V30 3 O 5.341110 -4.957223 0.810415 0
M  V30 4 C 4.210521 -3.050578 1.941527 0
M  V30 5 C 3.681995 -2.612210 3.134556 0
M  V30 6 C 3.143153 -1.346736 3.187639 0
M  V30 7 C 3.151012 -0.567743 2.055139 0
M  V30 8 C 3.654830 -0.933320 0.844105 0
M  V30 9 C 3.663730 -0.154052 -0.313952 0
M  V30 10 N 3.085475 1.101496 -0.068795 0
M  V30 11 C 2.508027 2.355442 0.175797 0
M  V30 12 C 1.283768 2.701241 -0.598714 0
M  V30 13 C 1.214963 3.321329 -1.834289 0
M  V30 14 C -0.007346 3.572118 -2.416762 0
M  V30 15 C -1.212042 3.237189 -1.835443 0
M  V30 16 C -1.210984 2.608922 -0.588994 0
M  V30 17 N -2.358312 2.188195 0.164721 0
M  V30 18 C -2.710963 0.859339 -0.143611 0
M  V30 19 O -1.982309 0.296825 -1.000963 0
M  V30 20 C -3.861799 0.202217 0.511990 0
M  V30 21 N -4.691459 0.735558 1.427995 0
M  V30 22 N -5.555762 -0.215165 1.730361 0
M  V30 23 C -5.318473 -1.347301 1.044194 0
M  V30 24 C -4.213812 -1.101748 0.237755 0
M  V30 25 C -3.688518 -2.156038 -0.654580 0
M  V30 26 C -4.184984 -3.502196 -0.217740 0
M  V30 27 C -5.674905 -3.529935 0.028526 0
M  V30 28 C -6.103145 -2.620569 1.145799 0
M  V30 29 C 0.048420 2.371747 -0.030979 0
M  V30 30 N 4.207760 -0.718622 -1.402257 0
M  V30 31 C 4.713808 -1.953087 -1.386415 0
M  V30 32 N 4.698102 -2.685767 -0.270314 0
M  V30 33 C 4.180754 -2.209350 0.850226 0
M  V30 34 H 4.825529 -5.844971 3.728903 0
M  V30 35 H 4.242990 -6.004394 3.344403 0
M  V30 36 H 3.695515 -3.253759 3.991384 0
M  V30 37 H 2.733492 -1.015890 4.120694 0
M  V30 38 H 2.716025 0.390432 2.184181 0
M  V30 39 H 3.200198 1.447171 -1.083636 0
M  V30 40 H 2.220222 2.476096 1.287277 0
M  V30 41 H 3.225136 3.199346 0.053438 0
M  V30 42 H 2.169123 3.572511 -2.266542 0
M  V30 43 H -0.033257 4.060204 -3.387688 0
M  V30 44 H -2.183193 3.410577 -2.246041 0
M  V30 45 H -2.900210 2.754902 0.866326 0
M  V30 46 H -4.608888 1.712775 1.782079 0
M  V30 47 H -4.083118 -1.985183 -1.695134 0
M  V30 48 H -2.584581 -2.174349 -0.653072 0
M  V30 49 H -3.972463 -4.226355 -1.031126 0
M  V30 50 H -3.698452 -3.871483 0.711094 0
M  V30 51 H -5.910542 -4.579219 0.317443 0
M  V30 52 H -6.263802 -3.304996 -0.879133 0
M  V30 53 H -5.795682 -3.103049 2.099602 0
M  V30 54 H -7.166490 -2.399381 1.080843 0
M  V30 55 H 0.067370 1.877753 0.948791 0
M  V30 56 H 5.107834 -2.235263 -2.362899 0
M  V30 END ATOM
M  V30 BEGIN BOND
M  V30 1 1 1 2
M  V30 2 2 2 3
M  V30 3 1 2 4
M  V30 4 2 4 5
M  V30 5 1 5 6
M  V30 6 2 6 7
M  V30 7 1 7 8
M  V30 8 2 8 9
M  V30 9 1 9 10
M  V30 10 1 10 11
M  V30 11 1 11 12
M  V30 12 2 12 13
M  V30 13 1 13 14
M  V30 14 2 14 15
M  V30 15 1 15 16
M  V30 16 1 16 17
M  V30 17 1 17 18
M  V30 18 2 18 19
M  V30 19 1 18 20
M  V30 20 1 20 21
M  V30 21 1 21 22
M  V30 22 2 22 23
M  V30 23 1 23 24
M  V30 24 1 24 25
M  V30 25 1 25 26
M  V30 26 1 26 27
M  V30 27 1 27 28
M  V30 28 2 16 29
M  V30 29 1 9 30
M  V30 30 2 30 31
M  V30 31 1 31 32
M  V30 32 2 32 33
M  V30 33 1 33 4
M  V30 34 1 33 8
M  V30 35 1 29 12
M  V30 36 2 24 20
M  V30 37 1 28 23
M  V30 38 1 1 34
M  V30 39 1 1 35
M  V30 40 1 5 36
M  V30 41 1 6 37
M  V30 42 1 7 38
M  V30 43 1 10 39
M  V30 44 1 11 40
M  V30 45 1 11 41
M  V30 46 1 13 42
M  V30 47 1 14 43
M  V30 48 1 15 44
M  V30 49 1 17 45
M  V30 50 1 21 46
M  V30 51 1 25 47
M  V30 52 1 25 48
M  V30 53 1 26 49
M  V30 54 1 26 50
M  V30 55 1 27 51
M  V30 56 1 27 52
M  V30 57 1 28 53
M  V30 58 1 28 54
M  V30 59 1 29 55
M  V30 60 1 31 56
M  V30 END BOND
M  V30 END CTAB
M  END
>  <Dataset>  (878) 
ChEMBL_Kinases

>  <Ligand_Instance>  (878) 
nan

>  <PDB_ID>  (878) 
nan

>  <Standardized_SMILES>  (878) 
NC(=O)c1cccc2c(NCc3cccc(NC(=O)c4[nH]nc5c4CCCC5)c3)ncnc12

>  <Name>  (878) 
nan

>  <Pocket>  (878) 
nan

>  <ATP_Site>  (878) 
nan

>  <Peripheral>  (878) 
nan

>  <Num_H_Atoms_ProtBoundConf>  (878) 
nan

>  <Num_Resolved_Atoms>  (878) 
nan

>  <Num_Not_Resolved_Atoms>  (878) 
nan

$$$$
CHEMBL3680552
     RDKit          3D

  0  0  0  0  0  0  0  0  0  0999 V3000
M  V30 BEGIN CTAB
M  V30 COUNTS 47 50 0 0 0
M  V30 BEGIN ATOM
M  V30 1 N 6.104332 -1.963206 4.337953 0
M  V30 2 C 5.912717 -1.596876 3.257162 0
M  V30 3 C 5.674310 -1.157298 1.921905 0
M  V30 4 C 6.543877 -1.547830 0.946397 0
M  V30 5 C 6.283032 -1.101310 -0.339465 0
M  V30 6 N 5.238619 -0.332975 -0.597471 0
M  V30 7 C 4.344768 0.089435 0.305707 0
M  V30 8 N 3.258653 0.898991 -0.094364 0
M  V30 9 C 2.231694 1.577498 0.602441 0
M  V30 10 C 2.371203 2.149758 1.872157 0
M  V30 11 C 1.317376 2.772974 2.502373 0
M  V30 12 C 0.093331 2.841138 1.879067 0
M  V30 13 C -0.124800 2.292706 0.608006 0
M  V30 14 C -1.461920 2.425044 -0.004055 0
M  V30 15 N -2.416899 1.430958 0.347388 0
M  V30 16 C -2.303049 0.022800 0.193011 0
M  V30 17 N -1.174897 -0.480006 -0.325744 0
M  V30 18 C -1.062811 -1.807442 -0.462025 0
M  V30 19 N -2.038756 -2.686691 -0.100794 0
M  V30 20 C -3.205363 -2.213953 0.432015 0
M  V30 21 C -4.205947 -3.078485 0.800475 0
M  V30 22 C -4.038067 -4.523201 0.636112 0
M  V30 23 N -2.865641 -5.129310 0.110003 0
M  V30 24 O -4.940875 -5.333616 0.956771 0
M  V30 25 C -5.378201 -2.615217 1.330457 0
M  V30 26 C -5.508792 -1.238994 1.477573 0
M  V30 27 C -4.472806 -0.412105 1.091918 0
M  V30 28 C -3.297862 -0.854383 0.562385 0
M  V30 29 C 0.975314 1.701003 0.071489 0
M  V30 30 C 4.611263 -0.357870 1.572416 0
M  V30 31 H 7.413033 -2.173867 1.103807 0
M  V30 32 H 6.913479 -1.350874 -1.204647 0
M  V30 33 H 3.168352 1.054730 -1.141128 0
M  V30 34 H 3.320135 2.123678 2.378812 0
M  V30 35 H 1.489451 3.202025 3.498591 0
M  V30 36 H -0.675431 3.345731 2.442520 0
M  V30 37 H -1.848581 3.427926 0.353686 0
M  V30 38 H -1.308220 2.525146 -1.104576 0
M  V30 39 H -3.298549 1.792412 0.765699 0
M  V30 40 H -0.153420 -2.250875 -0.881871 0
M  V30 41 H -2.039598 -5.595682 0.571282 0
M  V30 42 H -2.364061 -5.358147 -0.777099 0
M  V30 43 H -6.145419 -3.324737 1.609805 0
M  V30 44 H -6.454594 -0.918599 1.900255 0
M  V30 45 H -4.707057 0.609788 1.259481 0
M  V30 46 H 0.852995 1.272556 -0.916486 0
M  V30 47 H 3.963771 -0.097021 2.372201 0
M  V30 END ATOM
M  V30 BEGIN BOND
M  V30 1 3 1 2
M  V30 2 1 2 3
M  V30 3 2 3 4
M  V30 4 1 4 5
M  V30 5 2 5 6
M  V30 6 1 6 7
M  V30 7 1 7 8
M  V30 8 1 8 9
M  V30 9 2 9 10
M  V30 10 1 10 11
M  V30 11 2 11 12
M  V30 12 1 12 13
M  V30 13 1 13 14
M  V30 14 1 14 15
M  V30 15 1 15 16
M  V30 16 2 16 17
M  V30 17 1 17 18
M  V30 18 2 18 19
M  V30 19 1 19 20
M  V30 20 2 20 21
M  V30 21 1 21 22
M  V30 22 1 22 23
M  V30 23 2 22 24
M  V30 24 1 21 25
M  V30 25 2 25 26
M  V30 26 1 26 27
M  V30 27 2 27 28
M  V30 28 2 13 29
M  V30 29 2 7 30
M  V30 30 1 30 3
M  V30 31 1 29 9
M  V30 32 1 28 16
M  V30 33 1 28 20
M  V30 34 1 4 31
M  V30 35 1 5 32
M  V30 36 1 8 33
M  V30 37 1 10 34
M  V30 38 1 11 35
M  V30 39 1 12 36
M  V30 40 1 14 37
M  V30 41 1 14 38
M  V30 42 1 15 39
M  V30 43 1 18 40
M  V30 44 1 23 41
M  V30 45 1 23 42
M  V30 46 1 25 43
M  V30 47 1 26 44
M  V30 48 1 27 45
M  V30 49 1 29 46
M  V30 50 1 30 47
M  V30 END BOND
M  V30 END CTAB
M  END
>  <Dataset>  (879) 
ChEMBL_Kinases

>  <Ligand_Instance>  (879) 
nan

>  <PDB_ID>  (879) 
nan

>  <Standardized_SMILES>  (879) 
N#Cc1ccnc(Nc2cccc(CNc3ncnc4c(C(N)=O)cccc34)c2)c1

>  <Name>  (879) 
nan

>  <Pocket>  (879) 
nan

>  <ATP_Site>  (879) 
nan

>  <Peripheral>  (879) 
nan

>  <Num_H_Atoms_ProtBoundConf>  (879) 
nan

>  <Num_Resolved_Atoms>  (879) 
nan

>  <Num_Not_Resolved_Atoms>  (879) 
nan

$$$$
CHEMBL3701742
     RDKit          3D

  0  0  0  0  0  0  0  0  0  0999 V3000
M  V30 BEGIN CTAB
M  V30 COUNTS 60 66 0 0 0
M  V30 BEGIN ATOM
M  V30 1 N 2.440120 -4.793634 1.686815 0
M  V30 2 C 1.859527 -4.477979 0.394539 0
M  V30 3 C 1.257325 -3.135387 0.436540 0
M  V30 4 C 0.474262 -2.878352 1.562743 0
M  V30 5 C -0.147259 -1.645167 1.721641 0
M  V30 6 C 0.003920 -0.648268 0.757359 0
M  V30 7 C -0.653044 0.647604 0.922594 0
M  V30 8 N -2.000915 0.639136 0.761562 0
M  V30 9 C -2.484778 1.887885 0.932903 0
M  V30 10 N -1.421185 2.664507 1.201145 0
M  V30 11 C -0.282583 1.945666 1.204224 0
M  V30 12 C 1.113060 2.245799 1.426680 0
M  V30 13 C 2.187921 2.178773 0.574819 0
M  V30 14 C 3.455160 2.501738 0.967555 0
M  V30 15 C 3.720583 2.917336 2.259089 0
M  V30 16 C 2.645574 2.991285 3.135311 0
M  V30 17 C 1.373456 2.665939 2.736604 0
M  V30 18 C -1.468734 4.088424 1.457235 0
M  V30 19 O -2.772511 4.629385 1.400396 0
M  V30 20 C -3.903225 3.873619 1.127605 0
M  V30 21 C -5.167540 4.462695 1.084726 0
M  V30 22 C -6.235813 3.631111 0.805614 0
M  V30 23 C -6.134180 2.274400 0.569641 0
M  V30 24 N -4.876128 1.750642 0.623711 0
M  V30 25 C -3.802229 2.516527 0.891494 0
M  V30 26 C 0.777754 -0.900790 -0.356880 0
M  V30 27 C 1.388452 -2.131603 -0.499359 0
M  V30 28 C 2.694368 -4.831115 -0.790411 0
M  V30 29 C 1.561687 -5.640518 -1.388864 0
M  V30 30 O 1.914748 -6.950531 -1.712541 0
M  V30 31 C 0.800936 -5.002258 -2.497564 0
M  V30 32 C -0.327084 -5.783973 -3.110383 0
M  V30 33 C -0.545380 -4.457042 -2.381156 0
M  V30 34 C 0.916906 -5.608742 -0.025724 0
M  V30 35 H 2.897738 -3.967718 2.135152 0
M  V30 36 H 1.652947 -5.104512 2.301285 0
M  V30 37 H 0.266826 -3.556047 2.393408 0
M  V30 38 H -0.772705 -1.395110 2.587856 0
M  V30 39 H 1.932732 1.855040 -0.409960 0
M  V30 40 H 4.218585 2.404479 0.189239 0
M  V30 41 H 4.762398 3.142891 2.442329 0
M  V30 42 H 2.902691 3.323139 4.138796 0
M  V30 43 H 0.618146 2.769348 3.527109 0
M  V30 44 H -1.047255 4.322869 2.456029 0
M  V30 45 H -0.848195 4.582392 0.652749 0
M  V30 46 H -5.304019 5.522906 1.261712 0
M  V30 47 H -7.191726 4.112801 0.779882 0
M  V30 48 H -7.018217 1.685724 0.357184 0
M  V30 49 H 0.937775 -0.183679 -1.143752 0
M  V30 50 H 1.992620 -2.350951 -1.352527 0
M  V30 51 H 3.512061 -5.533051 -0.472093 0
M  V30 52 H 3.124624 -4.039214 -1.399920 0
M  V30 53 H 1.729378 -7.597381 -0.994178 0
M  V30 54 H 1.469384 -4.521196 -3.269538 0
M  V30 55 H -0.457492 -5.785769 -4.206837 0
M  V30 56 H -0.695215 -6.714052 -2.644434 0
M  V30 57 H -0.832658 -3.609775 -3.063379 0
M  V30 58 H -1.191472 -4.524861 -1.513237 0
M  V30 59 H 1.046206 -6.538035 0.579979 0
M  V30 60 H -0.111651 -5.272316 0.052349 0
M  V30 END ATOM
M  V30 BEGIN BOND
M  V30 1 1 1 2
M  V30 2 1 2 3
M  V30 3 2 3 4
M  V30 4 1 4 5
M  V30 5 2 5 6
M  V30 6 1 6 7
M  V30 7 1 7 8
M  V30 8 2 8 9
M  V30 9 1 9 10
M  V30 10 1 10 11
M  V30 11 1 11 12
M  V30 12 2 12 13
M  V30 13 1 13 14
M  V30 14 2 14 15
M  V30 15 1 15 16
M  V30 16 2 16 17
M  V30 17 1 10 18
M  V30 18 1 18 19
M  V30 19 1 19 20
M  V30 20 2 20 21
M  V30 21 1 21 22
M  V30 22 2 22 23
M  V30 23 1 23 24
M  V30 24 2 24 25
M  V30 25 1 6 26
M  V30 26 2 26 27
M  V30 27 1 2 28
M  V30 28 1 28 29
M  V30 29 1 29 30
M  V30 30 1 29 31
M  V30 31 1 31 32
M  V30 32 1 32 33
M  V30 33 1 29 34
M  V30 34 1 34 2
M  V30 35 1 27 3
M  V30 36 1 33 31
M  V30 37 2 11 7
M  V30 38 1 17 12
M  V30 39 1 25 20
M  V30 40 1 25 9
M  V30 41 1 1 35
M  V30 42 1 1 36
M  V30 43 1 4 37
M  V30 44 1 5 38
M  V30 45 1 13 39
M  V30 46 1 14 40
M  V30 47 1 15 41
M  V30 48 1 16 42
M  V30 49 1 17 43
M  V30 50 1 18 44
M  V30 51 1 18 45
M  V30 52 1 21 46
M  V30 53 1 22 47
M  V30 54 1 23 48
M  V30 55 1 26 49
M  V30 56 1 27 50
M  V30 57 1 28 51
M  V30 58 1 28 52
M  V30 59 1 30 53
M  V30 60 1 31 54
M  V30 61 1 32 55
M  V30 62 1 32 56
M  V30 63 1 33 57
M  V30 64 1 33 58
M  V30 65 1 34 59
M  V30 66 1 34 60
M  V30 END BOND
M  V30 END CTAB
M  END
>  <Dataset>  (880) 
ChEMBL_Kinases

>  <Ligand_Instance>  (880) 
nan

>  <PDB_ID>  (880) 
nan

>  <Standardized_SMILES>  (880) 
NC1(c2ccc(-c3nc4n(c3-c3ccccc3)COc3cccnc3-4)cc2)CC(O)(C2CC2)C1

>  <Name>  (880) 
nan

>  <Pocket>  (880) 
nan

>  <ATP_Site>  (880) 
nan

>  <Peripheral>  (880) 
nan

>  <Num_H_Atoms_ProtBoundConf>  (880) 
nan

>  <Num_Resolved_Atoms>  (880) 
nan

>  <Num_Not_Resolved_Atoms>  (880) 
nan

$$$$
CHEMBL4589855
     RDKit          3D

  0  0  0  0  0  0  0  0  0  0999 V3000
M  V30 BEGIN CTAB
M  V30 COUNTS 53 56 0 0 0
M  V30 BEGIN ATOM
M  V30 1 C 0.918291 -4.338840 3.633628 0
M  V30 2 C 1.530286 -3.139260 4.321063 0 CFG=1
M  V30 3 N 2.681918 -3.438466 5.112161 0
M  V30 4 C 3.767105 -2.690763 4.577990 0
M  V30 5 O 4.939774 -2.698392 5.014697 0
M  V30 6 C 3.318834 -1.904139 3.436766 0
M  V30 7 C 3.624806 -1.010280 2.437030 0
M  V30 8 C 2.514998 -0.708941 1.658320 0
M  V30 9 C 2.536241 0.212191 0.536730 0
M  V30 10 C 3.747336 0.778153 0.174878 0
M  V30 11 C 3.941997 1.660888 -0.859846 0
M  V30 12 C 2.808401 1.981975 -1.570447 0
M  V30 13 C 1.592067 1.434243 -1.231736 0
M  V30 14 C 0.515603 1.817687 -1.998348 0
M  V30 15 O 0.655772 2.617557 -2.945365 0
M  V30 16 N -0.655651 1.273794 -1.648647 0
M  V30 17 C -1.764980 1.782357 -2.429765 0
M  V30 18 C -0.857428 0.409358 -0.643481 0
M  V30 19 N -2.082484 -0.299919 -0.338714 0
M  V30 20 C -2.026095 -0.880474 1.023834 0
M  V30 21 C -3.413717 -0.571942 -0.797908 0
M  V30 22 C -4.470699 0.320108 -0.162475 0
M  V30 23 C -3.836181 -2.000274 -0.312667 0
M  V30 24 C -3.607166 -0.657090 -2.289456 0
M  V30 25 N 0.240155 0.068298 0.080465 0
M  V30 26 C 1.432730 0.556108 -0.192461 0
M  V30 27 N 1.577013 -1.454910 2.243536 0
M  V30 28 C 1.995761 -2.176111 3.292853 0
M  V30 29 H 0.472752 -5.045196 4.342404 0
M  V30 30 H 1.635421 -4.819424 2.959396 0
M  V30 31 H 0.047663 -3.926545 3.049898 0
M  V30 32 H 0.740123 -2.688597 4.970316 0
M  V30 33 H 2.690557 -4.089829 5.924792 0
M  V30 34 H 4.665792 -0.654780 2.374230 0
M  V30 35 H 4.668847 0.538474 0.725937 0
M  V30 36 H 4.895714 2.077537 -1.109116 0
M  V30 37 H 2.912289 2.683775 -2.407775 0
M  V30 38 H -1.547822 2.870256 -2.731643 0
M  V30 39 H -2.643418 1.894733 -1.790885 0
M  V30 40 H -1.875900 1.279934 -3.385612 0
M  V30 41 H -3.012300 -0.961855 1.451831 0
M  V30 42 H -1.566197 -1.886194 0.956112 0
M  V30 43 H -1.366558 -0.197502 1.625438 0
M  V30 44 H -4.687028 1.220979 -0.782849 0
M  V30 45 H -4.180470 0.594930 0.868717 0
M  V30 46 H -5.415881 -0.252933 -0.075806 0
M  V30 47 H -4.473743 -1.944435 0.579207 0
M  V30 48 H -4.490117 -2.391270 -1.115510 0
M  V30 49 H -2.977356 -2.666481 -0.258849 0
M  V30 50 H -4.087939 0.236802 -2.729076 0
M  V30 51 H -2.681455 -0.882049 -2.845025 0
M  V30 52 H -4.362469 -1.480097 -2.544325 0
M  V30 53 H 0.600873 -1.467132 1.893163 0
M  V30 END ATOM
M  V30 BEGIN BOND
M  V30 1 1 1 2
M  V30 2 1 2 3
M  V30 3 1 3 4
M  V30 4 2 4 5
M  V30 5 1 4 6
M  V30 6 1 6 7
M  V30 7 2 7 8
M  V30 8 1 8 9
M  V30 9 2 9 10
M  V30 10 1 10 11
M  V30 11 2 11 12
M  V30 12 1 12 13
M  V30 13 1 13 14
M  V30 14 2 14 15
M  V30 15 1 14 16
M  V30 16 1 16 17
M  V30 17 1 16 18
M  V30 18 1 18 19
M  V30 19 1 19 20
M  V30 20 1 19 21
M  V30 21 1 21 22
M  V30 22 1 21 23
M  V30 23 1 21 24
M  V30 24 2 18 25
M  V30 25 1 25 26
M  V30 26 1 8 27
M  V30 27 1 27 28
M  V30 28 1 28 2
M  V30 29 2 28 6
M  V30 30 1 26 9
M  V30 31 2 26 13
M  V30 32 1 1 29
M  V30 33 1 1 30
M  V30 34 1 1 31
M  V30 35 1 2 32 CFG=1
M  V30 36 1 3 33
M  V30 37 1 7 34
M  V30 38 1 10 35
M  V30 39 1 11 36
M  V30 40 1 12 37
M  V30 41 1 17 38
M  V30 42 1 17 39
M  V30 43 1 17 40
M  V30 44 1 20 41
M  V30 45 1 20 42
M  V30 46 1 20 43
M  V30 47 1 22 44
M  V30 48 1 22 45
M  V30 49 1 22 46
M  V30 50 1 23 47
M  V30 51 1 23 48
M  V30 52 1 23 49
M  V30 53 1 24 50
M  V30 54 1 24 51
M  V30 55 1 24 52
M  V30 56 1 27 53
M  V30 END BOND
M  V30 END CTAB
M  END
>  <Dataset>  (881) 
ChEMBL_Kinases

>  <Ligand_Instance>  (881) 
nan

>  <PDB_ID>  (881) 
nan

>  <Standardized_SMILES>  (881) 
C[C@H]1NC(=O)c2cc(-c3cccc4c(=O)n(C)c(N(C)C(C)(C)C)nc34)[nH]c21

>  <Name>  (881) 
nan

>  <Pocket>  (881) 
nan

>  <ATP_Site>  (881) 
nan

>  <Peripheral>  (881) 
nan

>  <Num_H_Atoms_ProtBoundConf>  (881) 
nan

>  <Num_Resolved_Atoms>  (881) 
nan

>  <Num_Not_Resolved_Atoms>  (881) 
nan

$$$$
CHEMBL3680549
     RDKit          3D

  0  0  0  0  0  0  0  0  0  0999 V3000
M  V30 BEGIN CTAB
M  V30 COUNTS 48 51 0 0 0
M  V30 BEGIN ATOM
M  V30 1 N 2.503663 -6.499427 2.036854 0
M  V30 2 C 1.956393 -5.347077 1.418607 0
M  V30 3 O 0.776334 -5.497342 0.989867 0
M  V30 4 C 2.698568 -4.106556 1.294933 0
M  V30 5 C 3.980221 -4.003439 1.781177 0
M  V30 6 C 4.631977 -2.794318 1.631491 0
M  V30 7 C 3.975966 -1.755844 1.008106 0
M  V30 8 C 2.702189 -1.813098 0.509325 0
M  V30 9 C 2.097519 -0.738102 -0.105679 0
M  V30 10 N 2.758182 0.491141 -0.261878 0
M  V30 11 C 2.219670 1.669732 -0.884039 0
M  V30 12 C 1.020063 2.219814 -0.202977 0
M  V30 13 C 1.366656 3.097516 0.832889 0
M  V30 14 C 0.426454 3.742827 1.609663 0
M  V30 15 C -0.919000 3.536539 1.382249 0
M  V30 16 C -1.258467 2.672797 0.362559 0
M  V30 17 N -2.606919 2.339292 -0.015674 0
M  V30 18 C -3.074138 1.213990 0.699754 0
M  V30 19 O -2.295048 0.678717 1.528542 0
M  V30 20 C -4.417319 0.667060 0.503007 0
M  V30 21 C -5.356375 1.166060 -0.373398 0
M  V30 22 N -6.425404 0.343621 -0.205443 0
M  V30 23 N -6.154387 -0.582050 0.702755 0
M  V30 24 C -4.900910 -0.431175 1.187752 0
M  V30 25 N -4.214330 -1.195271 2.163227 0
M  V30 26 C -0.327325 2.024933 -0.417381 0
M  V30 27 N 0.848041 -0.951081 -0.541090 0
M  V30 28 C 0.214769 -2.124510 -0.396120 0
M  V30 29 N 0.818341 -3.183697 0.213002 0
M  V30 30 C 2.090916 -3.035670 0.680107 0
M  V30 31 H 2.471614 -7.070328 2.907224 0
M  V30 32 H 3.212202 -7.075066 1.536054 0
M  V30 33 H 4.392133 -4.880209 2.249719 0
M  V30 34 H 5.640219 -2.726392 2.018532 0
M  V30 35 H 4.565189 -0.863772 0.941805 0
M  V30 36 H 3.711795 0.670664 0.061954 0
M  V30 37 H 1.871171 1.336410 -1.914067 0
M  V30 38 H 2.922529 2.475582 -1.078247 0
M  V30 39 H 2.398901 3.352404 1.121885 0
M  V30 40 H 0.679750 4.420715 2.409895 0
M  V30 41 H -1.740164 3.983862 1.923050 0
M  V30 42 H -3.245672 2.793316 -0.707891 0
M  V30 43 H -5.302007 2.008653 -1.053223 0
M  V30 44 H -6.789460 -1.350652 1.037272 0
M  V30 45 H -4.108860 -1.075137 3.201661 0
M  V30 46 H -3.763891 -1.997054 1.678983 0
M  V30 47 H -0.515797 1.343705 -1.233097 0
M  V30 48 H -0.791927 -2.319299 -0.738970 0
M  V30 END ATOM
M  V30 BEGIN BOND
M  V30 1 1 1 2
M  V30 2 2 2 3
M  V30 3 1 2 4
M  V30 4 2 4 5
M  V30 5 1 5 6
M  V30 6 2 6 7
M  V30 7 1 7 8
M  V30 8 2 8 9
M  V30 9 1 9 10
M  V30 10 1 10 11
M  V30 11 1 11 12
M  V30 12 2 12 13
M  V30 13 1 13 14
M  V30 14 2 14 15
M  V30 15 1 15 16
M  V30 16 1 16 17
M  V30 17 1 17 18
M  V30 18 2 18 19
M  V30 19 1 18 20
M  V30 20 1 20 21
M  V30 21 2 21 22
M  V30 22 1 22 23
M  V30 23 1 23 24
M  V30 24 1 24 25
M  V30 25 2 16 26
M  V30 26 1 9 27
M  V30 27 2 27 28
M  V30 28 1 28 29
M  V30 29 2 29 30
M  V30 30 1 30 4
M  V30 31 1 30 8
M  V30 32 1 26 12
M  V30 33 2 24 20
M  V30 34 1 1 31
M  V30 35 1 1 32
M  V30 36 1 5 33
M  V30 37 1 6 34
M  V30 38 1 7 35
M  V30 39 1 10 36
M  V30 40 1 11 37
M  V30 41 1 11 38
M  V30 42 1 13 39
M  V30 43 1 14 40
M  V30 44 1 15 41
M  V30 45 1 17 42
M  V30 46 1 21 43
M  V30 47 1 23 44
M  V30 48 1 25 45
M  V30 49 1 25 46
M  V30 50 1 26 47
M  V30 51 1 28 48
M  V30 END BOND
M  V30 END CTAB
M  END
>  <Dataset>  (882) 
ChEMBL_Kinases

>  <Ligand_Instance>  (882) 
nan

>  <PDB_ID>  (882) 
nan

>  <Standardized_SMILES>  (882) 
NC(=O)c1cccc2c(NCc3cccc(NC(=O)c4cn[nH]c4N)c3)ncnc12

>  <Name>  (882) 
nan

>  <Pocket>  (882) 
nan

>  <ATP_Site>  (882) 
nan

>  <Peripheral>  (882) 
nan

>  <Num_H_Atoms_ProtBoundConf>  (882) 
nan

>  <Num_Resolved_Atoms>  (882) 
nan

>  <Num_Not_Resolved_Atoms>  (882) 
nan

$$$$
CHEMBL3103860
     RDKit          3D

  0  0  0  0  0  0  0  0  0  0999 V3000
M  V30 BEGIN CTAB
M  V30 COUNTS 52 55 0 0 0
M  V30 BEGIN ATOM
M  V30 1 N -1.631554 3.408994 1.181176 0
M  V30 2 C -0.586388 2.909888 0.358378 0
M  V30 3 C -0.229393 3.596147 -0.807105 0
M  V30 4 C 0.783969 3.170829 -1.664948 0
M  V30 5 C 1.412044 2.008503 -1.268622 0
M  V30 6 C 2.488894 1.487241 -2.108063 0
M  V30 7 C 3.171080 0.331958 -1.787211 0
M  V30 8 C 4.192015 -0.182094 -2.562015 0
M  V30 9 C 4.563429 0.481288 -3.722260 0
M  V30 10 C 3.864468 1.639131 -4.024307 0
M  V30 11 N 2.868929 2.110644 -3.238082 0
M  V30 12 N 1.061304 1.369051 -0.159507 0
M  V30 13 C 0.087107 1.762887 0.680661 0
M  V30 14 C -0.238857 0.999339 1.886023 0
M  V30 15 O -1.151693 1.395964 2.644436 0
M  V30 16 N 0.524574 -0.198059 2.145480 0
M  V30 17 C 0.310225 -1.003903 3.251451 0
M  V30 18 C 1.081438 -0.671390 4.343847 0
M  V30 19 N 0.934253 -1.409300 5.487157 0
M  V30 20 C 0.033771 -2.437449 5.494029 0
M  V30 21 C -0.724511 -2.748634 4.388219 0
M  V30 22 C -0.609388 -2.032944 3.216836 0
M  V30 23 N -1.407188 -2.398270 2.100516 0
M  V30 24 C -2.433401 -3.408693 2.275175 0
M  V30 25 C -3.536491 -3.339387 1.244375 0
M  V30 26 C -2.914299 -3.807167 -0.067215 0
M  V30 27 C -1.559389 -3.146987 -0.247793 0 CFG=2
M  V30 28 N -0.472015 -4.045614 0.032381 0
M  V30 29 C -1.424064 -1.973198 0.744341 0
M  V30 30 H -2.451116 2.859741 0.798194 0
M  V30 31 H -1.391362 4.138015 1.914464 0
M  V30 32 H -0.800119 4.502459 -1.012381 0
M  V30 33 H 1.020970 3.728587 -2.544199 0
M  V30 34 H 2.871458 -0.189473 -0.865759 0
M  V30 35 H 4.685710 -1.098532 -2.246854 0
M  V30 36 H 5.357660 0.081510 -4.325000 0
M  V30 37 H 4.119427 2.191113 -4.920185 0
M  V30 38 H 1.300559 -0.560507 1.547804 0
M  V30 39 H 1.787600 0.118732 4.370344 0
M  V30 40 H -0.015997 -2.964211 6.436064 0
M  V30 41 H -1.375359 -3.587070 4.571762 0
M  V30 42 H -2.893391 -3.325010 3.306310 0
M  V30 43 H -1.958866 -4.409492 2.153710 0
M  V30 44 H -4.264423 -4.121241 1.527535 0
M  V30 45 H -3.953388 -2.337879 1.187005 0
M  V30 46 H -2.776861 -4.900356 0.000105 0
M  V30 47 H -3.602804 -3.586802 -0.908507 0
M  V30 48 H -1.507406 -2.720915 -1.262797 0
M  V30 49 H -0.732196 -5.036690 0.067208 0
M  V30 50 H 0.339351 -3.812797 -0.583139 0
M  V30 51 H -0.535641 -1.431306 0.384130 0
M  V30 52 H -2.318336 -1.303192 0.570521 0
M  V30 END ATOM
M  V30 BEGIN BOND
M  V30 1 1 1 2
M  V30 2 2 2 3
M  V30 3 1 3 4
M  V30 4 2 4 5
M  V30 5 1 5 6
M  V30 6 2 6 7
M  V30 7 1 7 8
M  V30 8 2 8 9
M  V30 9 1 9 10
M  V30 10 2 10 11
M  V30 11 1 5 12
M  V30 12 2 12 13
M  V30 13 1 13 14
M  V30 14 2 14 15
M  V30 15 1 14 16
M  V30 16 1 16 17
M  V30 17 2 17 18
M  V30 18 1 18 19
M  V30 19 2 19 20
M  V30 20 1 20 21
M  V30 21 2 21 22
M  V30 22 1 22 23
M  V30 23 1 23 24
M  V30 24 1 24 25
M  V30 25 1 25 26
M  V30 26 1 26 27
M  V30 27 1 27 28
M  V30 28 1 27 29
M  V30 29 1 13 2
M  V30 30 1 22 17
M  V30 31 1 29 23
M  V30 32 1 11 6
M  V30 33 1 1 30
M  V30 34 1 1 31
M  V30 35 1 3 32
M  V30 36 1 4 33
M  V30 37 1 7 34
M  V30 38 1 8 35
M  V30 39 1 9 36
M  V30 40 1 10 37
M  V30 41 1 16 38
M  V30 42 1 18 39
M  V30 43 1 20 40
M  V30 44 1 21 41
M  V30 45 1 24 42
M  V30 46 1 24 43
M  V30 47 1 25 44
M  V30 48 1 25 45
M  V30 49 1 26 46
M  V30 50 1 26 47
M  V30 51 1 27 48 CFG=3
M  V30 52 1 28 49
M  V30 53 1 28 50
M  V30 54 1 29 51
M  V30 55 1 29 52
M  V30 END BOND
M  V30 END CTAB
M  END
>  <Dataset>  (883) 
ChEMBL_Kinases

>  <Ligand_Instance>  (883) 
nan

>  <PDB_ID>  (883) 
nan

>  <Standardized_SMILES>  (883) 
Nc1ccc(-c2ccccn2)nc1C(=O)Nc1cnccc1N1CCC[C@H](N)C1

>  <Name>  (883) 
nan

>  <Pocket>  (883) 
nan

>  <ATP_Site>  (883) 
nan

>  <Peripheral>  (883) 
nan

>  <Num_H_Atoms_ProtBoundConf>  (883) 
nan

>  <Num_Resolved_Atoms>  (883) 
nan

>  <Num_Not_Resolved_Atoms>  (883) 
nan

$$$$
CHEMBL3103861
     RDKit          3D

  0  0  0  0  0  0  0  0  0  0999 V3000
M  V30 BEGIN CTAB
M  V30 COUNTS 52 55 0 0 0
M  V30 BEGIN ATOM
M  V30 1 N -0.839984 3.022850 2.186377 0
M  V30 2 C 0.122338 2.668660 1.207550 0
M  V30 3 C 0.571286 3.619007 0.285674 0
M  V30 4 C 1.513602 3.234737 -0.657498 0
M  V30 5 C 2.042977 1.964123 -0.747590 0
M  V30 6 C 3.033172 1.593293 -1.752767 0
M  V30 7 C 3.546422 2.420379 -2.698254 0
M  V30 8 C 4.479606 1.931340 -3.587898 0
M  V30 9 C 4.907001 0.622539 -3.543976 0
M  V30 10 N 4.401807 -0.199446 -2.610102 0
M  V30 11 C 3.494737 0.292805 -1.752260 0
M  V30 12 N 1.579199 1.107916 0.152475 0
M  V30 13 C 0.667873 1.407318 1.094782 0
M  V30 14 C 0.205885 0.405525 2.055576 0
M  V30 15 O -0.655577 0.763448 2.917118 0
M  V30 16 N 0.696309 -0.954028 2.048109 0
M  V30 17 C 0.080248 -1.687102 3.078398 0
M  V30 18 C 0.778469 -1.637249 4.266987 0
M  V30 19 N 0.263180 -2.309202 5.332636 0
M  V30 20 C -0.886766 -2.981318 5.179834 0
M  V30 21 C -1.577889 -3.027265 3.992491 0
M  V30 22 C -1.099974 -2.365772 2.887049 0
M  V30 23 N -1.800896 -2.415528 1.655208 0
M  V30 24 C -3.085371 -3.084801 1.671851 0
M  V30 25 C -3.900689 -2.908412 0.433295 0
M  V30 26 C -3.168485 -3.604980 -0.690866 0
M  V30 27 C -1.788298 -3.017600 -0.745557 0 CFG=2
M  V30 28 N -0.746138 -4.023152 -0.697899 0
M  V30 29 C -1.570259 -1.967595 0.329024 0
M  V30 30 H -1.814915 2.635577 2.035962 0
M  V30 31 H -0.511323 3.640761 2.983191 0
M  V30 32 H 0.173995 4.627526 0.330152 0
M  V30 33 H 1.824905 4.009006 -1.344718 0
M  V30 34 H 3.209525 3.440439 -2.727959 0
M  V30 35 H 4.865186 2.612907 -4.323416 0
M  V30 36 H 5.638372 0.237137 -4.240217 0
M  V30 37 H 3.105729 -0.406505 -1.005621 0
M  V30 38 H 1.424364 -1.237887 1.324468 0
M  V30 39 H 1.705581 -1.103419 4.414242 0
M  V30 40 H -1.254424 -3.497872 6.054199 0
M  V30 41 H -2.488021 -3.604903 4.004788 0
M  V30 42 H -2.976004 -4.198186 1.830958 0
M  V30 43 H -3.657813 -2.761403 2.592329 0
M  V30 44 H -4.130578 -1.862603 0.245284 0
M  V30 45 H -4.834747 -3.521332 0.589173 0
M  V30 46 H -3.081728 -4.670090 -0.430616 0
M  V30 47 H -3.734551 -3.454727 -1.628624 0
M  V30 48 H -1.684913 -2.477255 -1.722794 0
M  V30 49 H -0.997854 -4.881736 -0.181501 0
M  V30 50 H 0.140325 -3.629933 -0.329805 0
M  V30 51 H -0.560939 -1.563180 0.119524 0
M  V30 52 H -2.259615 -1.099349 0.104923 0
M  V30 END ATOM
M  V30 BEGIN BOND
M  V30 1 1 1 2
M  V30 2 2 2 3
M  V30 3 1 3 4
M  V30 4 2 4 5
M  V30 5 1 5 6
M  V30 6 2 6 7
M  V30 7 1 7 8
M  V30 8 2 8 9
M  V30 9 1 9 10
M  V30 10 2 10 11
M  V30 11 1 5 12
M  V30 12 2 12 13
M  V30 13 1 13 14
M  V30 14 2 14 15
M  V30 15 1 14 16
M  V30 16 1 16 17
M  V30 17 2 17 18
M  V30 18 1 18 19
M  V30 19 2 19 20
M  V30 20 1 20 21
M  V30 21 2 21 22
M  V30 22 1 22 23
M  V30 23 1 23 24
M  V30 24 1 24 25
M  V30 25 1 25 26
M  V30 26 1 26 27
M  V30 27 1 27 28
M  V30 28 1 27 29
M  V30 29 1 13 2
M  V30 30 1 22 17
M  V30 31 1 29 23
M  V30 32 1 11 6
M  V30 33 1 1 30
M  V30 34 1 1 31
M  V30 35 1 3 32
M  V30 36 1 4 33
M  V30 37 1 7 34
M  V30 38 1 8 35
M  V30 39 1 9 36
M  V30 40 1 11 37
M  V30 41 1 16 38
M  V30 42 1 18 39
M  V30 43 1 20 40
M  V30 44 1 21 41
M  V30 45 1 24 42
M  V30 46 1 24 43
M  V30 47 1 25 44
M  V30 48 1 25 45
M  V30 49 1 26 46
M  V30 50 1 26 47
M  V30 51 1 27 48 CFG=3
M  V30 52 1 28 49
M  V30 53 1 28 50
M  V30 54 1 29 51
M  V30 55 1 29 52
M  V30 END BOND
M  V30 END CTAB
M  END
>  <Dataset>  (884) 
ChEMBL_Kinases

>  <Ligand_Instance>  (884) 
nan

>  <PDB_ID>  (884) 
nan

>  <Standardized_SMILES>  (884) 
Nc1ccc(-c2cccnc2)nc1C(=O)Nc1cnccc1N1CCC[C@H](N)C1

>  <Name>  (884) 
nan

>  <Pocket>  (884) 
nan

>  <ATP_Site>  (884) 
nan

>  <Peripheral>  (884) 
nan

>  <Num_H_Atoms_ProtBoundConf>  (884) 
nan

>  <Num_Resolved_Atoms>  (884) 
nan

>  <Num_Not_Resolved_Atoms>  (884) 
nan

$$$$
CHEMBL3103862
     RDKit          3D

  0  0  0  0  0  0  0  0  0  0999 V3000
M  V30 BEGIN CTAB
M  V30 COUNTS 52 55 0 0 0
M  V30 BEGIN ATOM
M  V30 1 N -0.879504 3.251314 1.940732 0
M  V30 2 C 0.068899 2.840595 0.965059 0
M  V30 3 C 0.489280 3.712494 -0.031185 0
M  V30 4 C 1.414722 3.249085 -0.949322 0
M  V30 5 C 1.932395 1.972654 -0.918517 0
M  V30 6 C 2.908343 1.457488 -1.872557 0
M  V30 7 C 3.325105 0.154173 -1.699891 0
M  V30 8 C 4.248970 -0.463227 -2.533628 0
M  V30 9 N 4.741031 0.270930 -3.546890 0
M  V30 10 C 4.343349 1.540283 -3.725463 0
M  V30 11 C 3.429276 2.187292 -2.919854 0
M  V30 12 N 1.500707 1.171180 0.054294 0
M  V30 13 C 0.592112 1.570030 0.985761 0
M  V30 14 C 0.161354 0.640053 2.026031 0
M  V30 15 O -0.679078 1.019152 2.879429 0
M  V30 16 N 0.713804 -0.694618 2.047278 0
M  V30 17 C 0.213233 -1.484471 3.101312 0
M  V30 18 C 0.967088 -1.394546 4.251915 0
M  V30 19 N 0.562956 -2.115221 5.329277 0
M  V30 20 C -0.553848 -2.888913 5.238286 0
M  V30 21 C -1.284768 -2.957697 4.075883 0
M  V30 22 C -0.919526 -2.248943 2.957666 0
M  V30 23 N -1.684913 -2.347425 1.768692 0
M  V30 24 C -2.925100 -3.092606 1.842189 0
M  V30 25 C -3.836808 -2.915155 0.672981 0
M  V30 26 C -3.146533 -3.551018 -0.521791 0
M  V30 27 C -1.758428 -2.952365 -0.628262 0 CFG=2
M  V30 28 N -0.705967 -3.932332 -0.552741 0
M  V30 29 C -1.546507 -1.887380 0.434195 0
M  V30 30 H -1.875868 3.015196 2.151049 0
M  V30 31 H -0.573904 3.956271 2.648349 0
M  V30 32 H 0.101863 4.723966 -0.083953 0
M  V30 33 H 1.743310 3.925264 -1.725398 0
M  V30 34 H 2.955979 -0.479510 -0.895016 0
M  V30 35 H 4.556726 -1.495704 -2.368808 0
M  V30 36 H 4.761851 2.112534 -4.559130 0
M  V30 37 H 3.104209 3.209192 -3.057217 0
M  V30 38 H 1.433217 -1.032623 1.339164 0
M  V30 39 H 1.856753 -0.790059 4.354582 0
M  V30 40 H -0.823719 -3.437903 6.128468 0
M  V30 41 H -2.139854 -3.607437 4.141328 0
M  V30 42 H -2.685999 -4.181977 1.895810 0
M  V30 43 H -3.459970 -2.882631 2.810220 0
M  V30 44 H -4.126944 -1.891601 0.433947 0
M  V30 45 H -4.733018 -3.547546 0.872183 0
M  V30 46 H -3.093646 -4.653037 -0.392602 0
M  V30 47 H -3.768879 -3.348535 -1.413379 0
M  V30 48 H -1.690176 -2.451282 -1.613036 0
M  V30 49 H -1.040917 -4.914921 -0.549176 0
M  V30 50 H 0.022005 -3.749905 -1.297200 0
M  V30 51 H -0.567859 -1.438454 0.189340 0
M  V30 52 H -2.282461 -1.046647 0.303284 0
M  V30 END ATOM
M  V30 BEGIN BOND
M  V30 1 1 1 2
M  V30 2 2 2 3
M  V30 3 1 3 4
M  V30 4 2 4 5
M  V30 5 1 5 6
M  V30 6 2 6 7
M  V30 7 1 7 8
M  V30 8 2 8 9
M  V30 9 1 9 10
M  V30 10 2 10 11
M  V30 11 1 5 12
M  V30 12 2 12 13
M  V30 13 1 13 14
M  V30 14 2 14 15
M  V30 15 1 14 16
M  V30 16 1 16 17
M  V30 17 2 17 18
M  V30 18 1 18 19
M  V30 19 2 19 20
M  V30 20 1 20 21
M  V30 21 2 21 22
M  V30 22 1 22 23
M  V30 23 1 23 24
M  V30 24 1 24 25
M  V30 25 1 25 26
M  V30 26 1 26 27
M  V30 27 1 27 28
M  V30 28 1 27 29
M  V30 29 1 13 2
M  V30 30 1 22 17
M  V30 31 1 29 23
M  V30 32 1 11 6
M  V30 33 1 1 30
M  V30 34 1 1 31
M  V30 35 1 3 32
M  V30 36 1 4 33
M  V30 37 1 7 34
M  V30 38 1 8 35
M  V30 39 1 10 36
M  V30 40 1 11 37
M  V30 41 1 16 38
M  V30 42 1 18 39
M  V30 43 1 20 40
M  V30 44 1 21 41
M  V30 45 1 24 42
M  V30 46 1 24 43
M  V30 47 1 25 44
M  V30 48 1 25 45
M  V30 49 1 26 46
M  V30 50 1 26 47
M  V30 51 1 27 48 CFG=3
M  V30 52 1 28 49
M  V30 53 1 28 50
M  V30 54 1 29 51
M  V30 55 1 29 52
M  V30 END BOND
M  V30 END CTAB
M  END
>  <Dataset>  (885) 
ChEMBL_Kinases

>  <Ligand_Instance>  (885) 
nan

>  <PDB_ID>  (885) 
nan

>  <Standardized_SMILES>  (885) 
Nc1ccc(-c2ccncc2)nc1C(=O)Nc1cnccc1N1CCC[C@H](N)C1

>  <Name>  (885) 
nan

>  <Pocket>  (885) 
nan

>  <ATP_Site>  (885) 
nan

>  <Peripheral>  (885) 
nan

>  <Num_H_Atoms_ProtBoundConf>  (885) 
nan

>  <Num_Resolved_Atoms>  (885) 
nan

>  <Num_Not_Resolved_Atoms>  (885) 
nan

$$$$
CHEMBL4279747
     RDKit          3D

  0  0  0  0  0  0  0  0  0  0999 V3000
M  V30 BEGIN CTAB
M  V30 COUNTS 52 54 0 0 0
M  V30 BEGIN ATOM
M  V30 1 C 3.071320 -2.422041 6.488592 0
M  V30 2 N 3.033101 -2.867014 5.108066 0
M  V30 3 C 2.462657 -2.029334 4.136552 0
M  V30 4 O 2.027093 -0.936735 4.587905 0
M  V30 5 N 2.424767 -2.463141 2.782314 0
M  V30 6 C 1.862698 -1.663623 1.756835 0
M  V30 7 S 2.904802 -0.524414 0.892494 0
M  V30 8 C 1.551030 0.101345 -0.207448 0
M  V30 9 C 1.677367 1.080113 -1.199356 0
M  V30 10 C 3.003117 1.699312 -1.424992 0
M  V30 11 C 3.085082 2.900670 -0.489156 0
M  V30 12 C 4.157973 0.760098 -1.271320 0
M  V30 13 C 0.530076 1.384512 -1.892894 0
M  V30 14 C -0.613133 0.700695 -1.542288 0
M  V30 15 N -1.780101 1.038171 -2.273275 0
M  V30 16 S -3.379695 1.363910 -1.724425 0
M  V30 17 O -4.290463 1.707310 -2.851617 0
M  V30 18 O -3.379205 2.535168 -0.750591 0
M  V30 19 C -3.991021 -0.060389 -0.934200 0
M  V30 20 C -4.447135 -0.308437 0.358459 0
M  V30 21 C -4.793936 -1.643240 0.328854 0
M  V30 22 N -4.566256 -2.165874 -0.887477 0
M  V30 23 C -4.831145 -3.553901 -1.236080 0
M  V30 24 N -4.083740 -1.209994 -1.642414 0
M  V30 25 C -0.674122 -0.252656 -0.555819 0
M  V30 26 C 0.428692 -0.612012 0.181404 0
M  V30 27 C 0.695921 -1.487612 1.192339 0
M  V30 28 C -0.436213 -2.281461 1.652769 0
M  V30 29 N -1.559716 -2.981199 2.019025 0
M  V30 30 O -0.179516 -3.122544 2.597291 0
M  V30 31 H 3.028807 -1.313002 6.522450 0
M  V30 32 H 2.207344 -2.779214 7.070621 0
M  V30 33 H 4.050932 -2.685575 6.938444 0
M  V30 34 H 3.427341 -3.809384 4.827192 0
M  V30 35 H 2.813670 -3.390867 2.504028 0
M  V30 36 H 2.962185 2.101211 -2.479211 0
M  V30 37 H 2.276132 2.875313 0.289494 0
M  V30 38 H 2.935481 3.833535 -1.047383 0
M  V30 39 H 4.032221 2.901779 0.100862 0
M  V30 40 H 3.912827 -0.306927 -1.433228 0
M  V30 41 H 4.933180 1.045336 -2.042055 0
M  V30 42 H 4.680355 0.862368 -0.288248 0
M  V30 43 H 0.637914 2.134480 -2.649341 0
M  V30 44 H -1.637502 1.094109 -3.328375 0
M  V30 45 H -4.458451 0.481716 1.091991 0
M  V30 46 H -5.190533 -2.124985 1.217866 0
M  V30 47 H -5.599209 -3.961781 -0.557919 0
M  V30 48 H -3.870830 -4.091528 -1.011433 0
M  V30 49 H -5.033964 -3.714275 -2.298397 0
M  V30 50 H -1.638569 -0.710260 -0.385470 0
M  V30 51 H -2.518829 -2.531304 1.880025 0
M  V30 52 H -2.496461 -2.492973 1.862231 0
M  V30 END ATOM
M  V30 BEGIN BOND
M  V30 1 1 1 2
M  V30 2 1 2 3
M  V30 3 2 3 4
M  V30 4 1 3 5
M  V30 5 1 5 6
M  V30 6 1 6 7
M  V30 7 1 7 8
M  V30 8 2 8 9
M  V30 9 1 9 10
M  V30 10 1 10 11
M  V30 11 1 10 12
M  V30 12 1 9 13
M  V30 13 2 13 14
M  V30 14 1 14 15
M  V30 15 1 15 16
M  V30 16 2 16 17
M  V30 17 2 16 18
M  V30 18 1 16 19
M  V30 19 1 19 20
M  V30 20 2 20 21
M  V30 21 1 21 22
M  V30 22 1 22 23
M  V30 23 1 22 24
M  V30 24 1 14 25
M  V30 25 2 25 26
M  V30 26 1 26 27
M  V30 27 1 27 28
M  V30 28 1 28 29
M  V30 29 2 28 30
M  V30 30 2 27 6
M  V30 31 1 26 8
M  V30 32 2 24 19
M  V30 33 1 1 31
M  V30 34 1 1 32
M  V30 35 1 1 33
M  V30 36 1 2 34
M  V30 37 1 5 35
M  V30 38 1 10 36
M  V30 39 1 11 37
M  V30 40 1 11 38
M  V30 41 1 11 39
M  V30 42 1 12 40
M  V30 43 1 12 41
M  V30 44 1 12 42
M  V30 45 1 13 43
M  V30 46 1 15 44
M  V30 47 1 20 45
M  V30 48 1 21 46
M  V30 49 1 23 47
M  V30 50 1 23 48
M  V30 51 1 23 49
M  V30 52 1 25 50
M  V30 53 1 29 51
M  V30 54 1 29 52
M  V30 END BOND
M  V30 END CTAB
M  END
>  <Dataset>  (886) 
ChEMBL_Kinases

>  <Ligand_Instance>  (886) 
nan

>  <PDB_ID>  (886) 
nan

>  <Standardized_SMILES>  (886) 
CNC(=O)Nc1sc2c(C(C)C)cc(NS(=O)(=O)c3ccn(C)n3)cc2c1C(N)=O

>  <Name>  (886) 
nan

>  <Pocket>  (886) 
nan

>  <ATP_Site>  (886) 
nan

>  <Peripheral>  (886) 
nan

>  <Num_H_Atoms_ProtBoundConf>  (886) 
nan

>  <Num_Resolved_Atoms>  (886) 
nan

>  <Num_Not_Resolved_Atoms>  (886) 
nan

$$$$
CHEMBL3680547
     RDKit          3D

  0  0  0  0  0  0  0  0  0  0999 V3000
M  V30 BEGIN CTAB
M  V30 COUNTS 49 52 0 0 0
M  V30 BEGIN ATOM
M  V30 1 C -1.553937 1.271044 1.386749 0
M  V30 2 C -0.564389 0.073319 1.374845 0
M  V30 3 N 0.687365 0.328670 0.882025 0
M  V30 4 C 2.010852 0.570669 0.367443 0
M  V30 5 N 2.997678 -0.337503 0.236964 0
M  V30 6 C 4.178947 0.020161 -0.253938 0
M  V30 7 N 4.428414 1.271866 -0.630124 0
M  V30 8 C 3.508079 2.240047 -0.536512 0
M  V30 9 C 3.906441 3.485730 -0.962587 0
M  V30 10 C 5.247101 3.727204 -1.481966 0
M  V30 11 N 5.586837 5.045103 -1.905668 0
M  V30 12 O 6.068156 2.776631 -1.544769 0
M  V30 13 C 2.974997 4.491814 -0.873803 0
M  V30 14 C 1.716881 4.227526 -0.377964 0
M  V30 15 C 1.439164 2.949888 0.013862 0
M  V30 16 C 2.285300 1.864204 -0.027108 0
M  V30 17 C -1.422394 -0.997016 0.818472 0
M  V30 18 C -1.456065 -1.026839 -0.577175 0
M  V30 19 C -2.235670 -1.996598 -1.185697 0
M  V30 20 C -2.961183 -2.910349 -0.446940 0
M  V30 21 C -2.916731 -2.866980 0.933077 0
M  V30 22 N -3.633206 -3.769297 1.786183 0
M  V30 23 C -2.957287 -4.956947 2.150243 0
M  V30 24 O -1.797708 -5.087850 1.681639 0
M  V30 25 C -3.625666 -5.961964 3.040134 0
M  V30 26 C -3.221950 -7.383149 2.940551 0
M  V30 27 C -2.693225 -6.535103 4.081891 0
M  V30 28 F -1.337974 -6.289429 4.009549 0
M  V30 29 F -3.170696 -6.730581 5.351247 0
M  V30 30 C -2.146597 -1.909359 1.562364 0
M  V30 31 H -2.455209 0.882788 1.892050 0
M  V30 32 H -1.841820 1.561096 0.364511 0
M  V30 33 H -1.170521 2.094647 2.018634 0
M  V30 34 H -0.548954 -0.150866 2.497213 0
M  V30 35 H 0.815903 -0.723043 1.061569 0
M  V30 36 H 4.965258 -0.729895 -0.351671 0
M  V30 37 H 4.909510 5.564679 -2.506033 0
M  V30 38 H 6.468751 5.490139 -1.638735 0
M  V30 39 H 3.221643 5.490613 -1.190478 0
M  V30 40 H 0.988478 5.016770 -0.308989 0
M  V30 41 H 0.447924 2.792042 0.393317 0
M  V30 42 H -0.897389 -0.323072 -1.212602 0
M  V30 43 H -2.261707 -2.019998 -2.276553 0
M  V30 44 H -3.575762 -3.674313 -0.920263 0
M  V30 45 H -4.614378 -3.565877 2.129023 0
M  V30 46 H -4.634288 -5.717890 3.375052 0
M  V30 47 H -2.525705 -7.760863 2.178494 0
M  V30 48 H -3.992018 -8.123624 3.280689 0
M  V30 49 H -2.048351 -1.795695 2.647383 0
M  V30 END ATOM
M  V30 BEGIN BOND
M  V30 1 1 1 2
M  V30 2 1 2 3
M  V30 3 1 3 4
M  V30 4 2 4 5
M  V30 5 1 5 6
M  V30 6 2 6 7
M  V30 7 1 7 8
M  V30 8 2 8 9
M  V30 9 1 9 10
M  V30 10 1 10 11
M  V30 11 2 10 12
M  V30 12 1 9 13
M  V30 13 2 13 14
M  V30 14 1 14 15
M  V30 15 2 15 16
M  V30 16 1 2 17
M  V30 17 2 17 18
M  V30 18 1 18 19
M  V30 19 2 19 20
M  V30 20 1 20 21
M  V30 21 1 21 22
M  V30 22 1 22 23
M  V30 23 2 23 24
M  V30 24 1 23 25
M  V30 25 1 25 26
M  V30 26 1 26 27
M  V30 27 1 27 28
M  V30 28 1 27 29
M  V30 29 2 21 30
M  V30 30 1 16 4
M  V30 31 1 30 17
M  V30 32 1 16 8
M  V30 33 1 27 25
M  V30 34 1 1 31
M  V30 35 1 1 32
M  V30 36 1 1 33
M  V30 37 1 2 34
M  V30 38 1 3 35
M  V30 39 1 6 36
M  V30 40 1 11 37
M  V30 41 1 11 38
M  V30 42 1 13 39
M  V30 43 1 14 40
M  V30 44 1 15 41
M  V30 45 1 18 42
M  V30 46 1 19 43
M  V30 47 1 20 44
M  V30 48 1 22 45
M  V30 49 1 25 46
M  V30 50 1 26 47
M  V30 51 1 26 48
M  V30 52 1 30 49
M  V30 END BOND
M  V30 END CTAB
M  END
>  <Dataset>  (887) 
ChEMBL_Kinases

>  <Ligand_Instance>  (887) 
nan

>  <PDB_ID>  (887) 
nan

>  <Standardized_SMILES>  (887) 
CC(Nc1ncnc2c(C(N)=O)cccc12)c1cccc(NC(=O)C2CC2(F)F)c1

>  <Name>  (887) 
nan

>  <Pocket>  (887) 
nan

>  <ATP_Site>  (887) 
nan

>  <Peripheral>  (887) 
nan

>  <Num_H_Atoms_ProtBoundConf>  (887) 
nan

>  <Num_Resolved_Atoms>  (887) 
nan

>  <Num_Not_Resolved_Atoms>  (887) 
nan

$$$$
CHEMBL3680544
     RDKit          3D

  0  0  0  0  0  0  0  0  0  0999 V3000
M  V30 BEGIN CTAB
M  V30 COUNTS 52 55 0 0 0
M  V30 BEGIN ATOM
M  V30 1 C 8.224646 -3.163397 0.819344 0
M  V30 2 C 7.923809 -3.013539 2.307388 0
M  V30 3 O 6.587366 -2.487790 2.387206 0
M  V30 4 C 6.256117 -1.290917 1.828696 0
M  V30 5 O 7.119016 -0.637393 1.239942 0
M  V30 6 C 4.867753 -0.783963 1.930761 0
M  V30 7 C 3.598189 -1.012624 2.410953 0
M  V30 8 N 2.667990 -0.103343 2.175290 0
M  V30 9 C 2.827550 0.909777 1.578122 0
M  V30 10 N 2.031111 2.075947 1.156764 0
M  V30 11 C 0.664474 2.161891 1.429104 0
M  V30 12 C -0.064028 3.306408 1.090177 0
M  V30 13 C -1.411144 3.476774 1.309754 0
M  V30 14 C -2.095077 2.442470 1.908362 0
M  V30 15 C -1.464710 1.275671 2.277792 0
M  V30 16 C -2.207636 0.137364 2.906974 0
M  V30 17 N -2.568354 -0.852322 1.912252 0
M  V30 18 C -3.362284 -0.656192 0.753064 0
M  V30 19 N -3.880515 0.532382 0.446220 0
M  V30 20 C -4.622415 0.789456 -0.616742 0
M  V30 21 N -4.875937 -0.225619 -1.456776 0
M  V30 22 C -4.397364 -1.453490 -1.229519 0
M  V30 23 C -4.674958 -2.473193 -2.109991 0
M  V30 24 C -5.475474 -2.215725 -3.277896 0
M  V30 25 N -6.145814 -1.146816 -3.906483 0
M  V30 26 O -5.863097 -2.966934 -4.203916 0
M  V30 27 C -4.228344 -3.762537 -1.959816 0
M  V30 28 C -3.449281 -3.969414 -0.815516 0
M  V30 29 C -3.172947 -2.945861 0.064224 0
M  V30 30 C -3.635674 -1.669054 -0.116628 0
M  V30 31 C -0.113453 1.189735 2.021160 0
M  V30 32 S 4.575520 0.891482 1.098593 0
M  V30 33 H 8.673241 -2.205835 0.485893 0
M  V30 34 H 7.284722 -3.273275 0.253711 0
M  V30 35 H 8.943899 -3.982032 0.629068 0
M  V30 36 H 8.666915 -2.322214 2.740857 0
M  V30 37 H 7.974318 -3.986089 2.824981 0
M  V30 38 H 3.589240 -1.957766 2.928772 0
M  V30 39 H 2.468274 2.874102 0.640097 0
M  V30 40 H 0.480814 4.124918 0.615432 0
M  V30 41 H -1.879362 4.417623 1.003068 0
M  V30 42 H -3.147709 2.614472 2.074699 0
M  V30 43 H -1.605818 -0.285322 3.727125 0
M  V30 44 H -3.158938 0.535003 3.375375 0
M  V30 45 H -2.166997 -1.777366 2.139467 0
M  V30 46 H -4.975287 1.812900 -0.733660 0
M  V30 47 H -5.619711 -0.246662 -3.876806 0
M  V30 48 H -6.063178 -0.126590 -4.136568 0
M  V30 49 H -4.458098 -4.531950 -2.655596 0
M  V30 50 H -3.063323 -4.982286 -0.642083 0
M  V30 51 H -2.564209 -3.223266 0.909236 0
M  V30 52 H 0.350513 0.265856 2.321758 0
M  V30 END ATOM
M  V30 BEGIN BOND
M  V30 1 1 1 2
M  V30 2 1 2 3
M  V30 3 1 3 4
M  V30 4 2 4 5
M  V30 5 1 4 6
M  V30 6 2 6 7
M  V30 7 1 7 8
M  V30 8 2 8 9
M  V30 9 1 9 10
M  V30 10 1 10 11
M  V30 11 2 11 12
M  V30 12 1 12 13
M  V30 13 2 13 14
M  V30 14 1 14 15
M  V30 15 1 15 16
M  V30 16 1 16 17
M  V30 17 1 17 18
M  V30 18 2 18 19
M  V30 19 1 19 20
M  V30 20 2 20 21
M  V30 21 1 21 22
M  V30 22 2 22 23
M  V30 23 1 23 24
M  V30 24 1 24 25
M  V30 25 2 24 26
M  V30 26 1 23 27
M  V30 27 2 27 28
M  V30 28 1 28 29
M  V30 29 2 29 30
M  V30 30 2 15 31
M  V30 31 1 9 32
M  V30 32 1 32 6
M  V30 33 1 31 11
M  V30 34 1 30 18
M  V30 35 1 30 22
M  V30 36 1 1 33
M  V30 37 1 1 34
M  V30 38 1 1 35
M  V30 39 1 2 36
M  V30 40 1 2 37
M  V30 41 1 7 38
M  V30 42 1 10 39
M  V30 43 1 12 40
M  V30 44 1 13 41
M  V30 45 1 14 42
M  V30 46 1 16 43
M  V30 47 1 16 44
M  V30 48 1 17 45
M  V30 49 1 20 46
M  V30 50 1 25 47
M  V30 51 1 25 48
M  V30 52 1 27 49
M  V30 53 1 28 50
M  V30 54 1 29 51
M  V30 55 1 31 52
M  V30 END BOND
M  V30 END CTAB
M  END
>  <Dataset>  (888) 
ChEMBL_Kinases

>  <Ligand_Instance>  (888) 
nan

>  <PDB_ID>  (888) 
nan

>  <Standardized_SMILES>  (888) 
CCOC(=O)c1cnc(Nc2cccc(CNc3ncnc4c(C(N)=O)cccc34)c2)s1

>  <Name>  (888) 
nan

>  <Pocket>  (888) 
nan

>  <ATP_Site>  (888) 
nan

>  <Peripheral>  (888) 
nan

>  <Num_H_Atoms_ProtBoundConf>  (888) 
nan

>  <Num_Resolved_Atoms>  (888) 
nan

>  <Num_Not_Resolved_Atoms>  (888) 
nan

$$$$
CHEMBL4280074
     RDKit          3D

  0  0  0  0  0  0  0  0  0  0999 V3000
M  V30 BEGIN CTAB
M  V30 COUNTS 40 43 0 0 0
M  V30 BEGIN ATOM
M  V30 1 N -1.882756 -6.294306 2.455959 0
M  V30 2 C -1.700494 -4.906696 2.217442 0
M  V30 3 N -0.591385 -4.420970 1.597660 0
M  V30 4 C -0.407596 -3.107088 1.366065 0
M  V30 5 O 0.676839 -2.674570 0.764502 0
M  V30 6 C 0.885952 -1.400517 0.524077 0
M  V30 7 C 2.049556 -0.973798 -0.117498 0
M  V30 8 C 2.238916 0.391496 -0.357325 0
M  V30 9 C 1.296047 1.315279 0.029873 0
M  V30 10 C 1.702452 2.694185 -0.322737 0
M  V30 11 C 1.761916 2.869534 -1.818777 0
M  V30 12 C 2.754302 3.965202 -2.019006 0
M  V30 13 C 3.586976 4.064065 -0.775856 0
M  V30 14 C 2.975418 3.142967 0.256934 0
M  V30 15 C 0.146770 0.886224 0.664342 0
M  V30 16 C -0.048910 -0.457889 0.905197 0
M  V30 17 C -1.218985 -0.821324 1.543476 0
M  V30 18 O -2.077796 0.028471 1.895275 0
M  V30 19 C -1.373777 -2.179074 1.764779 0
M  V30 20 C -2.508371 -2.648605 2.395941 0
M  V30 21 C -2.688576 -4.003859 2.630022 0
M  V30 22 C -3.912612 -4.438752 3.303457 0
M  V30 23 O -4.796635 -3.656174 3.675209 0
M  V30 24 O -4.075226 -5.817972 3.531035 0
M  V30 25 H -2.019528 -6.902471 3.279429 0
M  V30 26 H -1.894174 -6.946709 1.629446 0
M  V30 27 H 2.740804 -1.757566 -0.390230 0
M  V30 28 H 3.168389 0.580385 -0.853923 0
M  V30 29 H 0.873739 3.350877 0.034077 0
M  V30 30 H 2.042515 1.906886 -2.332889 0
M  V30 31 H 0.750018 3.171408 -2.217830 0
M  V30 32 H 3.354651 3.699516 -2.935181 0
M  V30 33 H 2.283515 4.953613 -2.291754 0
M  V30 34 H 3.722768 5.107318 -0.407639 0
M  V30 35 H 4.626892 3.740570 -1.073893 0
M  V30 36 H 3.720432 2.348404 0.451563 0
M  V30 37 H 2.770459 3.734307 1.191494 0
M  V30 38 H -0.529794 1.696470 0.926776 0
M  V30 39 H -3.246526 -1.907900 2.697239 0
M  V30 40 H -4.952707 -6.179381 3.889097 0
M  V30 END ATOM
M  V30 BEGIN BOND
M  V30 1 1 1 2
M  V30 2 2 2 3
M  V30 3 1 3 4
M  V30 4 1 4 5
M  V30 5 1 5 6
M  V30 6 2 6 7
M  V30 7 1 7 8
M  V30 8 2 8 9
M  V30 9 1 9 10
M  V30 10 1 10 11
M  V30 11 1 11 12
M  V30 12 1 12 13
M  V30 13 1 13 14
M  V30 14 1 9 15
M  V30 15 2 15 16
M  V30 16 1 16 17
M  V30 17 2 17 18
M  V30 18 1 17 19
M  V30 19 1 19 20
M  V30 20 2 20 21
M  V30 21 1 21 22
M  V30 22 2 22 23
M  V30 23 1 22 24
M  V30 24 1 21 2
M  V30 25 2 19 4
M  V30 26 1 16 6
M  V30 27 1 14 10
M  V30 28 1 1 25
M  V30 29 1 1 26
M  V30 30 1 7 27
M  V30 31 1 8 28
M  V30 32 1 10 29
M  V30 33 1 11 30
M  V30 34 1 11 31
M  V30 35 1 12 32
M  V30 36 1 12 33
M  V30 37 1 13 34
M  V30 38 1 13 35
M  V30 39 1 14 36
M  V30 40 1 14 37
M  V30 41 1 15 38
M  V30 42 1 20 39
M  V30 43 1 24 40
M  V30 END BOND
M  V30 END CTAB
M  END
>  <Dataset>  (889) 
ChEMBL_Kinases

>  <Ligand_Instance>  (889) 
nan

>  <PDB_ID>  (889) 
nan

>  <Standardized_SMILES>  (889) 
Nc1nc2oc3ccc(C4CCCC4)cc3c(=O)c2cc1C(=O)O

>  <Name>  (889) 
nan

>  <Pocket>  (889) 
nan

>  <ATP_Site>  (889) 
nan

>  <Peripheral>  (889) 
nan

>  <Num_H_Atoms_ProtBoundConf>  (889) 
nan

>  <Num_Resolved_Atoms>  (889) 
nan

>  <Num_Not_Resolved_Atoms>  (889) 
nan

$$$$
CHEMBL3701740
     RDKit          3D

  0  0  0  0  0  0  0  0  0  0999 V3000
M  V30 BEGIN CTAB
M  V30 COUNTS 69 75 0 0 0
M  V30 BEGIN ATOM
M  V30 1 C 4.928885 -2.254335 7.252871 0
M  V30 2 O 4.684541 -0.968878 6.767860 0
M  V30 3 C 3.868432 -0.654646 5.714964 0
M  V30 4 C 3.173720 -1.632243 4.996108 0
M  V30 5 C 2.373296 -1.233705 3.950659 0
M  V30 6 O 1.653035 -2.140891 3.190322 0
M  V30 7 C 1.705737 -3.531801 3.453841 0
M  V30 8 C 2.253659 0.102035 3.612631 0
M  V30 9 C 2.922519 1.094357 4.297483 0
M  V30 10 C 3.725160 0.668049 5.349642 0
M  V30 11 O 2.792985 2.417829 3.949018 0
M  V30 12 C 1.993351 2.865608 2.896853 0
M  V30 13 N 1.299563 1.805393 2.193885 0
M  V30 14 C 1.399272 0.502234 2.501478 0
M  V30 15 N 0.617125 -0.145996 1.629385 0
M  V30 16 C 0.020461 0.732759 0.769647 0
M  V30 17 C -0.872680 0.194123 -0.250606 0
M  V30 18 C -0.191938 -0.593050 -1.187751 0
M  V30 19 C -0.834065 -1.209491 -2.243672 0
M  V30 20 C -2.192008 -1.057533 -2.398886 0
M  V30 21 C -3.053134 -1.624711 -3.443350 0
M  V30 22 N -3.962407 -0.596772 -3.944344 0
M  V30 23 C -2.450922 -2.474787 -4.495804 0
M  V30 24 C -3.278300 -3.645113 -4.033664 0
M  V30 25 O -4.259090 -4.066134 -4.930354 0
M  V30 26 C -2.489580 -4.846637 -3.585339 0
M  V30 27 C -1.536071 -4.818752 -2.484515 0
M  V30 28 C -2.861839 -5.540851 -2.325562 0
M  V30 29 C -3.889677 -2.813662 -2.959916 0
M  V30 30 C -2.865832 -0.281645 -1.475749 0
M  V30 31 C -2.234077 0.337929 -0.418177 0
M  V30 32 C 0.471793 1.979755 1.149103 0
M  V30 33 C 0.023971 3.165393 0.428609 0
M  V30 34 C -1.229794 3.726765 0.313902 0
M  V30 35 C -1.388931 4.868160 -0.442526 0
M  V30 36 C -0.331208 5.469093 -1.090638 0
M  V30 37 C 0.939591 4.915495 -0.984879 0
M  V30 38 C 1.088714 3.775753 -0.227472 0
M  V30 39 H 4.183165 -2.605115 8.007516 0
M  V30 40 H 5.929903 -2.330989 7.713998 0
M  V30 41 H 4.908450 -3.022867 6.445620 0
M  V30 42 H 3.275030 -2.671208 5.269245 0
M  V30 43 H 1.081110 -3.779980 4.356572 0
M  V30 44 H 2.728837 -3.871239 3.715260 0
M  V30 45 H 1.386369 -4.130917 2.578319 0
M  V30 46 H 4.259144 1.429019 5.901043 0
M  V30 47 H 1.272242 3.598667 3.364973 0
M  V30 48 H 2.560033 3.447552 2.143777 0
M  V30 49 H 0.880772 -0.786210 -1.170056 0
M  V30 50 H -0.348152 -1.811895 -2.970059 0
M  V30 51 H -4.811941 -0.549411 -3.308662 0
M  V30 52 H -3.485547 0.314509 -4.041378 0
M  V30 53 H -2.818238 -2.154748 -5.515436 0
M  V30 54 H -1.371433 -2.628303 -4.529790 0
M  V30 55 H -4.834865 -4.716354 -4.418294 0
M  V30 56 H -2.225938 -5.515681 -4.437208 0
M  V30 57 H -0.665694 -5.505118 -2.502042 0
M  V30 58 H -1.413051 -4.006814 -1.751594 0
M  V30 59 H -3.650707 -5.095948 -1.683650 0
M  V30 60 H -2.859050 -6.659256 -2.296618 0
M  V30 61 H -3.625750 -3.055851 -1.924507 0
M  V30 62 H -4.982807 -2.674605 -3.024657 0
M  V30 63 H -3.939106 -0.079531 -1.481459 0
M  V30 64 H -2.677843 0.952820 0.341213 0
M  V30 65 H -1.974591 3.171286 0.864827 0
M  V30 66 H -2.430220 5.224647 -0.462051 0
M  V30 67 H -0.618814 6.348563 -1.637381 0
M  V30 68 H 1.726597 5.431506 -1.515145 0
M  V30 69 H 2.136676 3.438596 -0.223109 0
M  V30 END ATOM
M  V30 BEGIN BOND
M  V30 1 1 1 2
M  V30 2 1 2 3
M  V30 3 2 3 4
M  V30 4 1 4 5
M  V30 5 1 5 6
M  V30 6 1 6 7
M  V30 7 2 5 8
M  V30 8 1 8 9
M  V30 9 2 9 10
M  V30 10 1 9 11
M  V30 11 1 11 12
M  V30 12 1 12 13
M  V30 13 1 13 14
M  V30 14 2 14 15
M  V30 15 1 15 16
M  V30 16 1 16 17
M  V30 17 2 17 18
M  V30 18 1 18 19
M  V30 19 2 19 20
M  V30 20 1 20 21
M  V30 21 1 21 22
M  V30 22 1 21 23
M  V30 23 1 23 24
M  V30 24 1 24 25
M  V30 25 1 24 26
M  V30 26 1 26 27
M  V30 27 1 27 28
M  V30 28 1 24 29
M  V30 29 1 20 30
M  V30 30 2 30 31
M  V30 31 2 16 32
M  V30 32 1 32 33
M  V30 33 2 33 34
M  V30 34 1 34 35
M  V30 35 2 35 36
M  V30 36 1 36 37
M  V30 37 2 37 38
M  V30 38 1 10 3
M  V30 39 1 32 13
M  V30 40 1 38 33
M  V30 41 1 14 8
M  V30 42 1 31 17
M  V30 43 1 29 21
M  V30 44 1 28 26
M  V30 45 1 1 39
M  V30 46 1 1 40
M  V30 47 1 1 41
M  V30 48 1 4 42
M  V30 49 1 7 43
M  V30 50 1 7 44
M  V30 51 1 7 45
M  V30 52 1 10 46
M  V30 53 1 12 47
M  V30 54 1 12 48
M  V30 55 1 18 49
M  V30 56 1 19 50
M  V30 57 1 22 51
M  V30 58 1 22 52
M  V30 59 1 23 53
M  V30 60 1 23 54
M  V30 61 1 25 55
M  V30 62 1 26 56
M  V30 63 1 27 57
M  V30 64 1 27 58
M  V30 65 1 28 59
M  V30 66 1 28 60
M  V30 67 1 29 61
M  V30 68 1 29 62
M  V30 69 1 30 63
M  V30 70 1 31 64
M  V30 71 1 34 65
M  V30 72 1 35 66
M  V30 73 1 36 67
M  V30 74 1 37 68
M  V30 75 1 38 69
M  V30 END BOND
M  V30 END CTAB
M  END
>  <Dataset>  (890) 
ChEMBL_Kinases

>  <Ligand_Instance>  (890) 
nan

>  <PDB_ID>  (890) 
nan

>  <Standardized_SMILES>  (890) 
COc1cc(OC)c2c(c1)OCn1c-2nc(-c2ccc(C3(N)CC(O)(C4CC4)C3)cc2)c1-c1ccccc1

>  <Name>  (890) 
nan

>  <Pocket>  (890) 
nan

>  <ATP_Site>  (890) 
nan

>  <Peripheral>  (890) 
nan

>  <Num_H_Atoms_ProtBoundConf>  (890) 
nan

>  <Num_Resolved_Atoms>  (890) 
nan

>  <Num_Not_Resolved_Atoms>  (890) 
nan

$$$$
CHEMBL3680542
     RDKit          3D

  0  0  0  0  0  0  0  0  0  0999 V3000
M  V30 BEGIN CTAB
M  V30 COUNTS 46 49 0 0 0
M  V30 BEGIN ATOM
M  V30 1 N 1.311181 -7.059902 1.346785 0
M  V30 2 C 2.569573 -6.656781 0.777418 0
M  V30 3 O 3.583148 -7.374575 0.543500 0
M  V30 4 C 2.713452 -5.248440 0.418390 0
M  V30 5 C 3.879754 -4.766973 -0.133964 0
M  V30 6 C 4.001818 -3.435710 -0.466913 0
M  V30 7 C 2.941505 -2.600676 -0.238265 0
M  V30 8 C 1.726153 -2.987540 0.312351 0
M  V30 9 C 0.638535 -2.146880 0.548679 0
M  V30 10 N 0.939269 -0.818968 0.149101 0
M  V30 11 C 1.234424 0.485538 -0.243328 0
M  V30 12 C 1.135795 1.566943 0.769511 0
M  V30 13 C 2.142721 2.021266 1.609014 0
M  V30 14 C 1.871397 3.044032 2.502403 0
M  V30 15 C 0.635229 3.646451 2.606143 0
M  V30 16 C -0.359699 3.200331 1.779417 0
M  V30 17 N -1.656542 3.776872 1.836070 0
M  V30 18 C -2.757518 3.418028 1.032240 0
M  V30 19 C -3.687042 2.445480 1.317220 0
M  V30 20 C -4.755544 2.113218 0.517476 0
M  V30 21 C -4.871605 2.836542 -0.659376 0
M  V30 22 C -3.965850 3.808201 -0.971514 0
M  V30 23 N -2.942660 4.075829 -0.132904 0
M  V30 24 C -0.107898 2.182406 0.882936 0
M  V30 25 N -0.469561 -2.677133 1.087706 0
M  V30 26 C -0.485206 -3.982020 1.374308 0
M  V30 27 N 0.563158 -4.767086 1.141133 0
M  V30 28 C 1.708316 -4.331001 0.607959 0
M  V30 29 H 1.228407 -7.705773 2.179022 0
M  V30 30 H 1.236712 -7.711144 2.185580 0
M  V30 31 H 4.727767 -5.409309 -0.322423 0
M  V30 32 H 4.914245 -3.076338 -0.895508 0
M  V30 33 H 3.085279 -1.571623 -0.515584 0
M  V30 34 H -0.013857 -0.410632 0.436982 0
M  V30 35 H 0.631577 0.817316 -1.134419 0
M  V30 36 H 2.295665 0.599735 -0.647851 0
M  V30 37 H 3.093928 1.520980 1.492479 0
M  V30 38 H 2.712642 3.350858 3.132408 0
M  V30 39 H 0.464545 4.449966 3.325122 0
M  V30 40 H -1.893430 4.537166 2.504321 0
M  V30 41 H -3.568268 1.901861 2.238017 0
M  V30 42 H -5.456392 1.339055 0.790661 0
M  V30 43 H -5.679282 2.647365 -1.352278 0
M  V30 44 H -4.080285 4.361408 -1.902582 0
M  V30 45 H -0.930656 1.871892 0.255023 0
M  V30 46 H -1.416608 -4.326705 1.805434 0
M  V30 END ATOM
M  V30 BEGIN BOND
M  V30 1 1 1 2
M  V30 2 2 2 3
M  V30 3 1 2 4
M  V30 4 2 4 5
M  V30 5 1 5 6
M  V30 6 2 6 7
M  V30 7 1 7 8
M  V30 8 2 8 9
M  V30 9 1 9 10
M  V30 10 1 10 11
M  V30 11 1 11 12
M  V30 12 2 12 13
M  V30 13 1 13 14
M  V30 14 2 14 15
M  V30 15 1 15 16
M  V30 16 1 16 17
M  V30 17 1 17 18
M  V30 18 2 18 19
M  V30 19 1 19 20
M  V30 20 2 20 21
M  V30 21 1 21 22
M  V30 22 2 22 23
M  V30 23 2 16 24
M  V30 24 1 9 25
M  V30 25 2 25 26
M  V30 26 1 26 27
M  V30 27 2 27 28
M  V30 28 1 28 4
M  V30 29 1 28 8
M  V30 30 1 24 12
M  V30 31 1 23 18
M  V30 32 1 1 29
M  V30 33 1 1 30
M  V30 34 1 5 31
M  V30 35 1 6 32
M  V30 36 1 7 33
M  V30 37 1 10 34
M  V30 38 1 11 35
M  V30 39 1 11 36
M  V30 40 1 13 37
M  V30 41 1 14 38
M  V30 42 1 15 39
M  V30 43 1 17 40
M  V30 44 1 19 41
M  V30 45 1 20 42
M  V30 46 1 21 43
M  V30 47 1 22 44
M  V30 48 1 24 45
M  V30 49 1 26 46
M  V30 END BOND
M  V30 END CTAB
M  END
>  <Dataset>  (891) 
ChEMBL_Kinases

>  <Ligand_Instance>  (891) 
nan

>  <PDB_ID>  (891) 
nan

>  <Standardized_SMILES>  (891) 
NC(=O)c1cccc2c(NCc3cccc(Nc4ccccn4)c3)ncnc12

>  <Name>  (891) 
nan

>  <Pocket>  (891) 
nan

>  <ATP_Site>  (891) 
nan

>  <Peripheral>  (891) 
nan

>  <Num_H_Atoms_ProtBoundConf>  (891) 
nan

>  <Num_Resolved_Atoms>  (891) 
nan

>  <Num_Not_Resolved_Atoms>  (891) 
nan

$$$$
CHEMBL4590023
     RDKit          3D

  0  0  0  0  0  0  0  0  0  0999 V3000
M  V30 BEGIN CTAB
M  V30 COUNTS 32 33 0 0 0
M  V30 BEGIN ATOM
M  V30 1 C -2.735261 -2.156559 1.630236 0
M  V30 2 C -2.061873 -1.744752 2.917160 0
M  V30 3 O -1.515602 -0.455250 2.797635 0
M  V30 4 C -0.559573 -0.079793 1.895099 0
M  V30 5 C 0.025489 -0.908230 0.953765 0
M  V30 6 C 0.990132 -0.503733 0.052574 0
M  V30 7 C 1.579146 -1.416540 -0.924952 0
M  V30 8 C 0.859023 -2.461512 -1.471525 0
M  V30 9 C 1.330520 -3.367415 -2.396071 0
M  V30 10 C 2.661325 -3.130102 -2.752018 0
M  V30 11 N 3.403355 -2.124859 -2.246486 0
M  V30 12 C 2.903059 -1.255891 -1.339816 0
M  V30 13 C 1.379517 0.825698 0.117534 0
M  V30 14 C 0.848943 1.724146 1.025096 0
M  V30 15 C -0.107174 1.223306 1.881701 0
M  V30 16 C -0.664500 2.169866 2.835773 0
M  V30 17 N -0.280992 3.535959 2.918996 0
M  V30 18 O -1.495926 2.186054 3.747139 0
M  V30 19 H -2.329877 -3.120040 1.232884 0
M  V30 20 H -3.835247 -2.279213 1.821053 0
M  V30 21 H -2.630827 -1.335452 0.910244 0
M  V30 22 H -2.803026 -1.771714 3.738442 0
M  V30 23 H -1.290013 -2.515642 3.131348 0
M  V30 24 H -0.277736 -1.927207 0.910254 0
M  V30 25 H -0.169508 -2.568864 -1.134459 0
M  V30 26 H 0.742784 -4.166172 -2.798859 0
M  V30 27 H 3.128201 -3.798332 -3.483116 0
M  V30 28 H 3.459948 -0.440578 -0.911205 0
M  V30 29 H 2.136210 1.172281 -0.578549 0
M  V30 30 H 1.165968 2.762647 1.061175 0
M  V30 31 H -0.268456 4.384820 2.280461 0
M  V30 32 H 0.109857 4.198775 3.585859 0
M  V30 END ATOM
M  V30 BEGIN BOND
M  V30 1 1 1 2
M  V30 2 1 2 3
M  V30 3 1 3 4
M  V30 4 2 4 5
M  V30 5 1 5 6
M  V30 6 1 6 7
M  V30 7 2 7 8
M  V30 8 1 8 9
M  V30 9 2 9 10
M  V30 10 1 10 11
M  V30 11 2 11 12
M  V30 12 2 6 13
M  V30 13 1 13 14
M  V30 14 2 14 15
M  V30 15 1 15 16
M  V30 16 1 16 17
M  V30 17 2 16 18
M  V30 18 1 15 4
M  V30 19 1 12 7
M  V30 20 1 1 19
M  V30 21 1 1 20
M  V30 22 1 1 21
M  V30 23 1 2 22
M  V30 24 1 2 23
M  V30 25 1 5 24
M  V30 26 1 8 25
M  V30 27 1 9 26
M  V30 28 1 10 27
M  V30 29 1 12 28
M  V30 30 1 13 29
M  V30 31 1 14 30
M  V30 32 1 17 31
M  V30 33 1 17 32
M  V30 END BOND
M  V30 END CTAB
M  END
>  <Dataset>  (892) 
ChEMBL_Kinases

>  <Ligand_Instance>  (892) 
nan

>  <PDB_ID>  (892) 
nan

>  <Standardized_SMILES>  (892) 
CCOc1cc(-c2cccnc2)ccc1C(N)=O

>  <Name>  (892) 
nan

>  <Pocket>  (892) 
nan

>  <ATP_Site>  (892) 
nan

>  <Peripheral>  (892) 
nan

>  <Num_H_Atoms_ProtBoundConf>  (892) 
nan

>  <Num_Resolved_Atoms>  (892) 
nan

>  <Num_Not_Resolved_Atoms>  (892) 
nan

$$$$
CHEMBL4590232
     RDKit          3D

  0  0  0  0  0  0  0  0  0  0999 V3000
M  V30 BEGIN CTAB
M  V30 COUNTS 55 57 0 0 0
M  V30 BEGIN ATOM
M  V30 1 C 2.209846 -2.255343 5.006976 0
M  V30 2 C 3.481156 -1.458114 5.222434 0
M  V30 3 C 4.192778 -1.308463 3.907307 0
M  V30 4 O 3.486227 -0.666782 2.909258 0
M  V30 5 C 2.973902 0.578269 2.816922 0
M  V30 6 C 2.957480 1.670163 3.649035 0
M  V30 7 C 2.362228 2.874940 3.353793 0
M  V30 8 C 1.750460 2.972651 2.144147 0
M  V30 9 C 1.702427 1.931887 1.216027 0
M  V30 10 C 1.007026 2.122490 -0.094779 0 CFG=1
M  V30 11 C 1.937175 2.613280 -1.137741 0
M  V30 12 C 1.199777 2.791397 -2.438923 0
M  V30 13 O 0.637398 1.624816 -2.904258 0
M  V30 14 N 0.190479 0.990945 -0.400853 0
M  V30 15 C -1.240160 0.878922 -0.476074 0
M  V30 16 O -1.853098 1.947887 -0.233396 0
M  V30 17 C -1.896107 -0.361301 -0.803100 0
M  V30 18 C -1.306158 -1.578592 -1.084100 0
M  V30 19 C -2.032960 -2.709149 -1.386291 0
M  V30 20 C -3.408819 -2.618901 -1.408612 0
M  V30 21 C -4.116199 -3.856972 -1.735946 0
M  V30 22 C -3.587383 -5.089016 -1.370688 0
M  V30 23 C -4.203779 -6.295449 -1.648760 0
M  V30 24 N -5.384103 -6.298015 -2.310141 0
M  V30 25 C -5.935049 -5.129937 -2.684213 0
M  V30 26 F -7.108133 -5.177916 -3.339500 0
M  V30 27 C -5.319244 -3.928537 -2.406287 0
M  V30 28 C -4.063961 -1.432442 -1.137470 0
M  V30 29 C -3.286474 -0.351499 -0.845812 0
M  V30 30 C 2.328127 0.734369 1.581634 0
M  V30 31 H 2.468811 -3.339948 4.890806 0
M  V30 32 H 1.754597 -1.962450 4.018083 0
M  V30 33 H 1.498775 -2.196194 5.841528 0
M  V30 34 H 4.095945 -2.097259 5.926489 0
M  V30 35 H 3.317844 -0.516571 5.762114 0
M  V30 36 H 4.521492 -2.346328 3.602921 0
M  V30 37 H 5.101749 -0.691125 4.116801 0
M  V30 38 H 3.466481 1.501377 4.570866 0
M  V30 39 H 2.417139 3.658884 4.092084 0
M  V30 40 H 1.276465 3.916725 1.896825 0
M  V30 41 H 0.273020 2.967593 0.078674 0
M  V30 42 H 2.225521 3.659444 -0.814821 0
M  V30 43 H 2.895899 2.107484 -1.237571 0
M  V30 44 H 0.420837 3.573015 -2.335463 0
M  V30 45 H 1.885859 3.165611 -3.251567 0
M  V30 46 H 0.483012 1.687324 -3.882936 0
M  V30 47 H 0.751910 0.130576 -0.595017 0
M  V30 48 H -0.229501 -1.594119 -1.053464 0
M  V30 49 H -1.451757 -3.604267 -1.588324 0
M  V30 50 H -2.629871 -5.130349 -0.831632 0
M  V30 51 H -3.750853 -7.241244 -1.341740 0
M  V30 52 H -5.771957 -2.978352 -2.713555 0
M  V30 53 H -5.143674 -1.394242 -1.162779 0
M  V30 54 H -3.840847 0.572193 -0.636240 0
M  V30 55 H 2.233328 -0.004299 0.794574 0
M  V30 END ATOM
M  V30 BEGIN BOND
M  V30 1 1 1 2
M  V30 2 1 2 3
M  V30 3 1 3 4
M  V30 4 1 4 5
M  V30 5 2 5 6
M  V30 6 1 6 7
M  V30 7 2 7 8
M  V30 8 1 8 9
M  V30 9 1 9 10
M  V30 10 1 10 11
M  V30 11 1 11 12
M  V30 12 1 12 13
M  V30 13 1 10 14
M  V30 14 1 14 15
M  V30 15 2 15 16
M  V30 16 1 15 17
M  V30 17 2 17 18
M  V30 18 1 18 19
M  V30 19 2 19 20
M  V30 20 1 20 21
M  V30 21 2 21 22
M  V30 22 1 22 23
M  V30 23 2 23 24
M  V30 24 1 24 25
M  V30 25 1 25 26
M  V30 26 2 25 27
M  V30 27 1 20 28
M  V30 28 2 28 29
M  V30 29 2 9 30
M  V30 30 1 30 5
M  V30 31 1 29 17
M  V30 32 1 27 21
M  V30 33 1 1 31
M  V30 34 1 1 32
M  V30 35 1 1 33
M  V30 36 1 2 34
M  V30 37 1 2 35
M  V30 38 1 3 36
M  V30 39 1 3 37
M  V30 40 1 6 38
M  V30 41 1 7 39
M  V30 42 1 8 40
M  V30 43 1 10 41 CFG=1
M  V30 44 1 11 42
M  V30 45 1 11 43
M  V30 46 1 12 44
M  V30 47 1 12 45
M  V30 48 1 13 46
M  V30 49 1 14 47
M  V30 50 1 18 48
M  V30 51 1 19 49
M  V30 52 1 22 50
M  V30 53 1 23 51
M  V30 54 1 27 52
M  V30 55 1 28 53
M  V30 56 1 29 54
M  V30 57 1 30 55
M  V30 END BOND
M  V30 END CTAB
M  END
>  <Dataset>  (893) 
ChEMBL_Kinases

>  <Ligand_Instance>  (893) 
nan

>  <PDB_ID>  (893) 
nan

>  <Standardized_SMILES>  (893) 
CCCOc1cccc([C@@H](CCO)NC(=O)c2ccc(-c3ccnc(F)c3)cc2)c1

>  <Name>  (893) 
nan

>  <Pocket>  (893) 
nan

>  <ATP_Site>  (893) 
nan

>  <Peripheral>  (893) 
nan

>  <Num_H_Atoms_ProtBoundConf>  (893) 
nan

>  <Num_Resolved_Atoms>  (893) 
nan

>  <Num_Not_Resolved_Atoms>  (893) 
nan

$$$$
CHEMBL3701739
     RDKit          3D

  0  0  0  0  0  0  0  0  0  0999 V3000
M  V30 BEGIN CTAB
M  V30 COUNTS 64 69 0 0 0
M  V30 BEGIN ATOM
M  V30 1 C 5.389458 -3.672135 2.257952 0
M  V30 2 C 4.782782 -3.132843 0.978907 0
M  V30 3 O 4.222271 -1.852812 1.143326 0
M  V30 4 C 4.878435 -0.720038 1.538165 0
M  V30 5 C 6.212636 -0.569229 1.860862 0
M  V30 6 C 6.745415 0.643297 2.246768 0
M  V30 7 C 5.959991 1.774257 2.329004 0
M  V30 8 C 4.646858 1.627338 2.011826 0
M  V30 9 C 4.097834 0.427945 1.625228 0
M  V30 10 C 2.673523 0.407668 1.311835 0
M  V30 11 N 1.871300 -0.613056 0.910720 0
M  V30 12 C 0.621785 -0.143384 0.744774 0
M  V30 13 C -0.547861 -0.914579 0.320897 0
M  V30 14 C -1.625606 -1.069470 1.167996 0
M  V30 15 C -2.737184 -1.808921 0.748437 0
M  V30 16 C -2.760935 -2.390900 -0.523696 0
M  V30 17 C -4.024518 -3.114954 -0.742007 0
M  V30 18 N -4.372345 -3.968284 0.392220 0
M  V30 19 C -4.244257 -3.791568 -2.040253 0
M  V30 20 C -5.446017 -2.912924 -2.316849 0
M  V30 21 C -5.354463 -2.111049 -3.601108 0
M  V30 22 O -6.686867 -3.537668 -2.223746 0
M  V30 23 C -5.144762 -2.151293 -1.069094 0
M  V30 24 C -1.671309 -2.220447 -1.349324 0
M  V30 25 C -0.579503 -1.491708 -0.931349 0
M  V30 26 C 0.669526 1.212896 1.057311 0
M  V30 27 C -0.481803 2.136688 1.013837 0
M  V30 28 C -0.895479 2.789494 2.169924 0
M  V30 29 C -1.970266 3.631047 2.054034 0
M  V30 30 C -2.626161 3.832282 0.843515 0
M  V30 31 C -2.209678 3.182048 -0.294241 0
M  V30 32 C -1.120820 2.321779 -0.205757 0
M  V30 33 N 1.918001 1.503872 1.392517 0
M  V30 34 C 2.467870 2.769251 1.793579 0
M  V30 35 O 3.829420 2.748806 2.084960 0
M  V30 36 H 4.891102 -4.633636 2.549622 0
M  V30 37 H 6.457242 -3.924902 2.021867 0
M  V30 38 H 5.403342 -2.930250 3.084168 0
M  V30 39 H 5.495883 -3.177819 0.123966 0
M  V30 40 H 3.935507 -3.806847 0.680796 0
M  V30 41 H 6.802947 -1.472302 1.787850 0
M  V30 42 H 7.819842 0.661311 2.483396 0
M  V30 43 H 6.436755 2.679269 2.634478 0
M  V30 44 H -1.577402 -0.606209 2.148961 0
M  V30 45 H -3.529471 -1.860178 1.511475 0
M  V30 46 H -4.884975 -3.382975 1.086023 0
M  V30 47 H -3.524177 -4.396952 0.818950 0
M  V30 48 H -4.602960 -4.838982 -1.929434 0
M  V30 49 H -3.511501 -3.663969 -2.854452 0
M  V30 50 H -5.011864 -2.756921 -4.434977 0
M  V30 51 H -4.612410 -1.292394 -3.505814 0
M  V30 52 H -6.352753 -1.732690 -3.863329 0
M  V30 53 H -7.262837 -3.010552 -1.595977 0
M  V30 54 H -4.800545 -1.095420 -1.241342 0
M  V30 55 H -5.969126 -2.131993 -0.327522 0
M  V30 56 H -1.798930 -2.711299 -2.303951 0
M  V30 57 H 0.240084 -1.405001 -1.646910 0
M  V30 58 H -0.389235 2.637050 3.113905 0
M  V30 59 H -2.287465 4.139875 2.970669 0
M  V30 60 H -3.461984 4.497180 0.792631 0
M  V30 61 H -2.676191 3.295724 -1.259659 0
M  V30 62 H -0.750182 1.781418 -1.079146 0
M  V30 63 H 2.320617 3.538949 0.985517 0
M  V30 64 H 1.923879 3.193731 2.680780 0
M  V30 END ATOM
M  V30 BEGIN BOND
M  V30 1 1 1 2
M  V30 2 1 2 3
M  V30 3 1 3 4
M  V30 4 2 4 5
M  V30 5 1 5 6
M  V30 6 2 6 7
M  V30 7 1 7 8
M  V30 8 2 8 9
M  V30 9 1 9 10
M  V30 10 2 10 11
M  V30 11 1 11 12
M  V30 12 1 12 13
M  V30 13 2 13 14
M  V30 14 1 14 15
M  V30 15 2 15 16
M  V30 16 1 16 17
M  V30 17 1 17 18
M  V30 18 1 17 19
M  V30 19 1 19 20
M  V30 20 1 20 21
M  V30 21 1 20 22
M  V30 22 1 20 23
M  V30 23 1 16 24
M  V30 24 2 24 25
M  V30 25 2 12 26
M  V30 26 1 26 27
M  V30 27 2 27 28
M  V30 28 1 28 29
M  V30 29 2 29 30
M  V30 30 1 30 31
M  V30 31 2 31 32
M  V30 32 1 26 33
M  V30 33 1 33 34
M  V30 34 1 34 35
M  V30 35 1 9 4
M  V30 36 1 33 10
M  V30 37 1 35 8
M  V30 38 1 25 13
M  V30 39 1 32 27
M  V30 40 1 23 17
M  V30 41 1 1 36
M  V30 42 1 1 37
M  V30 43 1 1 38
M  V30 44 1 2 39
M  V30 45 1 2 40
M  V30 46 1 5 41
M  V30 47 1 6 42
M  V30 48 1 7 43
M  V30 49 1 14 44
M  V30 50 1 15 45
M  V30 51 1 18 46
M  V30 52 1 18 47
M  V30 53 1 19 48
M  V30 54 1 19 49
M  V30 55 1 21 50
M  V30 56 1 21 51
M  V30 57 1 21 52
M  V30 58 1 22 53
M  V30 59 1 23 54
M  V30 60 1 23 55
M  V30 61 1 24 56
M  V30 62 1 25 57
M  V30 63 1 28 58
M  V30 64 1 29 59
M  V30 65 1 30 60
M  V30 66 1 31 61
M  V30 67 1 32 62
M  V30 68 1 34 63
M  V30 69 1 34 64
M  V30 END BOND
M  V30 END CTAB
M  END
>  <Dataset>  (894) 
ChEMBL_Kinases

>  <Ligand_Instance>  (894) 
nan

>  <PDB_ID>  (894) 
nan

>  <Standardized_SMILES>  (894) 
CCOc1cccc2c1-c1nc(-c3ccc(C4(N)CC(C)(O)C4)cc3)c(-c3ccccc3)n1CO2

>  <Name>  (894) 
nan

>  <Pocket>  (894) 
nan

>  <ATP_Site>  (894) 
nan

>  <Peripheral>  (894) 
nan

>  <Num_H_Atoms_ProtBoundConf>  (894) 
nan

>  <Num_Resolved_Atoms>  (894) 
nan

>  <Num_Not_Resolved_Atoms>  (894) 
nan

$$$$
CHEMBL3680537
     RDKit          3D

  0  0  0  0  0  0  0  0  0  0999 V3000
M  V30 BEGIN CTAB
M  V30 COUNTS 35 37 0 0 0
M  V30 BEGIN ATOM
M  V30 1 N 2.437252 0.144815 5.007434 0
M  V30 2 C 3.005394 -0.903844 4.238389 0
M  V30 3 O 3.611111 -1.145086 5.304106 0
M  V30 4 C 2.801391 -1.296461 2.859884 0
M  V30 5 C 3.509154 -2.373693 2.400023 0
M  V30 6 C 3.261842 -2.693912 1.059330 0
M  V30 7 C 2.372109 -1.960117 0.299714 0
M  V30 8 C 1.714167 -0.904844 0.843447 0
M  V30 9 C 0.819323 -0.177895 0.056631 0
M  V30 10 N 0.540200 -0.453612 -1.284785 0
M  V30 11 C -0.379164 0.264603 -2.149096 0
M  V30 12 C -1.774584 0.233558 -1.708729 0
M  V30 13 C -2.481347 1.130554 -0.935277 0
M  V30 14 C -3.797367 0.951172 -0.595920 0
M  V30 15 F -4.419033 1.878995 0.168194 0
M  V30 16 C -4.440946 -0.173118 -1.047772 0
M  V30 17 F -5.758454 -0.408191 -0.741838 0
M  V30 18 C -3.818903 -1.125987 -1.826544 0
M  V30 19 F -4.479674 -2.216676 -2.253069 0
M  V30 20 C -2.483006 -0.886706 -2.136292 0
M  V30 21 N 0.215828 0.837261 0.658236 0
M  V30 22 C 0.402371 1.201500 1.934763 0
M  V30 23 N 1.259249 0.521703 2.722768 0
M  V30 24 C 1.901870 -0.515582 2.176388 0
M  V30 25 H 1.613258 0.757127 5.120881 0
M  V30 26 H 1.583056 0.727061 5.068968 0
M  V30 27 H 4.176396 -2.892449 3.039541 0
M  V30 28 H 3.793134 -3.537052 0.638586 0
M  V30 29 H 2.253336 -2.282202 -0.706245 0
M  V30 30 H 1.000190 -1.239301 -1.781073 0
M  V30 31 H -0.326250 -0.067187 -3.188569 0
M  V30 32 H -0.078294 1.350416 -2.142625 0
M  V30 33 H -1.933400 1.987110 -0.620017 0
M  V30 34 H -2.039533 -1.671149 -2.754320 0
M  V30 35 H -0.166516 2.067735 2.304181 0
M  V30 END ATOM
M  V30 BEGIN BOND
M  V30 1 1 1 2
M  V30 2 2 2 3
M  V30 3 1 2 4
M  V30 4 2 4 5
M  V30 5 1 5 6
M  V30 6 2 6 7
M  V30 7 1 7 8
M  V30 8 2 8 9
M  V30 9 1 9 10
M  V30 10 1 10 11
M  V30 11 1 11 12
M  V30 12 2 12 13
M  V30 13 1 13 14
M  V30 14 1 14 15
M  V30 15 2 14 16
M  V30 16 1 16 17
M  V30 17 1 16 18
M  V30 18 1 18 19
M  V30 19 2 18 20
M  V30 20 1 9 21
M  V30 21 2 21 22
M  V30 22 1 22 23
M  V30 23 2 23 24
M  V30 24 1 24 4
M  V30 25 1 24 8
M  V30 26 1 20 12
M  V30 27 1 1 25
M  V30 28 1 1 26
M  V30 29 1 5 27
M  V30 30 1 6 28
M  V30 31 1 7 29
M  V30 32 1 10 30
M  V30 33 1 11 31
M  V30 34 1 11 32
M  V30 35 1 13 33
M  V30 36 1 20 34
M  V30 37 1 22 35
M  V30 END BOND
M  V30 END CTAB
M  END
>  <Dataset>  (895) 
ChEMBL_Kinases

>  <Ligand_Instance>  (895) 
nan

>  <PDB_ID>  (895) 
nan

>  <Standardized_SMILES>  (895) 
NC(=O)c1cccc2c(NCc3cc(F)c(F)c(F)c3)ncnc12

>  <Name>  (895) 
nan

>  <Pocket>  (895) 
nan

>  <ATP_Site>  (895) 
nan

>  <Peripheral>  (895) 
nan

>  <Num_H_Atoms_ProtBoundConf>  (895) 
nan

>  <Num_Resolved_Atoms>  (895) 
nan

>  <Num_Not_Resolved_Atoms>  (895) 
nan

$$$$
CHEMBL3680548
     RDKit          3D

  0  0  0  0  0  0  0  0  0  0999 V3000
M  V30 BEGIN CTAB
M  V30 COUNTS 43 46 0 0 0
M  V30 BEGIN ATOM
M  V30 1 N 1.628416 -5.808935 3.317320 0
M  V30 2 C 1.047607 -5.130972 2.221237 0
M  V30 3 O 0.217161 -5.839315 1.610732 0
M  V30 4 C 1.310045 -3.767148 1.766240 0
M  V30 5 C 2.211128 -2.948296 2.446049 0
M  V30 6 C 2.412304 -1.668066 1.960200 0
M  V30 7 C 1.711589 -1.286013 0.841437 0
M  V30 8 C 0.814773 -2.025323 0.123771 0
M  V30 9 C 0.117879 -1.680208 -1.014748 0
M  V30 10 N 0.282487 -0.329073 -1.454426 0
M  V30 11 C 0.435375 0.998507 -1.899807 0
M  V30 12 C 1.084509 1.891489 -0.868787 0
M  V30 13 C 2.382512 2.368544 -0.677117 0
M  V30 14 C 2.593782 3.133238 0.434757 0
M  V30 15 C 1.648986 3.470704 1.380046 0
M  V30 16 C 0.368186 3.030733 1.244229 0
M  V30 17 N -0.704164 3.293182 2.175879 0
M  V30 18 C -1.845056 2.350650 1.963382 0
M  V30 19 N -2.850048 1.966808 1.604196 0
M  V30 20 C -3.430522 0.794739 1.691527 0
M  V30 21 C -2.711358 -0.180233 2.335878 0
M  V30 22 S -1.161616 0.758491 2.783056 0
M  V30 23 C 0.129465 2.242159 0.099570 0
M  V30 24 N -0.687956 -2.621589 -1.547857 0
M  V30 25 C -0.863040 -3.841831 -1.063529 0
M  V30 26 N -0.178845 -4.140397 0.029818 0
M  V30 27 C 0.645804 -3.304787 0.646887 0
M  V30 28 H 2.174554 -6.702894 3.408587 0
M  V30 29 H 1.464913 -5.281402 4.235576 0
M  V30 30 H 2.678417 -3.387734 3.297819 0
M  V30 31 H 3.114366 -1.068372 2.501588 0
M  V30 32 H 1.900525 -0.297303 0.488504 0
M  V30 33 H -0.312915 -0.469122 -2.334087 0
M  V30 34 H -0.511738 1.502218 -2.169844 0
M  V30 35 H 1.078545 1.018702 -2.827836 0
M  V30 36 H 2.976985 2.022390 -1.473690 0
M  V30 37 H 3.632006 3.462182 0.512318 0
M  V30 38 H 1.890697 4.084814 2.235402 0
M  V30 39 H -0.656525 4.032038 2.872925 0
M  V30 40 H -4.441346 0.695520 1.235692 0
M  V30 41 H -3.131443 -1.266765 2.467510 0
M  V30 42 H -0.919000 1.915339 -0.005619 0
M  V30 43 H -1.572479 -4.366048 -1.705992 0
M  V30 END ATOM
M  V30 BEGIN BOND
M  V30 1 1 1 2
M  V30 2 2 2 3
M  V30 3 1 2 4
M  V30 4 2 4 5
M  V30 5 1 5 6
M  V30 6 2 6 7
M  V30 7 1 7 8
M  V30 8 2 8 9
M  V30 9 1 9 10
M  V30 10 1 10 11
M  V30 11 1 11 12
M  V30 12 2 12 13
M  V30 13 1 13 14
M  V30 14 2 14 15
M  V30 15 1 15 16
M  V30 16 1 16 17
M  V30 17 1 17 18
M  V30 18 2 18 19
M  V30 19 1 19 20
M  V30 20 2 20 21
M  V30 21 1 21 22
M  V30 22 2 16 23
M  V30 23 1 9 24
M  V30 24 2 24 25
M  V30 25 1 25 26
M  V30 26 2 26 27
M  V30 27 1 27 4
M  V30 28 1 27 8
M  V30 29 1 23 12
M  V30 30 1 22 18
M  V30 31 1 1 28
M  V30 32 1 1 29
M  V30 33 1 5 30
M  V30 34 1 6 31
M  V30 35 1 7 32
M  V30 36 1 10 33
M  V30 37 1 11 34
M  V30 38 1 11 35
M  V30 39 1 13 36
M  V30 40 1 14 37
M  V30 41 1 15 38
M  V30 42 1 17 39
M  V30 43 1 20 40
M  V30 44 1 21 41
M  V30 45 1 23 42
M  V30 46 1 25 43
M  V30 END BOND
M  V30 END CTAB
M  END
>  <Dataset>  (896) 
ChEMBL_Kinases

>  <Ligand_Instance>  (896) 
nan

>  <PDB_ID>  (896) 
nan

>  <Standardized_SMILES>  (896) 
NC(=O)c1cccc2c(NCc3cccc(Nc4nccs4)c3)ncnc12

>  <Name>  (896) 
nan

>  <Pocket>  (896) 
nan

>  <ATP_Site>  (896) 
nan

>  <Peripheral>  (896) 
nan

>  <Num_H_Atoms_ProtBoundConf>  (896) 
nan

>  <Num_Resolved_Atoms>  (896) 
nan

>  <Num_Not_Resolved_Atoms>  (896) 
nan

$$$$
CHEMBL3099975
     RDKit          3D

  0  0  0  0  0  0  0  0  0  0999 V3000
M  V30 BEGIN CTAB
M  V30 COUNTS 53 57 0 0 0
M  V30 BEGIN ATOM
M  V30 1 O -0.039722 -5.530005 1.503546 0
M  V30 2 C 1.114805 -4.755727 1.321480 0
M  V30 3 O 2.196641 -4.841569 2.083754 0
M  V30 4 N 3.112076 -4.005181 1.685324 0
M  V30 5 C 2.659014 -3.314965 0.614422 0
M  V30 6 C 3.052012 -2.264306 -0.344549 0
M  V30 7 C 4.129253 -2.407502 -1.209740 0
M  V30 8 C 4.470592 -1.418597 -2.097331 0
M  V30 9 N 3.740690 -0.297758 -2.117949 0
M  V30 10 C 2.686490 -0.090067 -1.311001 0
M  V30 11 N 1.870227 1.095622 -1.337162 0
M  V30 12 C 0.859144 1.413606 -0.391757 0
M  V30 13 C 1.140945 1.265408 0.972840 0
M  V30 14 C 0.221387 1.519811 1.978372 0
M  V30 15 C -1.035730 1.940829 1.611235 0
M  V30 16 N -2.016843 2.226316 2.601378 0
M  V30 17 C -1.751111 2.457753 4.011510 0
M  V30 18 C -2.394712 1.306928 4.757277 0
M  V30 19 O -3.775224 1.415202 4.514291 0
M  V30 20 C -4.054145 1.180507 3.171468 0
M  V30 21 C -3.455150 2.310491 2.353949 0
M  V30 22 C -1.366376 2.104633 0.276407 0
M  V30 23 C -0.424593 1.842904 -0.726296 0
M  V30 24 C 2.322311 -1.083989 -0.400757 0
M  V30 25 C 1.361727 -3.777021 0.348574 0
M  V30 26 C 0.311211 -3.481210 -0.641094 0
M  V30 27 C 0.691417 -3.773295 -1.944748 0
M  V30 28 C -0.152566 -3.566726 -3.031223 0
M  V30 29 C -1.419498 -3.050114 -2.803175 0
M  V30 30 F -2.289074 -2.828429 -3.832852 0
M  V30 31 C -1.785077 -2.763030 -1.495178 0
M  V30 32 C -0.949420 -2.966988 -0.412894 0
M  V30 33 H -0.844143 -5.022966 1.888726 0
M  V30 34 H 4.706400 -3.327041 -1.173069 0
M  V30 35 H 5.294339 -1.505656 -2.773831 0
M  V30 36 H 1.949534 1.836007 -2.059660 0
M  V30 37 H 2.110023 0.946519 1.359129 0
M  V30 38 H 0.468324 1.395960 3.020726 0
M  V30 39 H -2.294704 3.368648 4.345855 0
M  V30 40 H -0.675118 2.504565 4.261287 0
M  V30 41 H -2.222635 1.369777 5.849834 0
M  V30 42 H -2.048881 0.364642 4.291966 0
M  V30 43 H -5.146071 1.198472 3.046117 0
M  V30 44 H -3.578305 0.241140 2.805921 0
M  V30 45 H -3.731917 2.264228 1.299858 0
M  V30 46 H -3.872678 3.254362 2.752397 0
M  V30 47 H -2.296929 2.423433 -0.108898 0
M  V30 48 H -0.594624 1.943098 -1.778451 0
M  V30 49 H 1.508891 -1.048571 0.281765 0
M  V30 50 H 1.667637 -4.180981 -2.213737 0
M  V30 51 H 0.093001 -3.776399 -4.055596 0
M  V30 52 H -2.769941 -2.357699 -1.291286 0
M  V30 53 H -1.166841 -2.769049 0.610428 0
M  V30 END ATOM
M  V30 BEGIN BOND
M  V30 1 1 1 2
M  V30 2 1 2 3
M  V30 3 1 3 4
M  V30 4 2 4 5
M  V30 5 1 5 6
M  V30 6 2 6 7
M  V30 7 1 7 8
M  V30 8 2 8 9
M  V30 9 1 9 10
M  V30 10 1 10 11
M  V30 11 1 11 12
M  V30 12 2 12 13
M  V30 13 1 13 14
M  V30 14 2 14 15
M  V30 15 1 15 16
M  V30 16 1 16 17
M  V30 17 1 17 18
M  V30 18 1 18 19
M  V30 19 1 19 20
M  V30 20 1 20 21
M  V30 21 1 15 22
M  V30 22 2 22 23
M  V30 23 2 10 24
M  V30 24 1 5 25
M  V30 25 1 25 26
M  V30 26 2 26 27
M  V30 27 1 27 28
M  V30 28 2 28 29
M  V30 29 1 29 30
M  V30 30 1 29 31
M  V30 31 2 31 32
M  V30 32 2 25 2
M  V30 33 1 32 26
M  V30 34 1 24 6
M  V30 35 1 23 12
M  V30 36 1 21 16
M  V30 37 1 1 33
M  V30 38 1 7 34
M  V30 39 1 8 35
M  V30 40 1 11 36
M  V30 41 1 13 37
M  V30 42 1 14 38
M  V30 43 1 17 39
M  V30 44 1 17 40
M  V30 45 1 18 41
M  V30 46 1 18 42
M  V30 47 1 20 43
M  V30 48 1 20 44
M  V30 49 1 21 45
M  V30 50 1 21 46
M  V30 51 1 22 47
M  V30 52 1 23 48
M  V30 53 1 24 49
M  V30 54 1 27 50
M  V30 55 1 28 51
M  V30 56 1 31 52
M  V30 57 1 32 53
M  V30 END BOND
M  V30 END CTAB
M  END
>  <Dataset>  (897) 
ChEMBL_Kinases

>  <Ligand_Instance>  (897) 
nan

>  <PDB_ID>  (897) 
nan

>  <Standardized_SMILES>  (897) 
Oc1onc(-c2ccnc(Nc3ccc(N4CCOCC4)cc3)c2)c1-c1ccc(F)cc1

>  <Name>  (897) 
nan

>  <Pocket>  (897) 
nan

>  <ATP_Site>  (897) 
nan

>  <Peripheral>  (897) 
nan

>  <Num_H_Atoms_ProtBoundConf>  (897) 
nan

>  <Num_Resolved_Atoms>  (897) 
nan

>  <Num_Not_Resolved_Atoms>  (897) 
nan

$$$$
CHEMBL4281345
     RDKit          3D

  0  0  0  0  0  0  0  0  0  0999 V3000
M  V30 BEGIN CTAB
M  V30 COUNTS 37 40 0 0 0
M  V30 BEGIN ATOM
M  V30 1 C -0.640528 -5.407314 2.504767 0
M  V30 2 N 0.729778 -5.055189 2.183181 0
M  V30 3 C 1.812210 -6.000686 2.387304 0
M  V30 4 C 1.122807 -3.793159 1.656217 0
M  V30 5 C 2.417198 -3.432921 1.342126 0
M  V30 6 C 2.741283 -2.192928 0.832959 0
M  V30 7 C 1.765041 -1.243291 0.612538 0
M  V30 8 O 2.144837 -0.085030 0.126264 0
M  V30 9 C 1.300508 0.890612 -0.122158 0
M  V30 10 N 1.710203 2.070061 -0.620499 0
M  V30 11 C 0.843156 3.087260 -0.881327 0
M  V30 12 N 1.317307 4.321149 -1.408971 0
M  V30 13 C -0.489258 2.838758 -0.603815 0
M  V30 14 C -1.440712 3.912523 -0.874175 0
M  V30 15 N -1.151147 5.117662 -1.365536 0
M  V30 16 N -2.283260 5.807919 -1.467298 0
M  V30 17 N -3.298996 5.046009 -1.041385 0
M  V30 18 N -2.786346 3.865741 -0.670384 0
M  V30 19 C -0.928806 1.629457 -0.090163 0
M  V30 20 C -0.026714 0.611213 0.166205 0
M  V30 21 C -0.468399 -0.592102 0.677920 0
M  V30 22 O -1.669850 -0.824490 0.931269 0
M  V30 23 C 0.463044 -1.581011 0.919249 0
M  V30 24 C 0.166850 -2.823890 1.425638 0
M  V30 25 H -0.576407 -6.229227 3.262189 0
M  V30 26 H -1.158373 -4.518056 2.905629 0
M  V30 27 H -1.099185 -5.799901 1.558999 0
M  V30 28 H 2.162747 -6.462812 1.427897 0
M  V30 29 H 2.656221 -5.569902 2.962062 0
M  V30 30 H 1.417124 -6.837089 2.999847 0
M  V30 31 H 3.193424 -4.165277 1.508871 0
M  V30 32 H 3.779824 -1.961681 0.602595 0
M  V30 33 H 1.145705 4.746110 -2.363073 0
M  V30 34 H 1.926150 4.936082 -0.812755 0
M  V30 35 H -4.326760 5.211550 -0.961108 0
M  V30 36 H -1.986823 1.484140 0.110727 0
M  V30 37 H -0.886208 -2.956713 1.621166 0
M  V30 END ATOM
M  V30 BEGIN BOND
M  V30 1 1 1 2
M  V30 2 1 2 3
M  V30 3 1 2 4
M  V30 4 2 4 5
M  V30 5 1 5 6
M  V30 6 2 6 7
M  V30 7 1 7 8
M  V30 8 1 8 9
M  V30 9 2 9 10
M  V30 10 1 10 11
M  V30 11 1 11 12
M  V30 12 2 11 13
M  V30 13 1 13 14
M  V30 14 1 14 15
M  V30 15 2 15 16
M  V30 16 1 16 17
M  V30 17 1 17 18
M  V30 18 1 13 19
M  V30 19 2 19 20
M  V30 20 1 20 21
M  V30 21 2 21 22
M  V30 22 1 21 23
M  V30 23 2 23 24
M  V30 24 1 24 4
M  V30 25 1 23 7
M  V30 26 1 20 9
M  V30 27 2 18 14
M  V30 28 1 1 25
M  V30 29 1 1 26
M  V30 30 1 1 27
M  V30 31 1 3 28
M  V30 32 1 3 29
M  V30 33 1 3 30
M  V30 34 1 5 31
M  V30 35 1 6 32
M  V30 36 1 12 33
M  V30 37 1 12 34
M  V30 38 1 17 35
M  V30 39 1 19 36
M  V30 40 1 24 37
M  V30 END BOND
M  V30 END CTAB
M  END
>  <Dataset>  (898) 
ChEMBL_Kinases

>  <Ligand_Instance>  (898) 
nan

>  <PDB_ID>  (898) 
nan

>  <Standardized_SMILES>  (898) 
CN(C)c1ccc2oc3nc(N)c(-c4nn[nH]n4)cc3c(=O)c2c1

>  <Name>  (898) 
nan

>  <Pocket>  (898) 
nan

>  <ATP_Site>  (898) 
nan

>  <Peripheral>  (898) 
nan

>  <Num_H_Atoms_ProtBoundConf>  (898) 
nan

>  <Num_Resolved_Atoms>  (898) 
nan

>  <Num_Not_Resolved_Atoms>  (898) 
nan

$$$$
CHEMBL3100085
     RDKit          3D

  0  0  0  0  0  0  0  0  0  0999 V3000
M  V30 BEGIN CTAB
M  V30 COUNTS 48 52 0 0 0
M  V30 BEGIN ATOM
M  V30 1 C 1.823024 -4.863767 6.055104 0
M  V30 2 C 2.650567 -4.451478 4.889955 0
M  V30 3 N 3.856857 -4.901163 4.520192 0
M  V30 4 C 4.238233 -4.251150 3.401467 0
M  V30 5 N 3.278576 -3.396733 3.067392 0
M  V30 6 C 3.017746 -2.421138 2.036528 0
M  V30 7 C 4.081130 -1.566771 1.720860 0
M  V30 8 C 3.841742 -0.618342 0.726382 0
M  V30 9 C 2.623520 -0.524683 0.086347 0
M  V30 10 N 2.424108 0.457028 -0.923197 0
M  V30 11 C 1.198271 0.656408 -1.616573 0
M  V30 12 C 0.295064 1.570238 -1.082136 0
M  V30 13 C -0.953121 1.890799 -1.628501 0
M  V30 14 C -1.806517 2.870331 -0.967014 0
M  V30 15 N -1.612991 4.184631 -0.678819 0
M  V30 16 O -2.662510 4.656824 -0.073710 0
M  V30 17 C -3.587092 3.718619 0.073089 0
M  V30 18 C -3.062920 2.552326 -0.494572 0
M  V30 19 C -3.845909 1.344749 -0.489765 0
M  V30 20 C -5.077894 1.269563 -1.118868 0
M  V30 21 N -5.544286 0.026360 -0.933451 0
M  V30 22 N -4.670156 -0.674923 -0.223987 0
M  V30 23 C -3.595913 0.092547 0.079866 0
M  V30 24 C -2.342592 -0.159734 0.832846 0
M  V30 25 C -1.295092 1.235478 -2.791320 0
M  V30 26 C -0.388526 0.333167 -3.307342 0
M  V30 27 N 0.806374 0.046610 -2.756592 0
M  V30 28 C 1.600757 -1.385161 0.426007 0
M  V30 29 C 1.793102 -2.336994 1.402306 0
M  V30 30 N 2.305219 -3.522409 3.983590 0
M  V30 31 H 2.487144 -4.952278 6.946044 0
M  V30 32 H 1.394206 -5.887118 5.889883 0
M  V30 33 H 1.066316 -4.104648 6.282535 0
M  V30 34 H 5.113234 -4.273443 2.748725 0
M  V30 35 H 5.043986 -1.624715 2.212048 0
M  V30 36 H 4.644184 0.068927 0.448309 0
M  V30 37 H 3.208545 1.089333 -1.198142 0
M  V30 38 H 0.557931 2.086775 -0.171059 0
M  V30 39 H -4.522708 4.009773 0.575508 0
M  V30 40 H -5.661104 1.996530 -1.682472 0
M  V30 41 H -4.670007 -1.665552 0.121519 0
M  V30 42 H -2.445543 -0.985941 1.537798 0
M  V30 43 H -1.588128 -0.465767 0.066266 0
M  V30 44 H -2.026842 0.756471 1.367961 0
M  V30 45 H -2.247532 1.459969 -3.236132 0
M  V30 46 H -0.656574 -0.187276 -4.228249 0
M  V30 47 H 0.658632 -1.286081 -0.094315 0
M  V30 48 H 0.999514 -3.033403 1.692415 0
M  V30 END ATOM
M  V30 BEGIN BOND
M  V30 1 1 1 2
M  V30 2 1 2 3
M  V30 3 2 3 4
M  V30 4 1 4 5
M  V30 5 1 5 6
M  V30 6 2 6 7
M  V30 7 1 7 8
M  V30 8 2 8 9
M  V30 9 1 9 10
M  V30 10 1 10 11
M  V30 11 2 11 12
M  V30 12 1 12 13
M  V30 13 1 13 14
M  V30 14 2 14 15
M  V30 15 1 15 16
M  V30 16 1 16 17
M  V30 17 2 17 18
M  V30 18 1 18 19
M  V30 19 1 19 20
M  V30 20 2 20 21
M  V30 21 1 21 22
M  V30 22 1 22 23
M  V30 23 1 23 24
M  V30 24 2 13 25
M  V30 25 1 25 26
M  V30 26 2 26 27
M  V30 27 1 9 28
M  V30 28 2 28 29
M  V30 29 1 5 30
M  V30 30 2 30 2
M  V30 31 1 29 6
M  V30 32 1 27 11
M  V30 33 1 18 14
M  V30 34 2 23 19
M  V30 35 1 1 31
M  V30 36 1 1 32
M  V30 37 1 1 33
M  V30 38 1 4 34
M  V30 39 1 7 35
M  V30 40 1 8 36
M  V30 41 1 10 37
M  V30 42 1 12 38
M  V30 43 1 17 39
M  V30 44 1 20 40
M  V30 45 1 22 41
M  V30 46 1 24 42
M  V30 47 1 24 43
M  V30 48 1 24 44
M  V30 49 1 25 45
M  V30 50 1 26 46
M  V30 51 1 28 47
M  V30 52 1 29 48
M  V30 END BOND
M  V30 END CTAB
M  END
>  <Dataset>  (899) 
ChEMBL_Kinases

>  <Ligand_Instance>  (899) 
nan

>  <PDB_ID>  (899) 
nan

>  <Standardized_SMILES>  (899) 
Cc1ncn(-c2ccc(Nc3cc(-c4nocc4-c4cn[nH]c4C)ccn3)cc2)n1

>  <Name>  (899) 
nan

>  <Pocket>  (899) 
nan

>  <ATP_Site>  (899) 
nan

>  <Peripheral>  (899) 
nan

>  <Num_H_Atoms_ProtBoundConf>  (899) 
nan

>  <Num_Resolved_Atoms>  (899) 
nan

>  <Num_Not_Resolved_Atoms>  (899) 
nan

$$$$
CHEMBL3680568
     RDKit          3D

  0  0  0  0  0  0  0  0  0  0999 V3000
M  V30 BEGIN CTAB
M  V30 COUNTS 49 51 0 0 0
M  V30 BEGIN ATOM
M  V30 1 C -0.189841 -3.887791 4.420052 0
M  V30 2 C 1.247821 -3.956295 4.803495 0
M  V30 3 O 1.924506 -2.701651 4.650645 0
M  V30 4 C 2.000060 -2.091653 3.431964 0
M  V30 5 O 1.445206 -2.714827 2.520111 0
M  V30 6 N 2.631885 -0.869746 3.160337 0
M  V30 7 C 2.760422 -0.164840 1.938189 0
M  V30 8 C 3.432216 1.029169 1.918936 0
M  V30 9 C 3.593724 1.764383 0.768173 0
M  V30 10 C 3.085948 1.340877 -0.442254 0
M  V30 11 C 2.404282 0.143885 -0.459974 0
M  V30 12 C 1.833144 -0.365315 -1.737423 0 CFG=1
M  V30 13 C 2.791463 -1.402975 -2.262596 0
M  V30 14 N 0.483286 -0.854778 -1.564402 0
M  V30 15 C -0.501523 0.027558 -1.104902 0
M  V30 16 N -0.216310 1.311357 -0.824081 0
M  V30 17 C -1.127768 2.194452 -0.380936 0
M  V30 18 N -2.410719 1.854157 -0.182898 0
M  V30 19 C -2.769629 0.591807 -0.441321 0
M  V30 20 C -4.086070 0.230411 -0.241383 0
M  V30 21 C -5.060049 1.186040 0.235374 0
M  V30 22 N -4.702487 2.528798 0.515645 0
M  V30 23 O -6.265950 0.852524 0.417912 0
M  V30 24 C -4.460999 -1.070531 -0.506555 0
M  V30 25 C -3.540687 -2.003816 -0.965196 0
M  V30 26 C -2.248323 -1.577267 -1.142179 0
M  V30 27 C -1.823264 -0.306432 -0.896416 0
M  V30 28 C 2.268878 -0.554755 0.715160 0
M  V30 29 H -0.621385 -2.867949 4.437204 0
M  V30 30 H -0.770556 -4.460521 5.200682 0
M  V30 31 H -0.395691 -4.420745 3.470380 0
M  V30 32 H 1.454807 -4.372716 5.787702 0
M  V30 33 H 1.766798 -4.630359 4.072009 0
M  V30 34 H 3.055661 -0.459251 4.024185 0
M  V30 35 H 3.856497 1.409961 2.861466 0
M  V30 36 H 4.139725 2.693666 0.857788 0
M  V30 37 H 3.240050 1.955434 -1.317910 0
M  V30 38 H 1.822806 0.453311 -2.470020 0
M  V30 39 H 2.693288 -2.288611 -1.573682 0
M  V30 40 H 2.610790 -1.658288 -3.318198 0
M  V30 41 H 3.811993 -1.021098 -2.130410 0
M  V30 42 H 0.365535 -1.858874 -1.807775 0
M  V30 43 H -0.711887 3.191324 -0.206749 0
M  V30 44 H -4.933151 3.418667 0.035587 0
M  V30 45 H -4.111057 2.474474 1.366959 0
M  V30 46 H -5.493716 -1.366054 -0.352940 0
M  V30 47 H -3.851677 -3.020487 -1.168362 0
M  V30 48 H -1.561009 -2.330036 -1.499696 0
M  V30 49 H 1.725856 -1.482043 0.633900 0
M  V30 END ATOM
M  V30 BEGIN BOND
M  V30 1 1 1 2
M  V30 2 1 2 3
M  V30 3 1 3 4
M  V30 4 2 4 5
M  V30 5 1 4 6
M  V30 6 1 6 7
M  V30 7 2 7 8
M  V30 8 1 8 9
M  V30 9 2 9 10
M  V30 10 1 10 11
M  V30 11 1 11 12
M  V30 12 1 12 13
M  V30 13 1 12 14
M  V30 14 1 14 15
M  V30 15 2 15 16
M  V30 16 1 16 17
M  V30 17 2 17 18
M  V30 18 1 18 19
M  V30 19 2 19 20
M  V30 20 1 20 21
M  V30 21 1 21 22
M  V30 22 2 21 23
M  V30 23 1 20 24
M  V30 24 2 24 25
M  V30 25 1 25 26
M  V30 26 2 26 27
M  V30 27 2 11 28
M  V30 28 1 28 7
M  V30 29 1 27 15
M  V30 30 1 27 19
M  V30 31 1 1 29
M  V30 32 1 1 30
M  V30 33 1 1 31
M  V30 34 1 2 32
M  V30 35 1 2 33
M  V30 36 1 6 34
M  V30 37 1 8 35
M  V30 38 1 9 36
M  V30 39 1 10 37
M  V30 40 1 12 38 CFG=3
M  V30 41 1 13 39
M  V30 42 1 13 40
M  V30 43 1 13 41
M  V30 44 1 14 42
M  V30 45 1 17 43
M  V30 46 1 22 44
M  V30 47 1 22 45
M  V30 48 1 24 46
M  V30 49 1 25 47
M  V30 50 1 26 48
M  V30 51 1 28 49
M  V30 END BOND
M  V30 END CTAB
M  END
>  <Dataset>  (900) 
ChEMBL_Kinases

>  <Ligand_Instance>  (900) 
nan

>  <PDB_ID>  (900) 
nan

>  <Standardized_SMILES>  (900) 
CCOC(=O)Nc1cccc([C@@H](C)Nc2ncnc3c(C(N)=O)cccc23)c1

>  <Name>  (900) 
nan

>  <Pocket>  (900) 
nan

>  <ATP_Site>  (900) 
nan

>  <Peripheral>  (900) 
nan

>  <Num_H_Atoms_ProtBoundConf>  (900) 
nan

>  <Num_Resolved_Atoms>  (900) 
nan

>  <Num_Not_Resolved_Atoms>  (900) 
nan

$$$$
CHEMBL4588948
     RDKit          3D

  0  0  0  0  0  0  0  0  0  0999 V3000
M  V30 BEGIN CTAB
M  V30 COUNTS 46 48 0 0 0
M  V30 BEGIN ATOM
M  V30 1 C -2.239760 -5.563065 -0.220901 0
M  V30 2 C -3.402240 -4.611428 -0.125685 0
M  V30 3 O -4.562667 -5.167142 -0.650194 0
M  V30 4 C -3.088577 -3.272985 -0.776922 0
M  V30 5 C -1.941902 -2.633737 -0.132676 0
M  V30 6 C -0.981977 -2.117793 0.399758 0
M  V30 7 C 0.168332 -1.504401 1.017382 0
M  V30 8 C 1.231297 -2.255934 1.482762 0
M  V30 9 Cl 1.456385 -3.991218 1.455346 0
M  V30 10 C 2.136879 -1.355304 2.002379 0
M  V30 11 C 3.373337 -1.487226 2.603042 0
M  V30 12 Cl 4.104590 -3.049275 2.839687 0
M  V30 13 C 4.035106 -0.348315 3.021186 0
M  V30 14 C 3.515537 0.921244 2.865813 0
M  V30 15 C 4.255510 2.110966 3.326682 0
M  V30 16 N 3.636696 3.375950 3.121889 0
M  V30 17 O 5.398578 1.979595 3.881225 0
M  V30 18 N 2.299867 1.006977 2.271733 0
M  V30 19 C 1.627551 -0.079674 1.852553 0
M  V30 20 N 0.421431 -0.224900 1.244745 0
M  V30 21 C -0.496477 0.802968 0.873160 0 CFG=1
M  V30 22 C 0.019254 2.201269 1.045652 0
M  V30 23 C 1.000905 2.451064 -0.084641 0
M  V30 24 C 0.111077 2.779225 -1.282583 0
M  V30 25 N -1.082245 1.990411 -1.198322 0
M  V30 26 C -0.924286 0.700180 -0.577393 0
M  V30 27 H -1.945445 -5.716791 -1.293493 0
M  V30 28 H -1.392429 -5.168423 0.366799 0
M  V30 29 H -2.552609 -6.510835 0.234779 0
M  V30 30 H -3.604344 -4.439390 0.951973 0
M  V30 31 H -4.527942 -5.186601 -1.654297 0
M  V30 32 H -3.967995 -2.615757 -0.625967 0
M  V30 33 H -2.924085 -3.421996 -1.869433 0
M  V30 34 H 5.012651 -0.386543 3.501358 0
M  V30 35 H 3.059501 4.120575 3.572398 0
M  V30 36 H 3.934110 3.505578 2.133213 0
M  V30 37 H -1.381732 0.719024 1.560285 0
M  V30 38 H -0.876038 2.872170 0.925546 0
M  V30 39 H 0.413703 2.440901 2.044961 0
M  V30 40 H 1.509615 1.496278 -0.373056 0
M  V30 41 H 1.713546 3.245253 0.125960 0
M  V30 42 H -0.196676 3.833818 -1.105521 0
M  V30 43 H 0.648426 2.696809 -2.231087 0
M  V30 44 H -1.916735 2.514522 -0.871708 0
M  V30 45 H -1.923194 0.231409 -0.584262 0
M  V30 46 H -0.266236 0.066078 -1.176225 0
M  V30 END ATOM
M  V30 BEGIN BOND
M  V30 1 1 1 2
M  V30 2 1 2 3
M  V30 3 1 2 4
M  V30 4 1 4 5
M  V30 5 3 5 6
M  V30 6 1 6 7
M  V30 7 2 7 8
M  V30 8 1 8 9
M  V30 9 1 8 10
M  V30 10 2 10 11
M  V30 11 1 11 12
M  V30 12 1 11 13
M  V30 13 2 13 14
M  V30 14 1 14 15
M  V30 15 1 15 16
M  V30 16 2 15 17
M  V30 17 1 14 18
M  V30 18 2 18 19
M  V30 19 1 19 20
M  V30 20 1 20 21
M  V30 21 1 21 22
M  V30 22 1 22 23
M  V30 23 1 23 24
M  V30 24 1 24 25
M  V30 25 1 25 26
M  V30 26 1 20 7
M  V30 27 1 26 21
M  V30 28 1 19 10
M  V30 29 1 1 27
M  V30 30 1 1 28
M  V30 31 1 1 29
M  V30 32 1 2 30
M  V30 33 1 3 31
M  V30 34 1 4 32
M  V30 35 1 4 33
M  V30 36 1 13 34
M  V30 37 1 16 35
M  V30 38 1 16 36
M  V30 39 1 21 37 CFG=1
M  V30 40 1 22 38
M  V30 41 1 22 39
M  V30 42 1 23 40
M  V30 43 1 23 41
M  V30 44 1 24 42
M  V30 45 1 24 43
M  V30 46 1 25 44
M  V30 47 1 26 45
M  V30 48 1 26 46
M  V30 END BOND
M  V30 END CTAB
M  END
>  <Dataset>  (901) 
ChEMBL_Kinases

>  <Ligand_Instance>  (901) 
nan

>  <PDB_ID>  (901) 
nan

>  <Standardized_SMILES>  (901) 
CC(O)CC#Cc1c(Cl)c2c(Cl)cc(C(N)=O)nc2n1[C@H]1CCCNC1

>  <Name>  (901) 
nan

>  <Pocket>  (901) 
nan

>  <ATP_Site>  (901) 
nan

>  <Peripheral>  (901) 
nan

>  <Num_H_Atoms_ProtBoundConf>  (901) 
nan

>  <Num_Resolved_Atoms>  (901) 
nan

>  <Num_Not_Resolved_Atoms>  (901) 
nan

$$$$
CHEMBL3100086
     RDKit          3D

  0  0  0  0  0  0  0  0  0  0999 V3000
M  V30 BEGIN CTAB
M  V30 COUNTS 51 55 0 0 0
M  V30 BEGIN ATOM
M  V30 1 C 3.059522 0.423529 8.029344 0
M  V30 2 C 3.698378 0.044320 6.729844 0
M  V30 3 N 4.972026 -0.336104 6.512445 0
M  V30 4 C 5.113391 -0.585219 5.185669 0
M  V30 5 N 3.886962 -0.337067 4.653804 0
M  V30 6 C 3.547869 -0.463617 3.284839 0
M  V30 7 C 4.482050 -0.225434 2.313550 0
M  V30 8 C 4.199494 -0.336240 0.988201 0
M  V30 9 C 2.936545 -0.701100 0.527126 0
M  V30 10 N 2.578527 -0.859112 -0.832743 0
M  V30 11 C 1.399179 -0.660772 -1.583557 0
M  V30 12 C 0.228110 -0.085860 -1.166330 0
M  V30 13 C -0.904086 0.060247 -1.940657 0
M  V30 14 C -2.107456 0.694178 -1.385986 0
M  V30 15 N -2.055629 2.006170 -1.004043 0
M  V30 16 O -3.240369 2.364751 -0.541360 0
M  V30 17 C -4.060494 1.336701 -0.607544 0
M  V30 18 C -3.399871 0.232471 -1.139637 0
M  V30 19 C -3.741058 -1.131557 -1.447588 0
M  V30 20 C -3.124796 -2.199763 -0.808095 0
M  V30 21 C -2.055345 -2.166648 0.255316 0
M  V30 22 N -3.676376 -3.312184 -1.329963 0
M  V30 23 N -4.594478 -2.978074 -2.250932 0
M  V30 24 C -4.658700 -1.640854 -2.347815 0
M  V30 25 C -5.533720 -0.832173 -3.237220 0
M  V30 26 C -0.823836 -0.412207 -3.216363 0
M  V30 27 C 0.340285 -0.992046 -3.658109 0
M  V30 28 N 1.404794 -1.102780 -2.851645 0
M  V30 29 C 2.010590 -0.936847 1.521658 0
M  V30 30 C 2.293919 -0.824732 2.877379 0
M  V30 31 N 3.011345 0.045467 5.565762 0
M  V30 32 H 3.377866 1.455712 8.260641 0
M  V30 33 H 3.428116 -0.306429 8.807641 0
M  V30 34 H 1.970575 0.304210 7.982649 0
M  V30 35 H 5.952613 -0.910424 4.581284 0
M  V30 36 H 5.496964 0.065829 2.585556 0
M  V30 37 H 4.940609 -0.147787 0.208752 0
M  V30 38 H 3.442019 -1.208707 -1.338930 0
M  V30 39 H 0.177315 0.293899 -0.166703 0
M  V30 40 H -5.104296 1.231774 -0.327779 0
M  V30 41 H -2.396981 -2.712589 1.158380 0
M  V30 42 H -1.159681 -2.679149 -0.116611 0
M  V30 43 H -1.897254 -1.113189 0.555218 0
M  V30 44 H -5.141057 -3.683479 -2.777715 0
M  V30 45 H -6.604909 -1.039912 -2.942646 0
M  V30 46 H -5.350987 -1.050096 -4.309240 0
M  V30 47 H -5.392405 0.244865 -3.020363 0
M  V30 48 H -1.659234 -0.333718 -3.872979 0
M  V30 49 H 0.420871 -1.377905 -4.683187 0
M  V30 50 H 0.984092 -1.242309 1.370228 0
M  V30 51 H 1.576693 -1.004748 3.675112 0
M  V30 END ATOM
M  V30 BEGIN BOND
M  V30 1 1 1 2
M  V30 2 1 2 3
M  V30 3 2 3 4
M  V30 4 1 4 5
M  V30 5 1 5 6
M  V30 6 2 6 7
M  V30 7 1 7 8
M  V30 8 2 8 9
M  V30 9 1 9 10
M  V30 10 1 10 11
M  V30 11 2 11 12
M  V30 12 1 12 13
M  V30 13 1 13 14
M  V30 14 2 14 15
M  V30 15 1 15 16
M  V30 16 1 16 17
M  V30 17 2 17 18
M  V30 18 1 18 19
M  V30 19 1 19 20
M  V30 20 1 20 21
M  V30 21 2 20 22
M  V30 22 1 22 23
M  V30 23 1 23 24
M  V30 24 1 24 25
M  V30 25 2 13 26
M  V30 26 1 26 27
M  V30 27 2 27 28
M  V30 28 1 9 29
M  V30 29 2 29 30
M  V30 30 1 5 31
M  V30 31 2 31 2
M  V30 32 1 30 6
M  V30 33 1 28 11
M  V30 34 1 18 14
M  V30 35 2 24 19
M  V30 36 1 1 32
M  V30 37 1 1 33
M  V30 38 1 1 34
M  V30 39 1 4 35
M  V30 40 1 7 36
M  V30 41 1 8 37
M  V30 42 1 10 38
M  V30 43 1 12 39
M  V30 44 1 17 40
M  V30 45 1 21 41
M  V30 46 1 21 42
M  V30 47 1 21 43
M  V30 48 1 23 44
M  V30 49 1 25 45
M  V30 50 1 25 46
M  V30 51 1 25 47
M  V30 52 1 26 48
M  V30 53 1 27 49
M  V30 54 1 29 50
M  V30 55 1 30 51
M  V30 END BOND
M  V30 END CTAB
M  END
>  <Dataset>  (902) 
ChEMBL_Kinases

>  <Ligand_Instance>  (902) 
nan

>  <PDB_ID>  (902) 
nan

>  <Standardized_SMILES>  (902) 
Cc1ncn(-c2ccc(Nc3cc(-c4nocc4-c4c(C)n[nH]c4C)ccn3)cc2)n1

>  <Name>  (902) 
nan

>  <Pocket>  (902) 
nan

>  <ATP_Site>  (902) 
nan

>  <Peripheral>  (902) 
nan

>  <Num_H_Atoms_ProtBoundConf>  (902) 
nan

>  <Num_Resolved_Atoms>  (902) 
nan

>  <Num_Not_Resolved_Atoms>  (902) 
nan

$$$$
CHEMBL3102859
     RDKit          3D

  0  0  0  0  0  0  0  0  0  0999 V3000
M  V30 BEGIN CTAB
M  V30 COUNTS 35 38 0 0 0
M  V30 BEGIN ATOM
M  V30 1 C 0.202887 -2.993246 5.002488 0
M  V30 2 C -0.262249 -4.023753 4.210907 0
M  V30 3 C -0.210310 -3.799184 2.836070 0
M  V30 4 C 0.271828 -2.630594 2.315865 0
M  V30 5 C 0.337243 -2.369366 0.864060 0
M  V30 6 C 0.549386 -3.374215 -0.063238 0
M  V30 7 N 0.601229 -3.086971 -1.377661 0
M  V30 8 C 0.455657 -1.844166 -1.870749 0
M  V30 9 N 0.465030 -1.312657 -3.093791 0
M  V30 10 C 0.264481 0.028837 -3.019932 0
M  V30 11 C 0.114917 0.402894 -1.678965 0
M  V30 12 C -0.116920 1.748995 -1.155372 0
M  V30 13 C 0.638929 2.135585 -0.066295 0
M  V30 14 C 0.447759 3.406384 0.461330 0
M  V30 15 C -0.451458 4.301745 -0.039136 0
M  V30 16 C -1.197914 3.882611 -1.136665 0
M  V30 17 C -1.041710 2.629741 -1.693623 0
M  V30 18 C 0.240937 -0.797140 -0.993201 0
M  V30 19 C 0.186579 -1.083995 0.355242 0
M  V30 20 C 0.733551 -1.611676 3.155054 0
M  V30 21 C 0.698987 -1.796309 4.539498 0
M  V30 22 H 0.167979 -3.155856 6.087191 0
M  V30 23 H -0.644514 -4.948119 4.596679 0
M  V30 24 H -0.552210 -4.546264 2.118722 0
M  V30 25 H 0.672018 -4.387315 0.284094 0
M  V30 26 H 0.608533 -1.872073 -3.967680 0
M  V30 27 H 0.221953 0.732221 -3.864099 0
M  V30 28 H 1.390158 1.551975 0.446848 0
M  V30 29 H 1.019465 3.762941 1.322558 0
M  V30 30 H -0.584154 5.300498 0.395428 0
M  V30 31 H -1.921054 4.592616 -1.544804 0
M  V30 32 H -1.608875 2.295899 -2.536503 0
M  V30 33 H 0.022395 -0.311897 1.075405 0
M  V30 34 H 1.129997 -0.657694 2.817137 0
M  V30 35 H 1.043632 -1.041905 5.246429 0
M  V30 END ATOM
M  V30 BEGIN BOND
M  V30 1 2 1 2
M  V30 2 1 2 3
M  V30 3 2 3 4
M  V30 4 1 4 5
M  V30 5 2 5 6
M  V30 6 1 6 7
M  V30 7 2 7 8
M  V30 8 1 8 9
M  V30 9 1 9 10
M  V30 10 2 10 11
M  V30 11 1 11 12
M  V30 12 2 12 13
M  V30 13 1 13 14
M  V30 14 2 14 15
M  V30 15 1 15 16
M  V30 16 2 16 17
M  V30 17 1 11 18
M  V30 18 2 18 19
M  V30 19 1 4 20
M  V30 20 2 20 21
M  V30 21 1 21 1
M  V30 22 1 19 5
M  V30 23 1 18 8
M  V30 24 1 17 12
M  V30 25 1 1 22
M  V30 26 1 2 23
M  V30 27 1 3 24
M  V30 28 1 6 25
M  V30 29 1 9 26
M  V30 30 1 10 27
M  V30 31 1 13 28
M  V30 32 1 14 29
M  V30 33 1 15 30
M  V30 34 1 16 31
M  V30 35 1 17 32
M  V30 36 1 19 33
M  V30 37 1 20 34
M  V30 38 1 21 35
M  V30 END BOND
M  V30 END CTAB
M  END
>  <Dataset>  (903) 
ChEMBL_Kinases

>  <Ligand_Instance>  (903) 
nan

>  <PDB_ID>  (903) 
nan

>  <Standardized_SMILES>  (903) 
c1ccc(-c2cnc3[nH]cc(-c4ccccc4)c3c2)cc1

>  <Name>  (903) 
nan

>  <Pocket>  (903) 
nan

>  <ATP_Site>  (903) 
nan

>  <Peripheral>  (903) 
nan

>  <Num_H_Atoms_ProtBoundConf>  (903) 
nan

>  <Num_Resolved_Atoms>  (903) 
nan

>  <Num_Not_Resolved_Atoms>  (903) 
nan

$$$$
CHEMBL4281039
     RDKit          3D

  0  0  0  0  0  0  0  0  0  0999 V3000
M  V30 BEGIN CTAB
M  V30 COUNTS 34 36 0 0 0
M  V30 BEGIN ATOM
M  V30 1 C 1.902688 -5.394909 2.387853 0
M  V30 2 C 0.795644 -4.769889 2.019387 0
M  V30 3 C -0.500144 -5.488213 2.050847 0
M  V30 4 C 0.919494 -3.380572 1.594836 0
M  V30 5 C 2.174744 -2.812675 1.605097 0
M  V30 6 C 2.298672 -1.481503 1.199110 0
M  V30 7 C 1.184368 -0.767927 0.801324 0
M  V30 8 C 1.383671 0.554813 0.409526 0
M  V30 9 O 2.503982 1.109078 0.403545 0
M  V30 10 C 0.257418 1.250666 0.015572 0
M  V30 11 C 0.379680 2.567674 -0.386152 0
M  V30 12 C -0.760023 3.260071 -0.781056 0
M  V30 13 C -0.595540 4.648643 -1.199180 0
M  V30 14 O 0.482800 5.295884 -1.241246 0
M  V30 15 O -1.685372 5.403120 -1.606285 0
M  V30 16 C -1.979859 2.613537 -0.760809 0
M  V30 17 N -3.098918 3.387327 -1.178539 0
M  V30 18 N -2.057767 1.330249 -0.363081 0
M  V30 19 C -0.979382 0.617373 0.029003 0
M  V30 20 O -1.107710 -0.645884 0.412641 0
M  V30 21 C -0.074697 -1.359819 0.798141 0
M  V30 22 C -0.198254 -2.677692 1.199938 0
M  V30 23 H 1.412225 -6.352201 2.618508 0
M  V30 24 H 1.945104 -6.420232 2.721551 0
M  V30 25 H -1.373618 -4.852673 2.210768 0
M  V30 26 H -0.566308 -6.087076 1.109700 0
M  V30 27 H -0.500870 -6.212251 2.911871 0
M  V30 28 H 3.065343 -3.352706 1.913357 0
M  V30 29 H 3.279097 -1.019607 1.201272 0
M  V30 30 H 1.343511 3.066825 -0.398422 0
M  V30 31 H -1.749667 6.424606 -1.478856 0
M  V30 32 H -3.183000 2.968119 -2.151231 0
M  V30 33 H -3.725097 4.134105 -0.793497 0
M  V30 34 H -1.193822 -3.099747 1.182748 0
M  V30 END ATOM
M  V30 BEGIN BOND
M  V30 1 2 1 2
M  V30 2 1 2 3
M  V30 3 1 2 4
M  V30 4 2 4 5
M  V30 5 1 5 6
M  V30 6 2 6 7
M  V30 7 1 7 8
M  V30 8 2 8 9
M  V30 9 1 8 10
M  V30 10 2 10 11
M  V30 11 1 11 12
M  V30 12 1 12 13
M  V30 13 2 13 14
M  V30 14 1 13 15
M  V30 15 2 12 16
M  V30 16 1 16 17
M  V30 17 1 16 18
M  V30 18 2 18 19
M  V30 19 1 19 20
M  V30 20 1 20 21
M  V30 21 2 21 22
M  V30 22 1 22 4
M  V30 23 1 21 7
M  V30 24 1 19 10
M  V30 25 1 1 23
M  V30 26 1 1 24
M  V30 27 1 3 25
M  V30 28 1 3 26
M  V30 29 1 3 27
M  V30 30 1 5 28
M  V30 31 1 6 29
M  V30 32 1 11 30
M  V30 33 1 15 31
M  V30 34 1 17 32
M  V30 35 1 17 33
M  V30 36 1 22 34
M  V30 END BOND
M  V30 END CTAB
M  END
>  <Dataset>  (904) 
ChEMBL_Kinases

>  <Ligand_Instance>  (904) 
nan

>  <PDB_ID>  (904) 
nan

>  <Standardized_SMILES>  (904) 
C=C(C)c1ccc2c(=O)c3cc(C(=O)O)c(N)nc3oc2c1

>  <Name>  (904) 
nan

>  <Pocket>  (904) 
nan

>  <ATP_Site>  (904) 
nan

>  <Peripheral>  (904) 
nan

>  <Num_H_Atoms_ProtBoundConf>  (904) 
nan

>  <Num_Resolved_Atoms>  (904) 
nan

>  <Num_Not_Resolved_Atoms>  (904) 
nan

$$$$
CHEMBL4280119
     RDKit          3D

  0  0  0  0  0  0  0  0  0  0999 V3000
M  V30 BEGIN CTAB
M  V30 COUNTS 37 40 0 0 0
M  V30 BEGIN ATOM
M  V30 1 C 2.614330 -5.922059 2.211146 0
M  V30 2 S 2.699463 -4.402175 3.235106 0
M  V30 3 C 1.982169 -3.028633 2.348199 0
M  V30 4 N 0.654503 -2.877534 2.555427 0
M  V30 5 C -0.056232 -1.880956 1.958083 0
M  V30 6 C 0.661941 -1.048159 1.138591 0
M  V30 7 C 2.016427 -1.191775 0.919045 0
M  V30 8 N 2.696657 -2.203326 1.535411 0
M  V30 9 N 2.949824 -0.465755 0.129648 0
M  V30 10 C 2.645139 0.802851 -0.452511 0
M  V30 11 N 3.577352 1.621892 -1.008037 0
M  V30 12 N 2.995973 2.714655 -1.458835 0
M  V30 13 C 1.672032 2.674275 -1.228145 0
M  V30 14 C 0.640048 3.699321 -1.573626 0
M  V30 15 C 1.440650 1.471530 -0.593364 0
M  V30 16 N 0.155534 1.010993 -0.160041 0
M  V30 17 C -0.201206 -0.007114 0.544077 0
M  V30 18 C -1.616830 -0.220043 0.828226 0
M  V30 19 C -2.402633 0.396926 1.778234 0
M  V30 20 C -3.734608 0.058600 1.896961 0
M  V30 21 C -4.323953 -0.890791 1.087717 0
M  V30 22 C -3.541473 -1.512702 0.133613 0
M  V30 23 C -2.188979 -1.186806 -0.005970 0
M  V30 24 Cl -1.305489 -2.051074 -1.257985 0
M  V30 25 H 1.533469 -6.157247 2.146602 0
M  V30 26 H 2.957675 -5.696765 1.169126 0
M  V30 27 H 3.155073 -6.746005 2.687467 0
M  V30 28 H -1.117624 -1.774375 2.134727 0
M  V30 29 H 3.903142 -0.859385 -0.043323 0
M  V30 30 H 3.525309 3.502806 -1.934785 0
M  V30 31 H 0.389954 4.306011 -0.686036 0
M  V30 32 H -0.283039 3.210564 -1.957407 0
M  V30 33 H 1.027596 4.344758 -2.405114 0
M  V30 34 H -1.874306 1.129661 2.375963 0
M  V30 35 H -4.281547 0.590328 2.668425 0
M  V30 36 H -5.376150 -1.113837 1.229167 0
M  V30 37 H -3.992543 -2.255079 -0.502808 0
M  V30 END ATOM
M  V30 BEGIN BOND
M  V30 1 1 1 2
M  V30 2 1 2 3
M  V30 3 2 3 4
M  V30 4 1 4 5
M  V30 5 2 5 6
M  V30 6 1 6 7
M  V30 7 2 7 8
M  V30 8 1 7 9
M  V30 9 1 9 10
M  V30 10 2 10 11
M  V30 11 1 11 12
M  V30 12 1 12 13
M  V30 13 1 13 14
M  V30 14 2 13 15
M  V30 15 1 15 16
M  V30 16 2 16 17
M  V30 17 1 17 18
M  V30 18 2 18 19
M  V30 19 1 19 20
M  V30 20 2 20 21
M  V30 21 1 21 22
M  V30 22 2 22 23
M  V30 23 1 23 24
M  V30 24 1 8 3
M  V30 25 1 15 10
M  V30 26 1 23 18
M  V30 27 1 17 6
M  V30 28 1 1 25
M  V30 29 1 1 26
M  V30 30 1 1 27
M  V30 31 1 5 28
M  V30 32 1 9 29
M  V30 33 1 12 30
M  V30 34 1 14 31
M  V30 35 1 14 32
M  V30 36 1 14 33
M  V30 37 1 19 34
M  V30 38 1 20 35
M  V30 39 1 21 36
M  V30 40 1 22 37
M  V30 END BOND
M  V30 END CTAB
M  END
>  <Dataset>  (905) 
ChEMBL_Kinases

>  <Ligand_Instance>  (905) 
nan

>  <PDB_ID>  (905) 
nan

>  <Standardized_SMILES>  (905) 
CSc1ncc2c(n1)Nc1n[nH]c(C)c1N=C2c1ccccc1Cl

>  <Name>  (905) 
nan

>  <Pocket>  (905) 
nan

>  <ATP_Site>  (905) 
nan

>  <Peripheral>  (905) 
nan

>  <Num_H_Atoms_ProtBoundConf>  (905) 
nan

>  <Num_Resolved_Atoms>  (905) 
nan

>  <Num_Not_Resolved_Atoms>  (905) 
nan

$$$$
CHEMBL4280981
     RDKit          3D

  0  0  0  0  0  0  0  0  0  0999 V3000
M  V30 BEGIN CTAB
M  V30 COUNTS 27 29 0 0 0
M  V30 BEGIN ATOM
M  V30 1 C 0.656354 -4.906152 2.460243 0
M  V30 2 C 0.376134 -5.477316 1.230994 0
M  V30 3 N 0.280659 -4.712280 0.127890 0
M  V30 4 C 0.449916 -3.365840 0.156651 0
M  V30 5 C 0.731930 -2.762500 1.373625 0
M  V30 6 C 0.920267 -1.296481 1.452506 0
M  V30 7 C 1.771428 -0.758253 2.380334 0
M  V30 8 S 1.701088 1.043942 2.139598 0
M  V30 9 C 0.463052 0.879008 0.735087 0
M  V30 10 C -0.052942 2.037675 0.039617 0
M  V30 11 C -0.970474 1.850518 -0.992242 0
M  V30 12 C -1.430532 2.988267 -1.621496 0
M  V30 13 C -1.012677 4.251485 -1.258513 0
M  V30 14 N -0.112213 4.393098 -0.242090 0
M  V30 15 C 0.363468 3.302236 0.400648 0
M  V30 16 C 0.256946 -0.431451 0.615148 0
M  V30 17 C 0.831048 -3.540082 2.506521 0
M  V30 18 H 0.730335 -5.532856 3.339100 0
M  V30 19 H 0.229810 -6.564100 1.150829 0
M  V30 20 H 0.370750 -2.771346 -0.729830 0
M  V30 21 H 2.370441 -1.272108 3.112631 0
M  V30 22 H -1.244895 0.832774 -1.212786 0
M  V30 23 H -2.131886 2.840214 -2.409720 0
M  V30 24 H -1.389978 5.124499 -1.769110 0
M  V30 25 H 1.073451 3.488275 1.195317 0
M  V30 26 H -0.438850 -0.734605 -0.155779 0
M  V30 27 H 1.053030 -3.050984 3.453059 0
M  V30 END ATOM
M  V30 BEGIN BOND
M  V30 1 2 1 2
M  V30 2 1 2 3
M  V30 3 2 3 4
M  V30 4 1 4 5
M  V30 5 1 5 6
M  V30 6 2 6 7
M  V30 7 1 7 8
M  V30 8 1 8 9
M  V30 9 1 9 10
M  V30 10 2 10 11
M  V30 11 1 11 12
M  V30 12 2 12 13
M  V30 13 1 13 14
M  V30 14 2 14 15
M  V30 15 2 9 16
M  V30 16 2 5 17
M  V30 17 1 17 1
M  V30 18 1 16 6
M  V30 19 1 15 10
M  V30 20 1 1 18
M  V30 21 1 2 19
M  V30 22 1 4 20
M  V30 23 1 7 21
M  V30 24 1 11 22
M  V30 25 1 12 23
M  V30 26 1 13 24
M  V30 27 1 15 25
M  V30 28 1 16 26
M  V30 29 1 17 27
M  V30 END BOND
M  V30 END CTAB
M  END
>  <Dataset>  (906) 
ChEMBL_Kinases

>  <Ligand_Instance>  (906) 
nan

>  <PDB_ID>  (906) 
nan

>  <Standardized_SMILES>  (906) 
c1cncc(-c2csc(-c3cccnc3)c2)c1

>  <Name>  (906) 
nan

>  <Pocket>  (906) 
nan

>  <ATP_Site>  (906) 
nan

>  <Peripheral>  (906) 
nan

>  <Num_H_Atoms_ProtBoundConf>  (906) 
nan

>  <Num_Resolved_Atoms>  (906) 
nan

>  <Num_Not_Resolved_Atoms>  (906) 
nan

$$$$
CHEMBL2152382
     RDKit          3D

  0  0  0  0  0  0  0  0  0  0999 V3000
M  V30 BEGIN CTAB
M  V30 COUNTS 58 61 0 0 0
M  V30 BEGIN ATOM
M  V30 1 C 3.558830 -0.112045 -1.757916 0
M  V30 2 O 2.613793 -1.022302 -1.213898 0
M  V30 3 C 1.366584 -1.228834 -1.710514 0
M  V30 4 O 1.263356 -0.473639 -2.700962 0
M  V30 5 C 0.292296 -2.073658 -1.322797 0
M  V30 6 C 0.339114 -2.907951 -0.206013 0
M  V30 7 C 1.476399 -2.954252 0.740606 0
M  V30 8 C 1.526945 -1.805263 1.666298 0
M  V30 9 C 0.347585 -1.551365 2.389131 0
M  V30 10 C 0.357291 -0.518287 3.292438 0
M  V30 11 C 1.390927 0.304030 3.579537 0
M  V30 12 C 1.470735 1.404016 4.519657 0
M  V30 13 O 2.558403 2.047744 4.763062 0
M  V30 14 N 0.416878 1.954557 5.318945 0
M  V30 15 C 0.987855 3.029138 6.095455 0
M  V30 16 C -0.012773 3.718519 6.988411 0
M  V30 17 O 0.616810 4.740929 7.726184 0
M  V30 18 C 2.579986 0.071698 2.871662 0
M  V30 19 C 2.605109 -0.956246 1.957623 0
M  V30 20 C -0.741640 -3.765925 0.104292 0
M  V30 21 O -0.709113 -4.509239 1.088251 0
M  V30 22 C -1.865678 -3.793417 -0.689560 0
M  V30 23 C -2.953274 -4.582421 -0.478441 0
M  V30 24 C -4.091385 -4.655266 -1.233319 0
M  V30 25 C -4.065882 -3.809104 -2.310677 0
M  V30 26 Cl -5.411810 -3.723953 -3.420245 0
M  V30 27 C -3.010560 -2.937915 -2.648137 0
M  V30 28 C -1.890142 -2.943734 -1.804570 0
M  V30 29 N -0.825212 -2.169004 -2.022967 0
M  V30 30 C -0.981767 -1.342252 -3.204795 0
M  V30 31 C -0.503644 -1.574376 -4.473235 0
M  V30 32 C -0.754142 -0.689327 -5.496086 0
M  V30 33 C -1.511779 0.451752 -5.200457 0
M  V30 34 C -1.978397 0.667836 -3.941350 0
M  V30 35 C -1.724679 -0.218199 -2.920354 0
M  V30 36 H 3.640816 -0.359922 -2.829797 0
M  V30 37 H 3.263567 0.936375 -1.598629 0
M  V30 38 H 4.556845 -0.264596 -1.297573 0
M  V30 39 H 2.445428 -3.097745 0.204685 0
M  V30 40 H 1.368136 -3.857159 1.369381 0
M  V30 41 H -0.588664 -2.086796 2.309296 0
M  V30 42 H -0.535884 -0.290969 3.868314 0
M  V30 43 H -0.523882 1.502159 5.202230 0
M  V30 44 H 1.838393 2.726841 6.725198 0
M  V30 45 H 1.406622 3.800333 5.378376 0
M  V30 46 H -0.599614 3.035167 7.616129 0
M  V30 47 H -0.742645 4.276487 6.329772 0
M  V30 48 H 0.097750 5.560101 7.743546 0
M  V30 49 H 3.473308 0.661599 3.009758 0
M  V30 50 H 3.485281 -1.229223 1.352075 0
M  V30 51 H -2.876841 -5.219800 0.399902 0
M  V30 52 H -4.922569 -5.304400 -1.016887 0
M  V30 53 H -3.038186 -2.288454 -3.507879 0
M  V30 54 H 0.072422 -2.503658 -4.567658 0
M  V30 55 H -0.365057 -0.899226 -6.469858 0
M  V30 56 H -1.734658 1.171743 -5.974466 0
M  V30 57 H -2.570398 1.568950 -3.751827 0
M  V30 58 H -2.142584 0.052097 -1.952081 0
M  V30 END ATOM
M  V30 BEGIN BOND
M  V30 1 1 1 2
M  V30 2 1 2 3
M  V30 3 2 3 4
M  V30 4 1 3 5
M  V30 5 2 5 6
M  V30 6 1 6 7
M  V30 7 1 7 8
M  V30 8 2 8 9
M  V30 9 1 9 10
M  V30 10 2 10 11
M  V30 11 1 11 12
M  V30 12 2 12 13
M  V30 13 1 12 14
M  V30 14 1 14 15
M  V30 15 1 15 16
M  V30 16 1 16 17
M  V30 17 1 11 18
M  V30 18 2 18 19
M  V30 19 1 6 20
M  V30 20 2 20 21
M  V30 21 1 20 22
M  V30 22 2 22 23
M  V30 23 1 23 24
M  V30 24 2 24 25
M  V30 25 1 25 26
M  V30 26 1 25 27
M  V30 27 2 27 28
M  V30 28 1 28 29
M  V30 29 1 29 30
M  V30 30 2 30 31
M  V30 31 1 31 32
M  V30 32 2 32 33
M  V30 33 1 33 34
M  V30 34 2 34 35
M  V30 35 1 29 5
M  V30 36 1 35 30
M  V30 37 1 19 8
M  V30 38 1 28 22
M  V30 39 1 1 36
M  V30 40 1 1 37
M  V30 41 1 1 38
M  V30 42 1 7 39
M  V30 43 1 7 40
M  V30 44 1 9 41
M  V30 45 1 10 42
M  V30 46 1 14 43
M  V30 47 1 15 44
M  V30 48 1 15 45
M  V30 49 1 16 46
M  V30 50 1 16 47
M  V30 51 1 17 48
M  V30 52 1 18 49
M  V30 53 1 19 50
M  V30 54 1 23 51
M  V30 55 1 24 52
M  V30 56 1 27 53
M  V30 57 1 31 54
M  V30 58 1 32 55
M  V30 59 1 33 56
M  V30 60 1 34 57
M  V30 61 1 35 58
M  V30 END BOND
M  V30 END CTAB
M  END
>  <Dataset>  (907) 
ChEMBL_Kinases

>  <Ligand_Instance>  (907) 
nan

>  <PDB_ID>  (907) 
nan

>  <Standardized_SMILES>  (907) 
COC(=O)c1c(Cc2ccc(C(=O)NCCO)cc2)c(=O)c2ccc(Cl)cc2n1-c1ccccc1

>  <Name>  (907) 
nan

>  <Pocket>  (907) 
nan

>  <ATP_Site>  (907) 
nan

>  <Peripheral>  (907) 
nan

>  <Num_H_Atoms_ProtBoundConf>  (907) 
nan

>  <Num_Resolved_Atoms>  (907) 
nan

>  <Num_Not_Resolved_Atoms>  (907) 
nan

$$$$
CHEMBL4280932
     RDKit          3D

  0  0  0  0  0  0  0  0  0  0999 V3000
M  V30 BEGIN CTAB
M  V30 COUNTS 51 55 0 0 0
M  V30 BEGIN ATOM
M  V30 1 C 2.309465 -6.537047 -1.723226 0
M  V30 2 C 2.129654 -5.196108 -1.143417 0
M  V30 3 C 1.043373 -4.453580 -1.502602 0
M  V30 4 C 0.917675 -3.213696 -0.939633 0
M  V30 5 C 1.721517 -2.572547 -0.046446 0
M  V30 6 C 1.695317 -1.340261 0.702262 0
M  V30 7 N 2.801412 -1.006619 1.299164 0
M  V30 8 C 3.189955 0.077836 2.091674 0
M  V30 9 C 2.563279 1.331421 2.008489 0
M  V30 10 N 3.216777 2.173104 2.866035 0
M  V30 11 N 4.195472 1.455899 3.443573 0
M  V30 12 C 4.209835 0.180606 2.999452 0
M  V30 13 C 5.122541 -0.923324 3.382976 0
M  V30 14 N 1.414654 1.756596 1.220926 0
M  V30 15 C 0.361330 0.797446 0.979011 0
M  V30 16 N -0.855217 1.420625 1.021346 0
M  V30 17 C -1.959748 0.621013 0.916561 0
M  V30 18 N -3.219239 1.275329 0.960753 0
M  V30 19 C -4.474883 0.558081 0.861277 0
M  V30 20 C -5.066536 1.036999 -0.471368 0
M  V30 21 C -5.354622 2.493976 -0.430446 0
M  V30 22 C -4.359941 3.358389 0.253652 0
M  V30 23 C -3.349194 2.689839 1.108589 0
M  V30 24 N -1.841965 -0.734512 0.778618 0
M  V30 25 C -0.652362 -1.360625 0.735350 0
M  V30 26 C 0.468514 -0.566080 0.833728 0
M  V30 27 C 2.794598 -3.416611 0.247988 0
M  V30 28 C 3.034002 -4.674907 -0.247976 0
M  V30 29 H 1.503745 -7.215708 -1.372075 0
M  V30 30 H 2.228820 -6.481915 -2.841504 0
M  V30 31 H 3.326916 -6.923994 -1.492172 0
M  V30 32 H 0.269416 -4.753579 -2.192887 0
M  V30 33 H 0.092011 -2.561372 -1.267283 0
M  V30 34 H 4.828114 1.896238 4.140222 0
M  V30 35 H 4.730289 -1.462223 4.259973 0
M  V30 36 H 6.146781 -0.514748 3.559792 0
M  V30 37 H 5.266174 -1.642498 2.524759 0
M  V30 38 H 1.329832 2.718493 0.862211 0
M  V30 39 H -4.382569 -0.528013 0.859155 0
M  V30 40 H -5.146691 0.906708 1.696742 0
M  V30 41 H -4.288101 0.836121 -1.233761 0
M  V30 42 H -6.009383 0.491784 -0.682473 0
M  V30 43 H -6.403609 2.623356 -0.055767 0
M  V30 44 H -5.419837 2.832610 -1.508530 0
M  V30 45 H -4.960198 4.059875 0.908822 0
M  V30 46 H -3.873508 4.083292 -0.470535 0
M  V30 47 H -3.605013 2.860150 2.193971 0
M  V30 48 H -2.379054 3.225808 0.970031 0
M  V30 49 H -0.530842 -2.409838 0.692202 0
M  V30 50 H 3.590443 -3.114178 0.954123 0
M  V30 51 H 3.878302 -5.284322 0.013332 0
M  V30 END ATOM
M  V30 BEGIN BOND
M  V30 1 1 1 2
M  V30 2 2 2 3
M  V30 3 1 3 4
M  V30 4 2 4 5
M  V30 5 1 5 6
M  V30 6 2 6 7
M  V30 7 1 7 8
M  V30 8 1 8 9
M  V30 9 2 9 10
M  V30 10 1 10 11
M  V30 11 1 11 12
M  V30 12 1 12 13
M  V30 13 1 9 14
M  V30 14 1 14 15
M  V30 15 2 15 16
M  V30 16 1 16 17
M  V30 17 1 17 18
M  V30 18 1 18 19
M  V30 19 1 19 20
M  V30 20 1 20 21
M  V30 21 1 21 22
M  V30 22 1 22 23
M  V30 23 2 17 24
M  V30 24 1 24 25
M  V30 25 2 25 26
M  V30 26 1 5 27
M  V30 27 2 27 28
M  V30 28 1 28 2
M  V30 29 1 26 6
M  V30 30 2 12 8
M  V30 31 1 26 15
M  V30 32 1 23 18
M  V30 33 1 1 29
M  V30 34 1 1 30
M  V30 35 1 1 31
M  V30 36 1 3 32
M  V30 37 1 4 33
M  V30 38 1 11 34
M  V30 39 1 13 35
M  V30 40 1 13 36
M  V30 41 1 13 37
M  V30 42 1 14 38
M  V30 43 1 19 39
M  V30 44 1 19 40
M  V30 45 1 20 41
M  V30 46 1 20 42
M  V30 47 1 21 43
M  V30 48 1 21 44
M  V30 49 1 22 45
M  V30 50 1 22 46
M  V30 51 1 23 47
M  V30 52 1 23 48
M  V30 53 1 25 49
M  V30 54 1 27 50
M  V30 55 1 28 51
M  V30 END BOND
M  V30 END CTAB
M  END
>  <Dataset>  (908) 
ChEMBL_Kinases

>  <Ligand_Instance>  (908) 
nan

>  <PDB_ID>  (908) 
nan

>  <Standardized_SMILES>  (908) 
Cc1ccc(C2=Nc3c(n[nH]c3C)Nc3nc(N4CCCCC4)ncc32)cc1

>  <Name>  (908) 
nan

>  <Pocket>  (908) 
nan

>  <ATP_Site>  (908) 
nan

>  <Peripheral>  (908) 
nan

>  <Num_H_Atoms_ProtBoundConf>  (908) 
nan

>  <Num_Resolved_Atoms>  (908) 
nan

>  <Num_Not_Resolved_Atoms>  (908) 
nan

$$$$
CHEMBL3102941
     RDKit          3D

  0  0  0  0  0  0  0  0  0  0999 V3000
M  V30 BEGIN CTAB
M  V30 COUNTS 43 46 0 0 0
M  V30 BEGIN ATOM
M  V30 1 C 1.884474 -6.736126 0.080980 0
M  V30 2 O 2.028558 -5.636973 0.976776 0
M  V30 3 C 1.691742 -4.356695 0.521551 0
M  V30 4 C 1.234589 -4.221145 -0.778595 0
M  V30 5 C 0.875855 -2.990768 -1.321490 0
M  V30 6 C 1.006135 -1.894774 -0.469603 0
M  V30 7 C 0.647839 -0.571386 -0.975559 0
M  V30 8 C 0.791597 -0.162868 -2.288885 0
M  V30 9 N 0.441819 1.064031 -2.699653 0
M  V30 10 C -0.073150 1.971939 -1.845951 0
M  V30 11 N -0.503376 3.238473 -1.971692 0
M  V30 12 C -0.934574 3.702578 -0.783442 0
M  V30 13 C -0.795428 2.727277 0.180640 0
M  V30 14 C -1.114478 2.739573 1.618598 0
M  V30 15 C -0.144256 2.256409 2.499902 0
M  V30 16 C -0.429253 2.250562 3.863395 0
M  V30 17 C -1.669517 2.727434 4.281370 0
M  V30 18 C -2.644075 3.210500 3.424837 0
M  V30 19 C -2.331632 3.203229 2.079744 0
M  V30 20 C -0.247504 1.629306 -0.500237 0
M  V30 21 C 0.123466 0.356984 -0.111986 0
M  V30 22 C 1.461413 -2.029985 0.825616 0
M  V30 23 C 1.811665 -3.256554 1.345931 0
M  V30 24 O 2.276816 -3.479191 2.633150 0
M  V30 25 C 2.468315 -2.503568 3.613882 0
M  V30 26 H 2.365372 -6.537177 -0.885159 0
M  V30 27 H 0.808990 -6.954211 -0.102614 0
M  V30 28 H 2.286663 -7.660481 0.549181 0
M  V30 29 H 1.118878 -5.036386 -1.467624 0
M  V30 30 H 0.520646 -2.850757 -2.316613 0
M  V30 31 H 1.203765 -0.880172 -2.988216 0
M  V30 32 H -0.514073 3.803453 -2.854419 0
M  V30 33 H -1.333558 4.686056 -0.581442 0
M  V30 34 H 0.826528 1.881001 2.212520 0
M  V30 35 H 0.254072 1.895996 4.639033 0
M  V30 36 H -1.949080 2.746136 5.332752 0
M  V30 37 H -3.584719 3.568255 3.782675 0
M  V30 38 H -3.029317 3.560604 1.336316 0
M  V30 39 H -0.001626 0.070822 0.907180 0
M  V30 40 H 1.558517 -1.170796 1.477170 0
M  V30 41 H 1.585248 -2.496651 4.284590 0
M  V30 42 H 2.596607 -1.464030 3.209141 0
M  V30 43 H 3.405013 -2.779304 4.155043 0
M  V30 END ATOM
M  V30 BEGIN BOND
M  V30 1 1 1 2
M  V30 2 1 2 3
M  V30 3 2 3 4
M  V30 4 1 4 5
M  V30 5 2 5 6
M  V30 6 1 6 7
M  V30 7 2 7 8
M  V30 8 1 8 9
M  V30 9 2 9 10
M  V30 10 1 10 11
M  V30 11 1 11 12
M  V30 12 2 12 13
M  V30 13 1 13 14
M  V30 14 2 14 15
M  V30 15 1 15 16
M  V30 16 2 16 17
M  V30 17 1 17 18
M  V30 18 2 18 19
M  V30 19 1 13 20
M  V30 20 2 20 21
M  V30 21 1 6 22
M  V30 22 2 22 23
M  V30 23 1 23 24
M  V30 24 1 24 25
M  V30 25 1 23 3
M  V30 26 1 21 7
M  V30 27 1 20 10
M  V30 28 1 19 14
M  V30 29 1 1 26
M  V30 30 1 1 27
M  V30 31 1 1 28
M  V30 32 1 4 29
M  V30 33 1 5 30
M  V30 34 1 8 31
M  V30 35 1 11 32
M  V30 36 1 12 33
M  V30 37 1 15 34
M  V30 38 1 16 35
M  V30 39 1 17 36
M  V30 40 1 18 37
M  V30 41 1 19 38
M  V30 42 1 21 39
M  V30 43 1 22 40
M  V30 44 1 25 41
M  V30 45 1 25 42
M  V30 46 1 25 43
M  V30 END BOND
M  V30 END CTAB
M  END
>  <Dataset>  (909) 
ChEMBL_Kinases

>  <Ligand_Instance>  (909) 
nan

>  <PDB_ID>  (909) 
nan

>  <Standardized_SMILES>  (909) 
COc1ccc(-c2cnc3[nH]cc(-c4ccccc4)c3c2)cc1OC

>  <Name>  (909) 
nan

>  <Pocket>  (909) 
nan

>  <ATP_Site>  (909) 
nan

>  <Peripheral>  (909) 
nan

>  <Num_H_Atoms_ProtBoundConf>  (909) 
nan

>  <Num_Resolved_Atoms>  (909) 
nan

>  <Num_Not_Resolved_Atoms>  (909) 
nan

$$$$
CHEMBL4280872
     RDKit          3D

  0  0  0  0  0  0  0  0  0  0999 V3000
M  V30 BEGIN CTAB
M  V30 COUNTS 55 62 0 0 0
M  V30 BEGIN ATOM
M  V30 1 C 2.793219 -1.080942 4.450339 0
M  V30 2 C 2.573420 -1.057925 2.968883 0 CFG=1
M  V30 3 O 1.578702 -1.954549 2.567551 0
M  V30 4 C 1.662661 -2.196281 1.196992 0 CFG=2
M  V30 5 C 2.467693 -1.145773 0.480933 0
M  V30 6 C 2.155293 0.269075 0.985519 0 CFG=2
M  V30 7 O 3.241128 1.039470 0.508670 0
M  V30 8 C 2.085123 0.311245 2.480684 0 CFG=1
M  V30 9 O 0.759782 0.428269 2.865154 0
M  V30 10 N 0.959805 0.763099 0.360731 0
M  V30 11 C 0.663800 2.019666 0.009067 0
M  V30 12 C 1.377485 3.184250 0.131895 0
M  V30 13 C 0.904191 4.419455 -0.295929 0
M  V30 14 C -0.358962 4.482438 -0.879773 0
M  V30 15 C -1.090604 3.305831 -1.008610 0
M  V30 16 C -0.567816 2.110461 -0.565212 0
M  V30 17 C -1.097289 0.839038 -0.585106 0
M  V30 18 C -2.292907 0.294376 -1.032715 0
M  V30 19 C -2.498590 -1.055299 -0.891813 0
M  V30 20 C -1.552558 -1.850349 -0.324862 0
M  V30 21 C -1.567216 -3.192151 -0.097433 0
M  V30 22 C -2.353196 -4.289337 -0.262836 0
M  V30 23 C -2.044188 -5.579306 0.102499 0
M  V30 24 O -2.880609 -6.653208 -0.089867 0
M  V30 25 C -0.800323 -5.798347 0.705405 0
M  V30 26 C 0.036868 -4.716730 0.896773 0
M  V30 27 C -0.352521 -3.447272 0.498525 0
M  V30 28 N 0.338542 -2.301342 0.612312 0
M  V30 29 C -0.388298 -1.289383 0.105662 0
M  V30 30 C -0.130496 0.038334 -0.007978 0
M  V30 31 C -3.804909 -1.281763 -1.444920 0
M  V30 32 O -4.534914 -2.262292 -1.605843 0
M  V30 33 N -4.345462 -0.055738 -1.902773 0
M  V30 34 C -3.413633 1.029950 -1.668478 0
M  V30 35 H 3.136531 -0.044472 4.732479 0
M  V30 36 H 3.626475 -1.758610 4.752002 0
M  V30 37 H 1.863859 -1.229494 5.033288 0
M  V30 38 H 3.546541 -1.329551 2.501696 0
M  V30 39 H 2.142604 -3.171788 1.039888 0
M  V30 40 H 3.536739 -1.349963 0.429147 0
M  V30 41 H 2.104875 -1.148232 -0.585700 0
M  V30 42 H 3.133043 1.087185 -0.489607 0
M  V30 43 H 2.699556 1.114340 2.929933 0
M  V30 44 H 0.627047 1.241553 3.448786 0
M  V30 45 H 2.345976 3.182204 0.572658 0
M  V30 46 H 1.493990 5.337935 -0.186868 0
M  V30 47 H -0.785536 5.418910 -1.234871 0
M  V30 48 H -2.085527 3.356585 -1.468656 0
M  V30 49 H -3.308686 -4.191019 -0.713775 0
M  V30 50 H -3.877512 -6.572211 -0.239514 0
M  V30 51 H -0.529313 -6.801467 1.003450 0
M  V30 52 H 0.992040 -4.886550 1.360035 0
M  V30 53 H -5.239086 0.228200 -2.357336 0
M  V30 54 H -3.140605 1.444361 -2.662598 0
M  V30 55 H -3.861153 1.804177 -1.020635 0
M  V30 END ATOM
M  V30 BEGIN BOND
M  V30 1 1 1 2
M  V30 2 1 2 3
M  V30 3 1 3 4
M  V30 4 1 4 5
M  V30 5 1 5 6
M  V30 6 1 6 7 CFG=3
M  V30 7 1 6 8
M  V30 8 1 8 9
M  V30 9 1 6 10
M  V30 10 1 10 11
M  V30 11 2 11 12
M  V30 12 1 12 13
M  V30 13 2 13 14
M  V30 14 1 14 15
M  V30 15 2 15 16
M  V30 16 1 16 17
M  V30 17 2 17 18
M  V30 18 1 18 19
M  V30 19 2 19 20
M  V30 20 1 20 21
M  V30 21 2 21 22
M  V30 22 1 22 23
M  V30 23 1 23 24
M  V30 24 2 23 25
M  V30 25 1 25 26
M  V30 26 2 26 27
M  V30 27 1 27 28
M  V30 28 1 28 29
M  V30 29 2 29 30
M  V30 30 1 19 31
M  V30 31 2 31 32
M  V30 32 1 31 33
M  V30 33 1 33 34
M  V30 34 1 8 2
M  V30 35 1 30 10
M  V30 36 1 28 4
M  V30 37 1 16 11
M  V30 38 1 30 17
M  V30 39 1 34 18
M  V30 40 1 29 20
M  V30 41 1 27 21
M  V30 42 1 1 35
M  V30 43 1 1 36
M  V30 44 1 1 37
M  V30 45 1 2 38 CFG=3
M  V30 46 1 4 39 CFG=1
M  V30 47 1 5 40
M  V30 48 1 5 41
M  V30 49 1 7 42
M  V30 50 1 8 43 CFG=1
M  V30 51 1 9 44
M  V30 52 1 12 45
M  V30 53 1 13 46
M  V30 54 1 14 47
M  V30 55 1 15 48
M  V30 56 1 22 49
M  V30 57 1 24 50
M  V30 58 1 25 51
M  V30 59 1 26 52
M  V30 60 1 33 53
M  V30 61 1 34 54
M  V30 62 1 34 55
M  V30 END BOND
M  V30 END CTAB
M  END
>  <Dataset>  (910) 
ChEMBL_Kinases

>  <Ligand_Instance>  (910) 
nan

>  <PDB_ID>  (910) 
nan

>  <Standardized_SMILES>  (910) 
C[C@H]1O[C@@H]2C[C@](O)([C@H]1O)n1c3ccccc3c3c4c(c5c6cc(O)ccc6n2c5c31)C(=O)NC4

>  <Name>  (910) 
nan

>  <Pocket>  (910) 
nan

>  <ATP_Site>  (910) 
nan

>  <Peripheral>  (910) 
nan

>  <Num_H_Atoms_ProtBoundConf>  (910) 
nan

>  <Num_Resolved_Atoms>  (910) 
nan

>  <Num_Not_Resolved_Atoms>  (910) 
nan

$$$$
CHEMBL3701743
     RDKit          3D

  0  0  0  0  0  0  0  0  0  0999 V3000
M  V30 BEGIN CTAB
M  V30 COUNTS 56 61 0 0 0
M  V30 BEGIN ATOM
M  V30 1 C 4.047998 -1.645344 3.760697 0
M  V30 2 C 5.014486 -0.844947 2.954687 0
M  V30 3 O 6.309280 -0.960920 3.456317 0
M  V30 4 C 4.609433 0.574533 2.623022 0
M  V30 5 C 4.184969 0.162146 1.253310 0
M  V30 6 N 4.711033 0.948386 0.164538 0
M  V30 7 C 2.737798 -0.087016 1.037684 0
M  V30 8 C 1.744375 0.031463 1.986437 0
M  V30 9 C 0.429867 -0.227175 1.669712 0
M  V30 10 C 0.048459 -0.612919 0.401819 0
M  V30 11 C -1.299844 -0.912308 -0.066920 0
M  V30 12 N -1.480754 -2.220434 -0.416402 0
M  V30 13 C -2.756258 -2.388599 -0.830075 0
M  V30 14 N -3.368101 -1.192446 -0.739593 0
M  V30 15 C -2.487467 -0.287969 -0.275468 0
M  V30 16 C -2.579272 1.130417 0.016833 0
M  V30 17 C -2.479569 1.839767 1.194558 0
M  V30 18 C -2.604374 3.212122 1.191713 0
M  V30 19 C -2.830226 3.923131 0.032454 0
M  V30 20 C -2.933948 3.235051 -1.159309 0
M  V30 21 C -2.808752 1.841037 -1.168065 0
M  V30 22 C -4.736259 -0.974181 -1.093052 0
M  V30 23 O -5.388523 -2.137642 -1.544958 0
M  V30 24 C -4.827010 -3.378008 -1.660633 0
M  V30 25 C -5.490038 -4.501596 -2.108981 0
M  V30 26 C -4.810461 -5.723292 -2.185698 0
M  V30 27 C -3.478815 -5.856253 -1.825257 0
M  V30 28 N -2.861058 -4.733787 -1.390558 0
M  V30 29 C -3.511910 -3.547230 -1.313279 0
M  V30 30 C 1.062592 -0.731534 -0.557685 0
M  V30 31 C 2.403954 -0.473582 -0.257118 0
M  V30 32 C 4.988620 -1.127522 1.459311 0
M  V30 33 H 4.595997 -2.407079 4.333869 0
M  V30 34 H 3.565348 -0.973737 4.500646 0
M  V30 35 H 3.302973 -2.190083 3.146157 0
M  V30 36 H 6.395073 -1.846734 3.905872 0
M  V30 37 H 5.540005 1.210915 2.564139 0
M  V30 38 H 3.903156 1.069485 3.281656 0
M  V30 39 H 5.443716 1.629087 0.451684 0
M  V30 40 H 4.916240 0.415845 -0.699451 0
M  V30 41 H 2.035701 0.328184 2.962791 0
M  V30 42 H -0.350248 -0.144176 2.382380 0
M  V30 43 H -2.305327 1.177975 2.029819 0
M  V30 44 H -2.509880 3.661166 2.159248 0
M  V30 45 H -2.915341 5.011223 0.132767 0
M  V30 46 H -3.111105 3.820842 -2.050934 0
M  V30 47 H -2.913250 1.432941 -2.184577 0
M  V30 48 H -4.740613 -0.229062 -1.936411 0
M  V30 49 H -5.308705 -0.582706 -0.222309 0
M  V30 50 H -6.534202 -4.414903 -2.395186 0
M  V30 51 H -5.363276 -6.580488 -2.542151 0
M  V30 52 H -2.977419 -6.812268 -1.894423 0
M  V30 53 H 0.832846 -1.029505 -1.569109 0
M  V30 54 H 3.136104 -0.582270 -1.037740 0
M  V30 55 H 4.419419 -2.028584 1.196151 0
M  V30 56 H 6.006065 -1.075280 0.997917 0
M  V30 END ATOM
M  V30 BEGIN BOND
M  V30 1 1 1 2
M  V30 2 1 2 3
M  V30 3 1 2 4
M  V30 4 1 4 5
M  V30 5 1 5 6
M  V30 6 1 5 7
M  V30 7 2 7 8
M  V30 8 1 8 9
M  V30 9 2 9 10
M  V30 10 1 10 11
M  V30 11 1 11 12
M  V30 12 2 12 13
M  V30 13 1 13 14
M  V30 14 1 14 15
M  V30 15 1 15 16
M  V30 16 2 16 17
M  V30 17 1 17 18
M  V30 18 2 18 19
M  V30 19 1 19 20
M  V30 20 2 20 21
M  V30 21 1 14 22
M  V30 22 1 22 23
M  V30 23 1 23 24
M  V30 24 2 24 25
M  V30 25 1 25 26
M  V30 26 2 26 27
M  V30 27 1 27 28
M  V30 28 2 28 29
M  V30 29 1 10 30
M  V30 30 2 30 31
M  V30 31 1 5 32
M  V30 32 1 32 2
M  V30 33 1 31 7
M  V30 34 2 15 11
M  V30 35 1 21 16
M  V30 36 1 29 24
M  V30 37 1 29 13
M  V30 38 1 1 33
M  V30 39 1 1 34
M  V30 40 1 1 35
M  V30 41 1 3 36
M  V30 42 1 4 37
M  V30 43 1 4 38
M  V30 44 1 6 39
M  V30 45 1 6 40
M  V30 46 1 8 41
M  V30 47 1 9 42
M  V30 48 1 17 43
M  V30 49 1 18 44
M  V30 50 1 19 45
M  V30 51 1 20 46
M  V30 52 1 21 47
M  V30 53 1 22 48
M  V30 54 1 22 49
M  V30 55 1 25 50
M  V30 56 1 26 51
M  V30 57 1 27 52
M  V30 58 1 30 53
M  V30 59 1 31 54
M  V30 60 1 32 55
M  V30 61 1 32 56
M  V30 END BOND
M  V30 END CTAB
M  END
>  <Dataset>  (911) 
ChEMBL_Kinases

>  <Ligand_Instance>  (911) 
nan

>  <PDB_ID>  (911) 
nan

>  <Standardized_SMILES>  (911) 
CC1(O)CC(N)(c2ccc(-c3nc4n(c3-c3ccccc3)COc3cccnc3-4)cc2)C1

>  <Name>  (911) 
nan

>  <Pocket>  (911) 
nan

>  <ATP_Site>  (911) 
nan

>  <Peripheral>  (911) 
nan

>  <Num_H_Atoms_ProtBoundConf>  (911) 
nan

>  <Num_Resolved_Atoms>  (911) 
nan

>  <Num_Not_Resolved_Atoms>  (911) 
nan

$$$$
CHEMBL4280722
     RDKit          3D

  0  0  0  0  0  0  0  0  0  0999 V3000
M  V30 BEGIN CTAB
M  V30 COUNTS 41 44 0 0 0
M  V30 BEGIN ATOM
M  V30 1 C 0.465187 -6.263349 2.703207 0
M  V30 2 C 1.254313 -4.995656 2.513036 0
M  V30 3 C 0.742297 -3.798711 2.961667 0
M  V30 4 C 1.662053 -2.789373 2.655839 0
M  V30 5 N 1.675438 -1.361076 2.878211 0
M  V30 6 C 0.973198 -0.784700 1.788098 0
M  V30 7 N 1.541296 -0.471406 0.599999 0
M  V30 8 C 0.822449 0.065277 -0.401171 0
M  V30 9 C 1.310299 0.479051 -1.739094 0
M  V30 10 C 1.293358 1.987551 -1.760368 0
M  V30 11 C 0.043137 2.406731 -2.200592 0
M  V30 12 C -0.234644 3.751653 -2.314574 0
M  V30 13 C 0.762309 4.669500 -1.979010 0
M  V30 14 C 1.997656 4.204055 -1.542292 0
M  V30 15 C 2.295691 2.859090 -1.421636 0
M  V30 16 N -0.504060 0.304309 -0.230377 0
M  V30 17 C -1.144105 0.016167 0.937294 0
M  V30 18 C -2.501323 0.294433 1.049172 0
M  V30 19 C -3.128410 -0.003667 2.267153 0
M  V30 20 C -2.380796 -0.550112 3.282033 0
M  V30 21 C -1.037827 -0.808924 3.122839 0
M  V30 22 C -0.384671 -0.535897 1.953530 0
M  V30 23 N 2.694043 -3.422947 2.033386 0
M  V30 24 N 2.438070 -4.736129 1.956103 0
M  V30 25 H -0.085976 -6.256009 3.644066 0
M  V30 26 H -0.309211 -6.361070 1.895940 0
M  V30 27 H 1.129255 -7.140098 2.604196 0
M  V30 28 H -0.169958 -3.561386 3.460847 0
M  V30 29 H 2.177767 -1.102664 3.750141 0
M  V30 30 H 2.399999 0.199510 -1.845881 0
M  V30 31 H 0.800017 0.026766 -2.585424 0
M  V30 32 H -0.808293 1.809691 -2.488893 0
M  V30 33 H -1.159662 4.222712 -2.642992 0
M  V30 34 H 0.600539 5.737577 -2.049532 0
M  V30 35 H 2.762122 4.899260 -1.285990 0
M  V30 36 H 3.203996 2.405908 -1.099923 0
M  V30 37 H -2.990357 0.730117 0.181901 0
M  V30 38 H -4.177657 0.262264 2.219418 0
M  V30 39 H -2.965172 -0.737342 4.169830 0
M  V30 40 H -0.523930 -1.242476 3.969343 0
M  V30 41 H 3.014398 -5.504681 1.545583 0
M  V30 END ATOM
M  V30 BEGIN BOND
M  V30 1 1 1 2
M  V30 2 2 2 3
M  V30 3 1 3 4
M  V30 4 1 4 5
M  V30 5 1 5 6
M  V30 6 2 6 7
M  V30 7 1 7 8
M  V30 8 1 8 9
M  V30 9 1 9 10
M  V30 10 2 10 11
M  V30 11 1 11 12
M  V30 12 2 12 13
M  V30 13 1 13 14
M  V30 14 2 14 15
M  V30 15 2 8 16
M  V30 16 1 16 17
M  V30 17 2 17 18
M  V30 18 1 18 19
M  V30 19 2 19 20
M  V30 20 1 20 21
M  V30 21 2 21 22
M  V30 22 2 4 23
M  V30 23 1 23 24
M  V30 24 1 24 2
M  V30 25 1 22 6
M  V30 26 1 15 10
M  V30 27 1 22 17
M  V30 28 1 1 25
M  V30 29 1 1 26
M  V30 30 1 1 27
M  V30 31 1 3 28
M  V30 32 1 5 29
M  V30 33 1 9 30
M  V30 34 1 9 31
M  V30 35 1 11 32
M  V30 36 1 12 33
M  V30 37 1 13 34
M  V30 38 1 14 35
M  V30 39 1 15 36
M  V30 40 1 18 37
M  V30 41 1 19 38
M  V30 42 1 20 39
M  V30 43 1 21 40
M  V30 44 1 24 41
M  V30 END BOND
M  V30 END CTAB
M  END
>  <Dataset>  (912) 
ChEMBL_Kinases

>  <Ligand_Instance>  (912) 
nan

>  <PDB_ID>  (912) 
nan

>  <Standardized_SMILES>  (912) 
Cc1cc(Nc2nc(Cc3ccccc3)nc3ccccc23)n[nH]1

>  <Name>  (912) 
nan

>  <Pocket>  (912) 
nan

>  <ATP_Site>  (912) 
nan

>  <Peripheral>  (912) 
nan

>  <Num_H_Atoms_ProtBoundConf>  (912) 
nan

>  <Num_Resolved_Atoms>  (912) 
nan

>  <Num_Not_Resolved_Atoms>  (912) 
nan

$$$$
CHEMBL3680556
     RDKit          3D

  0  0  0  0  0  0  0  0  0  0999 V3000
M  V30 BEGIN CTAB
M  V30 COUNTS 56 60 0 0 0
M  V30 BEGIN ATOM
M  V30 1 N 5.119834 -2.531169 3.201062 0
M  V30 2 C 5.674618 -1.478777 3.977088 0
M  V30 3 O 6.512549 -1.702123 4.884824 0
M  V30 4 C 5.250124 -0.094556 3.702210 0
M  V30 5 C 5.785472 0.942782 4.433901 0
M  V30 6 C 5.364255 2.226860 4.148579 0
M  V30 7 C 4.433911 2.416603 3.152732 0
M  V30 8 C 3.872366 1.424127 2.398809 0
M  V30 9 C 2.944782 1.697454 1.420734 0
M  V30 10 N 2.513813 3.003078 1.115941 0
M  V30 11 C 1.543440 3.334253 0.105952 0
M  V30 12 C 0.200595 2.808331 0.299420 0
M  V30 13 C -0.622993 3.619797 1.093043 0
M  V30 14 C -1.931716 3.328151 1.404181 0
M  V30 15 C -2.490766 2.168964 0.915632 0
M  V30 16 C -1.716888 1.340711 0.130267 0
M  V30 17 N -2.272515 0.153209 -0.374767 0
M  V30 18 C -2.978355 -0.224821 -1.548869 0
M  V30 19 O -3.176913 0.704642 -2.367344 0
M  V30 20 C -3.397044 -1.611914 -1.697421 0
M  V30 21 C -3.194199 -2.651846 -0.817815 0
M  V30 22 C -3.656493 -3.925337 -1.104579 0
M  V30 23 C -4.330936 -4.153879 -2.291071 0
M  V30 24 C -4.801215 -5.509122 -2.555238 0
M  V30 25 N -5.470621 -5.990960 -3.616577 0
M  V30 26 C -5.720363 -7.314387 -3.472686 0
M  V30 27 C -5.164942 -7.647427 -2.246254 0
M  V30 28 N -4.616164 -6.540769 -1.712005 0
M  V30 29 C -4.550738 -3.135188 -3.193048 0
M  V30 30 C -4.079393 -1.878922 -2.880944 0
M  V30 31 C -0.409307 1.667626 -0.159583 0
M  V30 32 N 2.473236 0.630640 0.758733 0
M  V30 33 C 2.887061 -0.603705 1.042754 0
M  V30 34 N 3.803498 -0.876466 2.008543 0
M  V30 35 C 4.323891 0.166652 2.720913 0
M  V30 36 H 4.431989 -3.261993 3.003220 0
M  V30 37 H 5.897375 -2.408959 2.487954 0
M  V30 38 H 6.494106 0.663813 5.173972 0
M  V30 39 H 5.803772 3.022729 4.741132 0
M  V30 40 H 4.184702 3.457595 3.023103 0
M  V30 41 H 2.888680 3.831265 1.625806 0
M  V30 42 H 1.491952 4.430649 -0.037889 0
M  V30 43 H 1.947061 2.956478 -0.882737 0
M  V30 44 H -0.280747 4.565002 1.533994 0
M  V30 45 H -2.549837 3.953817 2.009754 0
M  V30 46 H -3.514292 1.894990 1.131523 0
M  V30 47 H -2.019769 -0.484725 0.410281 0
M  V30 48 H -2.658751 -2.390585 0.086197 0
M  V30 49 H -3.445066 -4.675615 -0.344994 0
M  V30 50 H -6.230699 -8.010458 -4.127023 0
M  V30 51 H -5.186892 -8.650375 -1.815011 0
M  V30 52 H -4.136353 -6.555631 -0.780955 0
M  V30 53 H -5.080403 -3.352566 -4.106722 0
M  V30 54 H -4.285815 -1.119498 -3.634535 0
M  V30 55 H 0.225738 1.048345 -0.777452 0
M  V30 56 H 2.524870 -1.482656 0.526107 0
M  V30 END ATOM
M  V30 BEGIN BOND
M  V30 1 1 1 2
M  V30 2 2 2 3
M  V30 3 1 2 4
M  V30 4 2 4 5
M  V30 5 1 5 6
M  V30 6 2 6 7
M  V30 7 1 7 8
M  V30 8 2 8 9
M  V30 9 1 9 10
M  V30 10 1 10 11
M  V30 11 1 11 12
M  V30 12 2 12 13
M  V30 13 1 13 14
M  V30 14 2 14 15
M  V30 15 1 15 16
M  V30 16 1 16 17
M  V30 17 1 17 18
M  V30 18 2 18 19
M  V30 19 1 18 20
M  V30 20 2 20 21
M  V30 21 1 21 22
M  V30 22 2 22 23
M  V30 23 1 23 24
M  V30 24 2 24 25
M  V30 25 1 25 26
M  V30 26 2 26 27
M  V30 27 1 27 28
M  V30 28 1 23 29
M  V30 29 2 29 30
M  V30 30 2 16 31
M  V30 31 1 9 32
M  V30 32 2 32 33
M  V30 33 1 33 34
M  V30 34 2 34 35
M  V30 35 1 35 4
M  V30 36 1 35 8
M  V30 37 1 31 12
M  V30 38 1 30 20
M  V30 39 1 28 24
M  V30 40 1 1 36
M  V30 41 1 1 37
M  V30 42 1 5 38
M  V30 43 1 6 39
M  V30 44 1 7 40
M  V30 45 1 10 41
M  V30 46 1 11 42
M  V30 47 1 11 43
M  V30 48 1 13 44
M  V30 49 1 14 45
M  V30 50 1 15 46
M  V30 51 1 17 47
M  V30 52 1 21 48
M  V30 53 1 22 49
M  V30 54 1 26 50
M  V30 55 1 27 51
M  V30 56 1 28 52
M  V30 57 1 29 53
M  V30 58 1 30 54
M  V30 59 1 31 55
M  V30 60 1 33 56
M  V30 END BOND
M  V30 END CTAB
M  END
>  <Dataset>  (913) 
ChEMBL_Kinases

>  <Ligand_Instance>  (913) 
nan

>  <PDB_ID>  (913) 
nan

>  <Standardized_SMILES>  (913) 
NC(=O)c1cccc2c(NCc3cccc(NC(=O)c4ccc(-c5ncc[nH]5)cc4)c3)ncnc12

>  <Name>  (913) 
nan

>  <Pocket>  (913) 
nan

>  <ATP_Site>  (913) 
nan

>  <Peripheral>  (913) 
nan

>  <Num_H_Atoms_ProtBoundConf>  (913) 
nan

>  <Num_Resolved_Atoms>  (913) 
nan

>  <Num_Not_Resolved_Atoms>  (913) 
nan

$$$$
CHEMBL4280308
     RDKit          3D

  0  0  0  0  0  0  0  0  0  0999 V3000
M  V30 BEGIN CTAB
M  V30 COUNTS 29 31 0 0 0
M  V30 BEGIN ATOM
M  V30 1 N -2.105906 -1.405552 4.438920 0
M  V30 2 C -1.365067 -1.835237 3.302566 0
M  V30 3 C -0.577362 -0.966702 2.563249 0
M  V30 4 C 0.164326 -1.311435 1.455822 0
M  V30 5 C 0.929799 -0.234644 0.844718 0
M  V30 6 C 1.748189 0.435366 1.763297 0
M  V30 7 C 2.560936 1.474260 1.324961 0
M  V30 8 N 2.587926 1.863988 0.026668 0
M  V30 9 C 1.806817 1.221383 -0.835527 0
M  V30 10 C 1.743845 1.535600 -2.191417 0
M  V30 11 C 0.922240 0.863111 -3.075471 0
M  V30 12 C 0.107774 -0.175204 -2.642034 0
M  V30 13 C 0.161606 -0.495045 -1.303657 0
M  V30 14 C 0.983606 0.190303 -0.466993 0
M  V30 15 C 0.091613 -2.636848 1.084338 0
M  V30 16 N -0.662965 -3.504046 1.779703 0
M  V30 17 C -1.383107 -3.150619 2.861154 0
M  V30 18 O -2.089404 -3.973393 3.508093 0
M  V30 19 H -3.141859 -1.187305 4.507696 0
M  V30 20 H -1.562591 -1.283881 5.341103 0
M  V30 21 H -0.589517 0.064741 2.944331 0
M  V30 22 H 1.799367 0.201191 2.818961 0
M  V30 23 H 3.218270 2.035822 1.977545 0
M  V30 24 H 2.385391 2.356846 -2.544045 0
M  V30 25 H 0.963162 1.197716 -4.092574 0
M  V30 26 H -0.480137 -0.613779 -3.423263 0
M  V30 27 H -0.488220 -1.299164 -0.997418 0
M  V30 28 H 0.678330 -2.920558 0.222192 0
M  V30 29 H -0.684164 -4.499314 1.455777 0
M  V30 END ATOM
M  V30 BEGIN BOND
M  V30 1 1 1 2
M  V30 2 2 2 3
M  V30 3 1 3 4
M  V30 4 1 4 5
M  V30 5 2 5 6
M  V30 6 1 6 7
M  V30 7 2 7 8
M  V30 8 1 8 9
M  V30 9 2 9 10
M  V30 10 1 10 11
M  V30 11 2 11 12
M  V30 12 1 12 13
M  V30 13 2 13 14
M  V30 14 2 4 15
M  V30 15 1 15 16
M  V30 16 1 16 17
M  V30 17 2 17 18
M  V30 18 1 17 2
M  V30 19 1 14 5
M  V30 20 1 14 9
M  V30 21 1 1 19
M  V30 22 1 1 20
M  V30 23 1 3 21
M  V30 24 1 6 22
M  V30 25 1 7 23
M  V30 26 1 10 24
M  V30 27 1 11 25
M  V30 28 1 12 26
M  V30 29 1 13 27
M  V30 30 1 15 28
M  V30 31 1 16 29
M  V30 END BOND
M  V30 END CTAB
M  END
>  <Dataset>  (914) 
ChEMBL_Kinases

>  <Ligand_Instance>  (914) 
nan

>  <PDB_ID>  (914) 
nan

>  <Standardized_SMILES>  (914) 
Nc1cc(-c2ccnc3ccccc23)c[nH]c1=O

>  <Name>  (914) 
nan

>  <Pocket>  (914) 
nan

>  <ATP_Site>  (914) 
nan

>  <Peripheral>  (914) 
nan

>  <Num_H_Atoms_ProtBoundConf>  (914) 
nan

>  <Num_Resolved_Atoms>  (914) 
nan

>  <Num_Not_Resolved_Atoms>  (914) 
nan

$$$$
CHEMBL4281037
     RDKit          3D

  0  0  0  0  0  0  0  0  0  0999 V3000
M  V30 BEGIN CTAB
M  V30 COUNTS 29 31 0 0 0
M  V30 BEGIN ATOM
M  V30 1 N -2.064516 -3.555215 3.824937 0
M  V30 2 C -0.914591 -2.730639 3.950778 0
M  V30 3 C -0.234502 -2.694893 5.148042 0
M  V30 4 N 0.850453 -1.907895 5.245987 0
M  V30 5 C 1.302823 -1.154074 4.231168 0
M  V30 6 C 0.585627 -1.217938 3.034892 0
M  V30 7 C 1.091286 -0.369037 1.891105 0
M  V30 8 C 0.611540 -0.243115 0.668193 0
M  V30 9 C 1.241556 0.593215 -0.208755 0
M  V30 10 C 0.808963 0.825869 -1.606165 0
M  V30 11 C 0.210861 -0.258151 -2.236075 0
M  V30 12 C -0.213678 -0.102443 -3.538092 0
M  V30 13 C -0.036653 1.107428 -4.173609 0
M  V30 14 N 0.548724 2.124049 -3.515987 0
M  V30 15 C 0.982497 2.019039 -2.235676 0
M  V30 16 C 2.367961 1.269039 0.252774 0
M  V30 17 S 2.482206 0.636245 2.039126 0
M  V30 18 C -0.528023 -1.993652 2.853349 0
M  V30 19 H -2.639178 -3.604074 2.956093 0
M  V30 20 H -2.523110 -4.196552 4.472030 0
M  V30 21 H -0.519084 -3.267010 6.027690 0
M  V30 22 H 2.168124 -0.550972 4.369661 0
M  V30 23 H -0.271775 -0.808000 0.393567 0
M  V30 24 H 0.051713 -1.224999 -1.771048 0
M  V30 25 H -0.691858 -0.860181 -4.142498 0
M  V30 26 H -0.337132 1.321462 -5.190839 0
M  V30 27 H 1.450437 2.831638 -1.709432 0
M  V30 28 H 3.009937 1.986564 -0.304752 0
M  V30 29 H -1.067712 -2.028109 1.922231 0
M  V30 END ATOM
M  V30 BEGIN BOND
M  V30 1 1 1 2
M  V30 2 2 2 3
M  V30 3 1 3 4
M  V30 4 2 4 5
M  V30 5 1 5 6
M  V30 6 1 6 7
M  V30 7 2 7 8
M  V30 8 1 8 9
M  V30 9 1 9 10
M  V30 10 2 10 11
M  V30 11 1 11 12
M  V30 12 2 12 13
M  V30 13 1 13 14
M  V30 14 2 14 15
M  V30 15 2 9 16
M  V30 16 1 16 17
M  V30 17 2 6 18
M  V30 18 1 18 2
M  V30 19 1 17 7
M  V30 20 1 15 10
M  V30 21 1 1 19
M  V30 22 1 1 20
M  V30 23 1 3 21
M  V30 24 1 5 22
M  V30 25 1 8 23
M  V30 26 1 11 24
M  V30 27 1 12 25
M  V30 28 1 13 26
M  V30 29 1 15 27
M  V30 30 1 16 28
M  V30 31 1 18 29
M  V30 END BOND
M  V30 END CTAB
M  END
>  <Dataset>  (915) 
ChEMBL_Kinases

>  <Ligand_Instance>  (915) 
nan

>  <PDB_ID>  (915) 
nan

>  <Standardized_SMILES>  (915) 
Nc1cncc(-c2cc(-c3cccnc3)cs2)c1

>  <Name>  (915) 
nan

>  <Pocket>  (915) 
nan

>  <ATP_Site>  (915) 
nan

>  <Peripheral>  (915) 
nan

>  <Num_H_Atoms_ProtBoundConf>  (915) 
nan

>  <Num_Resolved_Atoms>  (915) 
nan

>  <Num_Not_Resolved_Atoms>  (915) 
nan

$$$$
CHEMBL3680526
     RDKit          3D

  0  0  0  0  0  0  0  0  0  0999 V3000
M  V30 BEGIN CTAB
M  V30 COUNTS 75 79 0 0 0
M  V30 BEGIN ATOM
M  V30 1 C 6.662963 -2.702072 1.083060 0
M  V30 2 N 5.829724 -2.491409 -0.070692 0
M  V30 3 C 6.066240 -3.505123 -1.051417 0
M  V30 4 C 5.200039 -3.260423 -2.294633 0
M  V30 5 N 4.376600 -2.123800 -2.034262 0
M  V30 6 C 3.454544 -1.803334 -3.101474 0
M  V30 7 C 2.380709 -2.824539 -3.268880 0
M  V30 8 O 1.443717 -2.609841 -4.254960 0
M  V30 9 C 0.542435 -1.614919 -4.452865 0
M  V30 10 C -0.155026 -1.915453 -5.631152 0
M  V30 11 C -1.175704 -1.104864 -6.155482 0
M  V30 12 C -1.463779 0.049840 -5.415400 0
M  V30 13 C -0.797909 0.380784 -4.248859 0
M  V30 14 N -1.089557 1.540572 -3.498193 0
M  V30 15 C -2.037233 1.444412 -2.466007 0
M  V30 16 O -2.535709 0.323872 -2.304944 0
M  V30 17 N -2.445740 2.511761 -1.624338 0
M  V30 18 C -3.379793 2.510651 -0.558576 0
M  V30 19 C -3.614362 3.706817 0.085474 0
M  V30 20 C -4.495601 3.794402 1.134230 0
M  V30 21 C -5.184995 2.695962 1.591571 0
M  V30 22 C -4.989896 1.472946 0.985908 0
M  V30 23 C -5.649514 0.187723 1.392716 0
M  V30 24 N -4.722455 -0.521363 2.247010 0
M  V30 25 C -4.144840 -0.150910 3.489168 0
M  V30 26 N -4.488578 1.041551 3.995448 0
M  V30 27 C -3.996273 1.475035 5.160413 0
M  V30 28 N -3.132508 0.761604 5.903444 0
M  V30 29 C -2.760439 -0.459423 5.417350 0
M  V30 30 C -1.882073 -1.279555 6.091258 0
M  V30 31 C -1.335074 -0.807804 7.375834 0
M  V30 32 N -0.432261 -1.614875 8.120950 0
M  V30 33 O -1.704624 0.332843 7.774207 0
M  V30 34 C -1.481340 -2.520949 5.634060 0
M  V30 35 C -2.011413 -2.939621 4.421426 0
M  V30 36 C -2.892187 -2.132237 3.732628 0
M  V30 37 C -3.260591 -0.916061 4.219412 0
M  V30 38 C -4.083312 1.443790 -0.074956 0
M  V30 39 C 0.181273 -0.456655 -3.802653 0
M  V30 40 C 5.149261 -0.933679 -1.739874 0
M  V30 41 C 6.152399 -1.191181 -0.630550 0
M  V30 42 H 6.988823 -3.769672 1.095401 0
M  V30 43 H 6.049275 -2.442810 1.969244 0
M  V30 44 H 7.583037 -2.057924 1.074841 0
M  V30 45 H 5.833592 -4.492984 -0.578714 0
M  V30 46 H 7.135808 -3.558482 -1.342575 0
M  V30 47 H 5.854298 -3.087452 -3.185580 0
M  V30 48 H 4.568403 -4.157221 -2.449440 0
M  V30 49 H 4.103224 -1.713648 -4.018177 0
M  V30 50 H 3.096439 -0.780413 -2.892607 0
M  V30 51 H 1.930976 -3.062679 -2.265070 0
M  V30 52 H 2.915476 -3.788060 -3.530299 0
M  V30 53 H -0.041371 -2.777828 -6.313356 0
M  V30 54 H -1.745330 -1.281526 -7.052937 0
M  V30 55 H -2.231656 0.782284 -5.691167 0
M  V30 56 H -0.629176 2.484229 -3.672975 0
M  V30 57 H -1.948734 3.396604 -1.879995 0
M  V30 58 H -3.090613 4.620820 -0.237776 0
M  V30 59 H -4.630239 4.763924 1.592426 0
M  V30 60 H -5.883994 2.770726 2.407480 0
M  V30 61 H -6.616970 0.385807 1.903332 0
M  V30 62 H -5.777807 -0.379413 0.454658 0
M  V30 63 H -4.442554 -1.450972 1.883470 0
M  V30 64 H -4.341979 2.464540 5.483823 0
M  V30 65 H 0.621939 -1.637727 8.054107 0
M  V30 66 H -0.751323 -2.303708 8.848854 0
M  V30 67 H -0.780523 -3.094795 6.243833 0
M  V30 68 H -1.640158 -3.935309 4.133670 0
M  V30 69 H -3.215983 -2.573166 2.827738 0
M  V30 70 H -3.941907 0.493866 -0.533896 0
M  V30 71 H 0.778884 -0.330782 -2.911475 0
M  V30 72 H 4.436546 -0.137704 -1.461447 0
M  V30 73 H 5.660489 -0.621075 -2.688459 0
M  V30 74 H 6.049275 -0.379621 0.123324 0
M  V30 75 H 7.162837 -1.223416 -1.064813 0
M  V30 END ATOM
M  V30 BEGIN BOND
M  V30 1 1 1 2
M  V30 2 1 2 3
M  V30 3 1 3 4
M  V30 4 1 4 5
M  V30 5 1 5 6
M  V30 6 1 6 7
M  V30 7 1 7 8
M  V30 8 1 8 9
M  V30 9 2 9 10
M  V30 10 1 10 11
M  V30 11 2 11 12
M  V30 12 1 12 13
M  V30 13 1 13 14
M  V30 14 1 14 15
M  V30 15 2 15 16
M  V30 16 1 15 17
M  V30 17 1 17 18
M  V30 18 2 18 19
M  V30 19 1 19 20
M  V30 20 2 20 21
M  V30 21 1 21 22
M  V30 22 1 22 23
M  V30 23 1 23 24
M  V30 24 1 24 25
M  V30 25 2 25 26
M  V30 26 1 26 27
M  V30 27 2 27 28
M  V30 28 1 28 29
M  V30 29 2 29 30
M  V30 30 1 30 31
M  V30 31 1 31 32
M  V30 32 2 31 33
M  V30 33 1 30 34
M  V30 34 2 34 35
M  V30 35 1 35 36
M  V30 36 2 36 37
M  V30 37 2 22 38
M  V30 38 2 13 39
M  V30 39 1 5 40
M  V30 40 1 40 41
M  V30 41 1 41 2
M  V30 42 1 39 9
M  V30 43 1 38 18
M  V30 44 1 37 25
M  V30 45 1 37 29
M  V30 46 1 1 42
M  V30 47 1 1 43
M  V30 48 1 1 44
M  V30 49 1 3 45
M  V30 50 1 3 46
M  V30 51 1 4 47
M  V30 52 1 4 48
M  V30 53 1 6 49
M  V30 54 1 6 50
M  V30 55 1 7 51
M  V30 56 1 7 52
M  V30 57 1 10 53
M  V30 58 1 11 54
M  V30 59 1 12 55
M  V30 60 1 14 56
M  V30 61 1 17 57
M  V30 62 1 19 58
M  V30 63 1 20 59
M  V30 64 1 21 60
M  V30 65 1 23 61
M  V30 66 1 23 62
M  V30 67 1 24 63
M  V30 68 1 27 64
M  V30 69 1 32 65
M  V30 70 1 32 66
M  V30 71 1 34 67
M  V30 72 1 35 68
M  V30 73 1 36 69
M  V30 74 1 38 70
M  V30 75 1 39 71
M  V30 76 1 40 72
M  V30 77 1 40 73
M  V30 78 1 41 74
M  V30 79 1 41 75
M  V30 END BOND
M  V30 END CTAB
M  END
>  <Dataset>  (916) 
ChEMBL_Kinases

>  <Ligand_Instance>  (916) 
nan

>  <PDB_ID>  (916) 
nan

>  <Standardized_SMILES>  (916) 
CN1CCN(CCOc2cccc(NC(=O)Nc3cccc(CNc4ncnc5c(C(N)=O)cccc45)c3)c2)CC1

>  <Name>  (916) 
nan

>  <Pocket>  (916) 
nan

>  <ATP_Site>  (916) 
nan

>  <Peripheral>  (916) 
nan

>  <Num_H_Atoms_ProtBoundConf>  (916) 
nan

>  <Num_Resolved_Atoms>  (916) 
nan

>  <Num_Not_Resolved_Atoms>  (916) 
nan

$$$$
CHEMBL3680525
     RDKit          3D

  0  0  0  0  0  0  0  0  0  0999 V3000
M  V30 BEGIN CTAB
M  V30 COUNTS 71 75 0 0 0
M  V30 BEGIN ATOM
M  V30 1 N 2.722055 -2.201321 4.147045 0
M  V30 2 C 4.023862 -1.656383 4.297213 0
M  V30 3 O 4.634775 -1.811004 5.398388 0
M  V30 4 C 4.673164 -0.925900 3.219240 0
M  V30 5 C 5.941052 -0.418253 3.422012 0
M  V30 6 C 6.507756 0.267094 2.363925 0
M  V30 7 C 5.820272 0.418123 1.185971 0
M  V30 8 C 4.570802 -0.073185 0.963380 0
M  V30 9 C 3.920661 0.104918 -0.237241 0
M  V30 10 N 4.502452 0.807125 -1.326909 0
M  V30 11 C 3.893344 1.038937 -2.609516 0
M  V30 12 C 2.651882 1.828104 -2.574770 0
M  V30 13 C 2.844944 3.198537 -2.587808 0
M  V30 14 C 1.746299 4.015768 -2.567816 0
M  V30 15 C 0.481755 3.498624 -2.535663 0
M  V30 16 C 0.232138 2.147034 -2.521734 0
M  V30 17 N -1.088286 1.684296 -2.486360 0
M  V30 18 C -1.613143 0.374008 -2.475042 0
M  V30 19 O -0.824425 -0.580585 -2.501737 0
M  V30 20 N -2.989082 0.033833 -2.435143 0
M  V30 21 C -3.190543 -1.374739 -2.435640 0
M  V30 22 C -3.349777 -2.191524 -3.531338 0
M  V30 23 C -3.539082 -3.552662 -3.422738 0
M  V30 24 C -3.568998 -4.117442 -2.136118 0
M  V30 25 C -3.411590 -3.329869 -0.977114 0
M  V30 26 O -3.493397 -4.187887 0.035131 0
M  V30 27 C -3.453396 -4.247375 1.383371 0
M  V30 28 C -4.471995 -3.502254 2.181261 0
M  V30 29 N -4.442744 -2.087540 2.000977 0
M  V30 30 C -5.531280 -1.437972 2.738435 0
M  V30 31 C -5.515612 0.015936 2.400281 0
M  V30 32 O -4.290231 0.514569 2.002270 0
M  V30 33 C -3.224451 -0.071059 2.665390 0
M  V30 34 C -3.175417 -1.552863 2.520746 0
M  V30 35 C -3.230596 -1.994111 -1.212108 0
M  V30 36 C 1.357776 1.363924 -2.542724 0
M  V30 37 N 2.695763 -0.431529 -0.316294 0
M  V30 38 C 2.150738 -1.092274 0.705228 0
M  V30 39 N 2.772624 -1.277484 1.891070 0
M  V30 40 C 4.019187 -0.753083 2.025362 0
M  V30 41 H 2.230706 -3.059065 3.794827 0
M  V30 42 H 1.733315 -1.958839 4.330737 0
M  V30 43 H 6.418892 -0.578231 4.377878 0
M  V30 44 H 7.501981 0.654742 2.548815 0
M  V30 45 H 6.371126 0.965740 0.454651 0
M  V30 46 H 5.458140 1.208352 -1.226165 0
M  V30 47 H 4.650429 1.456024 -3.301147 0
M  V30 48 H 3.688824 0.008684 -3.037479 0
M  V30 49 H 3.833537 3.669746 -2.613367 0
M  V30 50 H 1.850857 5.089198 -2.576875 0
M  V30 51 H -0.370477 4.196482 -2.520113 0
M  V30 52 H -1.866635 2.397201 -2.463005 0
M  V30 53 H -3.684937 0.836781 -2.410175 0
M  V30 54 H -3.312356 -1.669320 -4.484846 0
M  V30 55 H -3.645717 -4.039232 -4.380120 0
M  V30 56 H -3.727884 -5.194570 -2.282907 0
M  V30 57 H -3.557160 -5.334099 1.736646 0
M  V30 58 H -2.441821 -3.944570 1.808013 0
M  V30 59 H -4.203995 -3.682721 3.263846 0
M  V30 60 H -5.494256 -3.902973 2.021400 0
M  V30 61 H -6.466689 -1.875116 2.344670 0
M  V30 62 H -5.399386 -1.603691 3.809884 0
M  V30 63 H -6.304491 0.268520 1.672659 0
M  V30 64 H -5.794290 0.569136 3.339707 0
M  V30 65 H -3.202606 0.204238 3.720220 0
M  V30 66 H -2.296138 0.323976 2.157086 0
M  V30 67 H -3.047749 -2.016605 3.516470 0
M  V30 68 H -2.342809 -1.918932 1.892552 0
M  V30 69 H -3.112572 -1.448505 -0.318553 0
M  V30 70 H 1.265999 0.291705 -2.544050 0
M  V30 71 H 1.146178 -1.486020 0.525456 0
M  V30 END ATOM
M  V30 BEGIN BOND
M  V30 1 1 1 2
M  V30 2 2 2 3
M  V30 3 1 2 4
M  V30 4 2 4 5
M  V30 5 1 5 6
M  V30 6 2 6 7
M  V30 7 1 7 8
M  V30 8 2 8 9
M  V30 9 1 9 10
M  V30 10 1 10 11
M  V30 11 1 11 12
M  V30 12 2 12 13
M  V30 13 1 13 14
M  V30 14 2 14 15
M  V30 15 1 15 16
M  V30 16 1 16 17
M  V30 17 1 17 18
M  V30 18 2 18 19
M  V30 19 1 18 20
M  V30 20 1 20 21
M  V30 21 2 21 22
M  V30 22 1 22 23
M  V30 23 2 23 24
M  V30 24 1 24 25
M  V30 25 1 25 26
M  V30 26 1 26 27
M  V30 27 1 27 28
M  V30 28 1 28 29
M  V30 29 1 29 30
M  V30 30 1 30 31
M  V30 31 1 31 32
M  V30 32 1 32 33
M  V30 33 1 33 34
M  V30 34 2 25 35
M  V30 35 2 16 36
M  V30 36 1 9 37
M  V30 37 2 37 38
M  V30 38 1 38 39
M  V30 39 2 39 40
M  V30 40 1 40 4
M  V30 41 1 40 8
M  V30 42 1 36 12
M  V30 43 1 35 21
M  V30 44 1 34 29
M  V30 45 1 1 41
M  V30 46 1 1 42
M  V30 47 1 5 43
M  V30 48 1 6 44
M  V30 49 1 7 45
M  V30 50 1 10 46
M  V30 51 1 11 47
M  V30 52 1 11 48
M  V30 53 1 13 49
M  V30 54 1 14 50
M  V30 55 1 15 51
M  V30 56 1 17 52
M  V30 57 1 20 53
M  V30 58 1 22 54
M  V30 59 1 23 55
M  V30 60 1 24 56
M  V30 61 1 27 57
M  V30 62 1 27 58
M  V30 63 1 28 59
M  V30 64 1 28 60
M  V30 65 1 30 61
M  V30 66 1 30 62
M  V30 67 1 31 63
M  V30 68 1 31 64
M  V30 69 1 33 65
M  V30 70 1 33 66
M  V30 71 1 34 67
M  V30 72 1 34 68
M  V30 73 1 35 69
M  V30 74 1 36 70
M  V30 75 1 38 71
M  V30 END BOND
M  V30 END CTAB
M  END
>  <Dataset>  (917) 
ChEMBL_Kinases

>  <Ligand_Instance>  (917) 
nan

>  <PDB_ID>  (917) 
nan

>  <Standardized_SMILES>  (917) 
NC(=O)c1cccc2c(NCc3cccc(NC(=O)Nc4cccc(OCCN5CCOCC5)c4)c3)ncnc12

>  <Name>  (917) 
nan

>  <Pocket>  (917) 
nan

>  <ATP_Site>  (917) 
nan

>  <Peripheral>  (917) 
nan

>  <Num_H_Atoms_ProtBoundConf>  (917) 
nan

>  <Num_Resolved_Atoms>  (917) 
nan

>  <Num_Not_Resolved_Atoms>  (917) 
nan

$$$$
CHEMBL3680524
     RDKit          3D

  0  0  0  0  0  0  0  0  0  0999 V3000
M  V30 BEGIN CTAB
M  V30 COUNTS 54 56 0 0 0
M  V30 BEGIN ATOM
M  V30 1 C 3.553503 -4.499155 1.662181 0
M  V30 2 O 4.384825 -3.367740 1.545145 0
M  V30 3 C 3.893189 -2.104421 1.248970 0
M  V30 4 C 4.868489 -1.132293 1.178661 0
M  V30 5 C 4.467026 0.165337 0.886280 0
M  V30 6 C 5.460004 1.229725 0.800767 0
M  V30 7 N 5.068544 2.551014 0.501154 0
M  V30 8 O 6.683786 0.973132 0.995581 0
M  V30 9 C 3.152025 0.429366 0.683092 0
M  V30 10 N 2.802079 1.712974 0.399707 0
M  V30 11 C 1.486120 1.979837 0.195981 0
M  V30 12 N 0.532369 1.039513 0.262733 0
M  V30 13 C 0.807039 -0.222061 0.533099 0
M  V30 14 N -0.190909 -1.235405 0.626182 0
M  V30 15 C -1.610458 -0.956396 0.397740 0
M  V30 16 C -2.074588 0.226613 1.196654 0
M  V30 17 N -1.865886 -0.063715 2.597461 0
M  V30 18 C -2.299552 1.050452 3.434587 0
M  V30 19 C -2.582132 -1.228133 3.025842 0
M  V30 20 C -1.992682 -0.942665 -1.024496 0
M  V30 21 C -1.229840 -0.633432 -2.124556 0
M  V30 22 C -1.640099 -0.650447 -3.434579 0
M  V30 23 C -2.931015 -1.006117 -3.712116 0
M  V30 24 C -3.765995 -1.332308 -2.667047 0
M  V30 25 C -3.309450 -1.301062 -1.363655 0
M  V30 26 O -4.173967 -1.635056 -0.328951 0
M  V30 27 C -5.504585 -2.002182 -0.608003 0
M  V30 28 C 2.143949 -0.499822 0.741449 0
M  V30 29 C 2.571369 -1.776138 1.032948 0
M  V30 30 H 2.673573 -4.491086 1.006813 0
M  V30 31 H 3.152619 -4.635986 2.702180 0
M  V30 32 H 4.151066 -5.409481 1.420930 0
M  V30 33 H 5.921477 -1.319007 1.336738 0
M  V30 34 H 4.978926 3.370973 1.168932 0
M  V30 35 H 4.813116 2.879524 -0.452113 0
M  V30 36 H 1.217887 3.007611 -0.030079 0
M  V30 37 H 0.003577 -2.222190 0.854761 0
M  V30 38 H -2.233725 -1.805425 0.839874 0
M  V30 39 H -1.730265 1.198390 0.882274 0
M  V30 40 H -3.195986 0.235174 1.069453 0
M  V30 41 H -2.025402 2.029361 3.023162 0
M  V30 42 H -1.848314 0.873413 4.431437 0
M  V30 43 H -3.403524 0.921559 3.580073 0
M  V30 44 H -3.521553 -1.398556 2.476426 0
M  V30 45 H -2.842091 -1.194995 4.108158 0
M  V30 46 H -1.877313 -2.106558 2.936962 0
M  V30 47 H -0.212046 -0.357846 -1.954661 0
M  V30 48 H -0.957950 -0.388370 -4.229466 0
M  V30 49 H -3.319002 -1.040708 -4.717860 0
M  V30 50 H -4.782659 -1.611504 -2.905672 0
M  V30 51 H -5.601010 -3.028576 -0.980267 0
M  V30 52 H -5.950757 -1.234512 -1.278884 0
M  V30 53 H -6.130915 -1.955654 0.323232 0
M  V30 54 H 1.908072 -2.608419 1.113481 0
M  V30 END ATOM
M  V30 BEGIN BOND
M  V30 1 1 1 2
M  V30 2 1 2 3
M  V30 3 2 3 4
M  V30 4 1 4 5
M  V30 5 1 5 6
M  V30 6 1 6 7
M  V30 7 2 6 8
M  V30 8 2 5 9
M  V30 9 1 9 10
M  V30 10 2 10 11
M  V30 11 1 11 12
M  V30 12 2 12 13
M  V30 13 1 13 14
M  V30 14 1 14 15
M  V30 15 1 15 16
M  V30 16 1 16 17
M  V30 17 1 17 18
M  V30 18 1 17 19
M  V30 19 1 15 20
M  V30 20 2 20 21
M  V30 21 1 21 22
M  V30 22 2 22 23
M  V30 23 1 23 24
M  V30 24 2 24 25
M  V30 25 1 25 26
M  V30 26 1 26 27
M  V30 27 1 13 28
M  V30 28 2 28 29
M  V30 29 1 29 3
M  V30 30 1 28 9
M  V30 31 1 25 20
M  V30 32 1 1 30
M  V30 33 1 1 31
M  V30 34 1 1 32
M  V30 35 1 4 33
M  V30 36 1 7 34
M  V30 37 1 7 35
M  V30 38 1 11 36
M  V30 39 1 14 37
M  V30 40 1 15 38
M  V30 41 1 16 39
M  V30 42 1 16 40
M  V30 43 1 18 41
M  V30 44 1 18 42
M  V30 45 1 18 43
M  V30 46 1 19 44
M  V30 47 1 19 45
M  V30 48 1 19 46
M  V30 49 1 21 47
M  V30 50 1 22 48
M  V30 51 1 23 49
M  V30 52 1 24 50
M  V30 53 1 27 51
M  V30 54 1 27 52
M  V30 55 1 27 53
M  V30 56 1 29 54
M  V30 END BOND
M  V30 END CTAB
M  END
>  <Dataset>  (918) 
ChEMBL_Kinases

>  <Ligand_Instance>  (918) 
nan

>  <PDB_ID>  (918) 
nan

>  <Standardized_SMILES>  (918) 
COc1cc(C(N)=O)c2ncnc(NC(CN(C)C)c3ccccc3OC)c2c1

>  <Name>  (918) 
nan

>  <Pocket>  (918) 
nan

>  <ATP_Site>  (918) 
nan

>  <Peripheral>  (918) 
nan

>  <Num_H_Atoms_ProtBoundConf>  (918) 
nan

>  <Num_Resolved_Atoms>  (918) 
nan

>  <Num_Not_Resolved_Atoms>  (918) 
nan

$$$$
CHEMBL214849
     RDKit          3D

  0  0  0  0  0  0  0  0  0  0999 V3000
M  V30 BEGIN CTAB
M  V30 COUNTS 74 77 0 0 0
M  V30 BEGIN ATOM
M  V30 1 C 0.469206 -3.940783 2.225458 0
M  V30 2 C 0.342813 -3.137438 0.938580 0
M  V30 3 C 1.243980 -3.428269 -0.141318 0
M  V30 4 N 2.642928 -3.258449 -0.243985 0
M  V30 5 C 3.561477 -3.929006 0.463917 0
M  V30 6 C 3.481511 -5.472089 0.250653 0
M  V30 7 O 3.676162 -5.749025 -1.077885 0
M  V30 8 C 3.006169 -1.966507 -0.702248 0
M  V30 9 C 2.893558 -0.833444 0.139906 0
M  V30 10 C 3.908122 -0.429336 1.224494 0
M  V30 11 O 3.128194 0.448530 1.971824 0
M  V30 12 C 2.480106 1.567759 1.879956 0
M  V30 13 C 2.082466 2.805159 1.402990 0
M  V30 14 C 0.927789 3.484681 1.873920 0
M  V30 15 N 0.540273 4.524490 1.276120 0
M  V30 16 C -0.652212 5.200232 1.468378 0
M  V30 17 N -1.291283 4.477501 2.445249 0
M  V30 18 C -0.941541 3.419313 3.069810 0
M  V30 19 N -2.056988 2.572394 3.684885 0
M  V30 20 C -2.409115 1.977081 2.377425 0
M  V30 21 C -1.821895 0.885371 1.735831 0
M  V30 22 C -2.308873 0.859583 0.405580 0
M  V30 23 C -1.983270 0.164206 -0.813945 0
M  V30 24 C -2.889248 -0.733527 -1.463995 0
M  V30 25 O -3.275032 -1.877053 -1.165655 0
M  V30 26 N -3.488782 -0.312996 -2.691959 0
M  V30 27 C -4.327349 -0.580132 -3.812830 0
M  V30 28 C -3.679449 -0.614396 -5.112965 0
M  V30 29 C -4.401039 -0.893885 -6.202966 0
M  V30 30 C -5.724445 -1.119856 -6.058431 0
M  V30 31 C -6.398264 -1.099584 -4.846597 0
M  V30 32 F -7.719570 -1.324960 -4.642132 0
M  V30 33 C -5.698812 -0.815420 -3.664768 0
M  V30 34 F -6.132570 -0.753430 -2.407782 0
M  V30 35 N -3.186952 1.932913 0.291743 0
M  V30 36 N -3.192723 2.532195 1.499652 0
M  V30 37 C 0.241804 2.805610 2.853346 0
M  V30 38 C 0.462745 1.620032 3.484780 0
M  V30 39 C 1.661958 0.987777 2.956565 0
M  V30 40 O 1.942656 -0.133124 3.542001 0
M  V30 41 C 2.222259 -1.258815 4.131850 0
M  V30 42 H -0.413160 -4.652572 2.258496 0
M  V30 43 H 1.352160 -4.556866 2.339884 0
M  V30 44 H 0.394487 -3.300179 3.127647 0
M  V30 45 H 0.144726 -2.065295 1.221463 0
M  V30 46 H -0.726119 -3.401445 0.523994 0
M  V30 47 H 0.806551 -2.756111 -1.029566 0
M  V30 48 H 0.935004 -4.427139 -0.633305 0
M  V30 49 H 3.619922 -3.754673 1.536978 0
M  V30 50 H 4.646813 -3.736719 0.108606 0
M  V30 51 H 4.311473 -5.942526 0.795885 0
M  V30 52 H 2.525132 -5.870907 0.644382 0
M  V30 53 H 3.010641 -5.240092 -1.677090 0
M  V30 54 H 3.861588 -1.981371 -1.391440 0
M  V30 55 H 2.098308 -1.814391 -1.537840 0
M  V30 56 H 1.861708 -0.737421 0.660383 0
M  V30 57 H 2.825220 0.103351 -0.511371 0
M  V30 58 H 4.810131 0.068539 0.846181 0
M  V30 59 H 4.178503 -1.285423 1.881254 0
M  V30 60 H 2.787452 3.099151 0.684124 0
M  V30 61 H -1.062354 6.060082 1.018419 0
M  V30 62 H -2.405791 2.473575 4.642777 0
M  V30 63 H -1.170453 0.069375 1.993916 0
M  V30 64 H -1.623586 0.918104 -1.566405 0
M  V30 65 H -0.984351 -0.412820 -0.651858 0
M  V30 66 H -3.242848 0.730846 -2.924743 0
M  V30 67 H -2.630984 -0.414110 -5.171687 0
M  V30 68 H -3.988304 -0.928662 -7.234705 0
M  V30 69 H -6.371500 -1.312910 -6.870808 0
M  V30 70 H -3.749165 2.269779 -0.568477 0
M  V30 71 H -0.232064 1.331066 4.236611 0
M  V30 72 H 3.329025 -1.269951 4.526137 0
M  V30 73 H 2.331733 -2.107998 3.355604 0
M  V30 74 H 1.669551 -1.572799 5.012569 0
M  V30 END ATOM
M  V30 BEGIN BOND
M  V30 1 1 1 2
M  V30 2 1 2 3
M  V30 3 1 3 4
M  V30 4 1 4 5
M  V30 5 1 5 6
M  V30 6 1 6 7
M  V30 7 1 4 8
M  V30 8 1 8 9
M  V30 9 1 9 10
M  V30 10 1 10 11
M  V30 11 1 11 12
M  V30 12 2 12 13
M  V30 13 1 13 14
M  V30 14 2 14 15
M  V30 15 1 15 16
M  V30 16 2 16 17
M  V30 17 1 17 18
M  V30 18 1 18 19
M  V30 19 1 19 20
M  V30 20 1 20 21
M  V30 21 2 21 22
M  V30 22 1 22 23
M  V30 23 1 23 24
M  V30 24 2 24 25
M  V30 25 1 24 26
M  V30 26 1 26 27
M  V30 27 2 27 28
M  V30 28 1 28 29
M  V30 29 2 29 30
M  V30 30 1 30 31
M  V30 31 1 31 32
M  V30 32 2 31 33
M  V30 33 1 33 34
M  V30 34 1 22 35
M  V30 35 1 35 36
M  V30 36 2 18 37
M  V30 37 1 37 38
M  V30 38 2 38 39
M  V30 39 1 39 40
M  V30 40 1 40 41
M  V30 41 1 39 12
M  V30 42 1 37 14
M  V30 43 2 36 20
M  V30 44 1 33 27
M  V30 45 1 1 42
M  V30 46 1 1 43
M  V30 47 1 1 44
M  V30 48 1 2 45
M  V30 49 1 2 46
M  V30 50 1 3 47
M  V30 51 1 3 48
M  V30 52 1 5 49
M  V30 53 1 5 50
M  V30 54 1 6 51
M  V30 55 1 6 52
M  V30 56 1 7 53
M  V30 57 1 8 54
M  V30 58 1 8 55
M  V30 59 1 9 56
M  V30 60 1 9 57
M  V30 61 1 10 58
M  V30 62 1 10 59
M  V30 63 1 13 60
M  V30 64 1 16 61
M  V30 65 1 19 62
M  V30 66 1 21 63
M  V30 67 1 23 64
M  V30 68 1 23 65
M  V30 69 1 26 66
M  V30 70 1 28 67
M  V30 71 1 29 68
M  V30 72 1 30 69
M  V30 73 1 35 70
M  V30 74 1 38 71
M  V30 75 1 41 72
M  V30 76 1 41 73
M  V30 77 1 41 74
M  V30 END BOND
M  V30 END CTAB
M  END
>  <Dataset>  (919) 
ChEMBL_Kinases

>  <Ligand_Instance>  (919) 
nan

>  <PDB_ID>  (919) 
nan

>  <Standardized_SMILES>  (919) 
CCCN(CCO)CCCOc1cc2ncnc(Nc3cc(CC(=O)Nc4cccc(F)c4F)[nH]n3)c2cc1OC

>  <Name>  (919) 
nan

>  <Pocket>  (919) 
nan

>  <ATP_Site>  (919) 
nan

>  <Peripheral>  (919) 
nan

>  <Num_H_Atoms_ProtBoundConf>  (919) 
nan

>  <Num_Resolved_Atoms>  (919) 
nan

>  <Num_Not_Resolved_Atoms>  (919) 
nan

$$$$
CHEMBL214848
     RDKit          3D

  0  0  0  0  0  0  0  0  0  0999 V3000
M  V30 BEGIN CTAB
M  V30 COUNTS 71 74 0 0 0
M  V30 BEGIN ATOM
M  V30 1 C -0.236324 -2.104842 -0.022249 0
M  V30 2 C -0.105422 -2.916501 -1.267126 0
M  V30 3 N 1.199224 -3.564441 -1.414808 0
M  V30 4 C 1.248059 -4.550026 -0.342389 0
M  V30 5 C 2.561847 -5.292072 -0.325793 0
M  V30 6 O 3.630945 -4.417630 -0.141210 0
M  V30 7 C 1.209759 -4.183747 -2.702432 0
M  V30 8 C 1.304788 -3.195711 -3.829047 0
M  V30 9 C 2.622310 -2.476016 -3.730763 0
M  V30 10 O 2.922392 -1.760551 -2.624300 0
M  V30 11 C 2.374677 -0.693224 -2.009378 0
M  V30 12 C 1.255478 0.021920 -2.373221 0
M  V30 13 C 0.745609 1.108049 -1.696508 0
M  V30 14 N -0.348126 1.780936 -2.079136 0
M  V30 15 C -0.801462 2.850601 -1.360631 0
M  V30 16 N -0.119895 3.226218 -0.239383 0
M  V30 17 C 0.991865 2.540885 0.148547 0
M  V30 18 N 1.533357 3.082149 1.343924 0
M  V30 19 C 0.791728 2.351008 2.348514 0
M  V30 20 C -0.469936 2.791856 2.783973 0
M  V30 21 C -0.943753 1.890250 3.751993 0
M  V30 22 C -2.280620 2.127583 4.375398 0
M  V30 23 C -3.255722 1.453446 3.462621 0
M  V30 24 O -2.239488 1.148174 2.802560 0
M  V30 25 N -4.650949 1.399801 3.610760 0
M  V30 26 C -5.510899 0.731745 2.682339 0
M  V30 27 C -5.821227 -0.579967 2.857631 0
M  V30 28 C -6.663690 -1.131138 1.897539 0
M  V30 29 C -7.152944 -0.374744 0.826654 0
M  V30 30 C -6.788479 0.969158 0.714122 0
M  V30 31 F -7.221974 1.765104 -0.295444 0
M  V30 32 C -5.939416 1.579860 1.655446 0
M  V30 33 F -5.589698 2.875508 1.545827 0
M  V30 34 N 0.032575 0.976249 3.849279 0
M  V30 35 N 1.045672 1.229954 3.041137 0
M  V30 36 C 1.455696 1.463709 -0.569540 0
M  V30 37 C 2.587416 0.831722 -0.101864 0
M  V30 38 C 3.022181 -0.244239 -0.845864 0
M  V30 39 O 4.139899 -0.914997 -0.442089 0
M  V30 40 C 4.953102 -0.672712 0.650841 0
M  V30 41 H -0.387856 -2.717860 0.898094 0
M  V30 42 H 0.564277 -1.382283 0.099712 0
M  V30 43 H -1.191090 -1.505729 -0.108404 0
M  V30 44 H -0.823160 -3.793655 -1.161387 0
M  V30 45 H -0.453134 -2.394381 -2.159821 0
M  V30 46 H 0.392540 -5.229981 -0.432948 0
M  V30 47 H 1.175944 -3.989049 0.607540 0
M  V30 48 H 2.753226 -5.929805 -1.182320 0
M  V30 49 H 2.537282 -5.912959 0.604897 0
M  V30 50 H 4.492865 -4.812473 -0.347979 0
M  V30 51 H 0.277908 -4.817602 -2.854659 0
M  V30 52 H 2.034979 -4.931472 -2.814977 0
M  V30 53 H 0.431817 -2.537627 -3.915800 0
M  V30 54 H 1.401138 -3.828027 -4.782867 0
M  V30 55 H 3.463374 -3.221983 -3.938848 0
M  V30 56 H 2.624443 -1.770708 -4.626991 0
M  V30 57 H 0.739026 -0.290458 -3.260958 0
M  V30 58 H -1.685079 3.374153 -1.689730 0
M  V30 59 H 2.205743 3.750837 1.731557 0
M  V30 60 H -0.974297 3.697317 2.406570 0
M  V30 61 H -2.285597 1.569048 5.348423 0
M  V30 62 H -2.479559 3.192879 4.529463 0
M  V30 63 H -5.040441 1.889920 4.469427 0
M  V30 64 H -5.452891 -1.177334 3.677994 0
M  V30 65 H -6.981401 -2.163268 1.927439 0
M  V30 66 H -7.807722 -0.808487 0.084560 0
M  V30 67 H -0.100006 0.193225 4.523489 0
M  V30 68 H 3.056362 1.193945 0.784576 0
M  V30 69 H 4.757247 -1.437933 1.445476 0
M  V30 70 H 4.860182 0.336584 1.057322 0
M  V30 71 H 6.042600 -0.797592 0.414821 0
M  V30 END ATOM
M  V30 BEGIN BOND
M  V30 1 1 1 2
M  V30 2 1 2 3
M  V30 3 1 3 4
M  V30 4 1 4 5
M  V30 5 1 5 6
M  V30 6 1 3 7
M  V30 7 1 7 8
M  V30 8 1 8 9
M  V30 9 1 9 10
M  V30 10 1 10 11
M  V30 11 2 11 12
M  V30 12 1 12 13
M  V30 13 2 13 14
M  V30 14 1 14 15
M  V30 15 2 15 16
M  V30 16 1 16 17
M  V30 17 1 17 18
M  V30 18 1 18 19
M  V30 19 1 19 20
M  V30 20 2 20 21
M  V30 21 1 21 22
M  V30 22 1 22 23
M  V30 23 2 23 24
M  V30 24 1 23 25
M  V30 25 1 25 26
M  V30 26 2 26 27
M  V30 27 1 27 28
M  V30 28 2 28 29
M  V30 29 1 29 30
M  V30 30 1 30 31
M  V30 31 2 30 32
M  V30 32 1 32 33
M  V30 33 1 21 34
M  V30 34 1 34 35
M  V30 35 2 17 36
M  V30 36 1 36 37
M  V30 37 2 37 38
M  V30 38 1 38 39
M  V30 39 1 39 40
M  V30 40 1 38 11
M  V30 41 1 36 13
M  V30 42 2 35 19
M  V30 43 1 32 26
M  V30 44 1 1 41
M  V30 45 1 1 42
M  V30 46 1 1 43
M  V30 47 1 2 44
M  V30 48 1 2 45
M  V30 49 1 4 46
M  V30 50 1 4 47
M  V30 51 1 5 48
M  V30 52 1 5 49
M  V30 53 1 6 50
M  V30 54 1 7 51
M  V30 55 1 7 52
M  V30 56 1 8 53
M  V30 57 1 8 54
M  V30 58 1 9 55
M  V30 59 1 9 56
M  V30 60 1 12 57
M  V30 61 1 15 58
M  V30 62 1 18 59
M  V30 63 1 20 60
M  V30 64 1 22 61
M  V30 65 1 22 62
M  V30 66 1 25 63
M  V30 67 1 27 64
M  V30 68 1 28 65
M  V30 69 1 29 66
M  V30 70 1 34 67
M  V30 71 1 37 68
M  V30 72 1 40 69
M  V30 73 1 40 70
M  V30 74 1 40 71
M  V30 END BOND
M  V30 END CTAB
M  END
>  <Dataset>  (920) 
ChEMBL_Kinases

>  <Ligand_Instance>  (920) 
nan

>  <PDB_ID>  (920) 
nan

>  <Standardized_SMILES>  (920) 
CCN(CCO)CCCOc1cc2ncnc(Nc3cc(CC(=O)Nc4cccc(F)c4F)[nH]n3)c2cc1OC

>  <Name>  (920) 
nan

>  <Pocket>  (920) 
nan

>  <ATP_Site>  (920) 
nan

>  <Peripheral>  (920) 
nan

>  <Num_H_Atoms_ProtBoundConf>  (920) 
nan

>  <Num_Resolved_Atoms>  (920) 
nan

>  <Num_Not_Resolved_Atoms>  (920) 
nan

$$$$
CHEMBL3701737
     RDKit          3D

  0  0  0  0  0  0  0  0  0  0999 V3000
M  V30 BEGIN CTAB
M  V30 COUNTS 61 67 0 0 0
M  V30 BEGIN ATOM
M  V30 1 N 0.054745 -2.346309 5.102499 0
M  V30 2 C -0.954227 -1.541462 4.438797 0
M  V30 3 C -0.538623 -1.242382 3.049291 0
M  V30 4 C -0.582196 -0.034709 2.367790 0
M  V30 5 C -0.138020 0.028621 1.063837 0
M  V30 6 C 0.357968 -1.055928 0.377893 0
M  V30 7 C 0.818285 -0.948076 -1.003354 0
M  V30 8 N 0.154563 -1.701731 -1.930100 0
M  V30 9 C 0.725308 -1.469540 -3.149459 0
M  V30 10 N 1.719550 -0.584915 -2.945932 0
M  V30 11 C 1.814362 -0.237223 -1.650214 0
M  V30 12 C 2.674218 0.645560 -0.909568 0
M  V30 13 C 2.578324 1.962320 -1.341582 0
M  V30 14 C 3.326829 2.975761 -0.756548 0
M  V30 15 C 4.199969 2.686991 0.288911 0
M  V30 16 C 4.272292 1.372252 0.694205 0
M  V30 17 C 3.540844 0.361133 0.127667 0
M  V30 18 C 2.554776 -0.096485 -4.010559 0
M  V30 19 O 2.255026 -0.608930 -5.271711 0
M  V30 20 C 1.250421 -1.521173 -5.564886 0
M  V30 21 C 0.982902 -2.008210 -6.828065 0
M  V30 22 C -0.045539 -2.915221 -6.996428 0
M  V30 23 C -0.836737 -3.372841 -5.959631 0
M  V30 24 C -0.554850 -2.872030 -4.689172 0
M  V30 25 Cl -1.541184 -3.429428 -3.329814 0
M  V30 26 C 0.470075 -1.965543 -4.508685 0
M  V30 27 C 0.399878 -2.274056 1.070930 0
M  V30 28 C -0.040609 -2.357596 2.377976 0
M  V30 29 C -1.484785 -0.431891 5.267075 0
M  V30 30 C -2.875861 -1.025900 5.154124 0
M  V30 31 O -3.429892 -1.242792 6.428973 0
M  V30 32 C -3.840390 -0.235114 4.333834 0
M  V30 33 C -5.238996 -0.749483 4.175986 0
M  V30 34 C -4.278816 -0.590642 2.985340 0
M  V30 35 C -2.290677 -2.260097 4.543261 0
M  V30 36 H -0.239039 -3.354044 5.179101 0
M  V30 37 H 1.012571 -2.191695 4.771190 0
M  V30 38 H -0.971679 0.765479 2.941160 0
M  V30 39 H -0.192388 0.984145 0.580386 0
M  V30 40 H 1.944399 2.363108 -2.147820 0
M  V30 41 H 3.301790 4.015413 -1.040785 0
M  V30 42 H 4.790170 3.454002 0.757961 0
M  V30 43 H 4.945863 1.109551 1.510421 0
M  V30 44 H 3.558421 -0.677676 0.403382 0
M  V30 45 H 2.446382 1.016955 -4.074955 0
M  V30 46 H 3.655052 -0.240903 -3.805362 0
M  V30 47 H 1.609610 -1.641108 -7.627136 0
M  V30 48 H -0.202553 -3.256269 -8.006488 0
M  V30 49 H -1.640197 -4.086361 -6.113919 0
M  V30 50 H 0.793245 -3.132197 0.525194 0
M  V30 51 H 0.042724 -3.365829 2.813201 0
M  V30 52 H -1.416922 0.595609 4.920006 0
M  V30 53 H -1.084368 -0.496541 6.321819 0
M  V30 54 H -3.961668 -0.488572 6.734634 0
M  V30 55 H -3.774540 0.872017 4.531644 0
M  V30 56 H -5.516299 -1.782255 4.430644 0
M  V30 57 H -6.073138 -0.031486 4.250462 0
M  V30 58 H -4.546316 0.212223 2.258617 0
M  V30 59 H -4.013792 -1.525794 2.467770 0
M  V30 60 H -2.666755 -2.582873 3.567104 0
M  V30 61 H -2.307327 -3.108448 5.284515 0
M  V30 END ATOM
M  V30 BEGIN BOND
M  V30 1 1 1 2
M  V30 2 1 2 3
M  V30 3 2 3 4
M  V30 4 1 4 5
M  V30 5 2 5 6
M  V30 6 1 6 7
M  V30 7 1 7 8
M  V30 8 2 8 9
M  V30 9 1 9 10
M  V30 10 1 10 11
M  V30 11 1 11 12
M  V30 12 2 12 13
M  V30 13 1 13 14
M  V30 14 2 14 15
M  V30 15 1 15 16
M  V30 16 2 16 17
M  V30 17 1 10 18
M  V30 18 1 18 19
M  V30 19 1 19 20
M  V30 20 2 20 21
M  V30 21 1 21 22
M  V30 22 2 22 23
M  V30 23 1 23 24
M  V30 24 1 24 25
M  V30 25 2 24 26
M  V30 26 1 6 27
M  V30 27 2 27 28
M  V30 28 1 2 29
M  V30 29 1 29 30
M  V30 30 1 30 31
M  V30 31 1 30 32
M  V30 32 1 32 33
M  V30 33 1 33 34
M  V30 34 1 30 35
M  V30 35 1 35 2
M  V30 36 1 28 3
M  V30 37 1 34 32
M  V30 38 2 11 7
M  V30 39 1 17 12
M  V30 40 1 26 20
M  V30 41 1 26 9
M  V30 42 1 1 36
M  V30 43 1 1 37
M  V30 44 1 4 38
M  V30 45 1 5 39
M  V30 46 1 13 40
M  V30 47 1 14 41
M  V30 48 1 15 42
M  V30 49 1 16 43
M  V30 50 1 17 44
M  V30 51 1 18 45
M  V30 52 1 18 46
M  V30 53 1 21 47
M  V30 54 1 22 48
M  V30 55 1 23 49
M  V30 56 1 27 50
M  V30 57 1 28 51
M  V30 58 1 29 52
M  V30 59 1 29 53
M  V30 60 1 31 54
M  V30 61 1 32 55
M  V30 62 1 33 56
M  V30 63 1 33 57
M  V30 64 1 34 58
M  V30 65 1 34 59
M  V30 66 1 35 60
M  V30 67 1 35 61
M  V30 END BOND
M  V30 END CTAB
M  END
>  <Dataset>  (921) 
ChEMBL_Kinases

>  <Ligand_Instance>  (921) 
nan

>  <PDB_ID>  (921) 
nan

>  <Standardized_SMILES>  (921) 
NC1(c2ccc(-c3nc4n(c3-c3ccccc3)COc3cccc(Cl)c3-4)cc2)CC(O)(C2CC2)C1

>  <Name>  (921) 
nan

>  <Pocket>  (921) 
nan

>  <ATP_Site>  (921) 
nan

>  <Peripheral>  (921) 
nan

>  <Num_H_Atoms_ProtBoundConf>  (921) 
nan

>  <Num_Resolved_Atoms>  (921) 
nan

>  <Num_Not_Resolved_Atoms>  (921) 
nan

$$$$
CHEMBL2147845
     RDKit          3D

  0  0  0  0  0  0  0  0  0  0999 V3000
M  V30 BEGIN CTAB
M  V30 COUNTS 51 55 0 0 0
M  V30 BEGIN ATOM
M  V30 1 C 0.933042 1.376726 5.702981 0
M  V30 2 O 0.389865 1.065619 4.436947 0
M  V30 3 C 0.405645 -0.229997 3.950068 0
M  V30 4 C 0.964673 -1.270659 4.702276 0
M  V30 5 C 0.979649 -2.560572 4.216103 0
M  V30 6 C 0.449918 -2.871975 2.980968 0
M  V30 7 C -0.099015 -1.818085 2.255218 0
M  V30 8 C -0.141690 -0.509199 2.692087 0
M  V30 9 C -0.719980 0.619289 1.926864 0
M  V30 10 N 0.270920 1.447190 1.324519 0
M  V30 11 C 1.156888 0.749804 0.398234 0
M  V30 12 C 1.985458 1.761182 -0.372667 0
M  V30 13 N 1.937879 3.073924 0.229466 0
M  V30 14 C 0.628677 3.605519 0.424166 0
M  V30 15 C -0.387964 2.461609 0.489093 0
M  V30 16 O -0.597462 -2.249458 1.038448 0
M  V30 17 C -0.402178 -3.615411 0.898422 0
M  V30 18 C -0.690476 -4.478601 -0.056469 0
M  V30 19 C -1.349097 -4.070409 -1.286997 0
M  V30 20 N -2.404466 -4.656012 -1.871463 0
M  V30 21 N -2.761587 -4.069645 -2.990282 0
M  V30 22 C -1.914323 -3.017735 -3.205334 0
M  V30 23 C -1.846975 -2.091013 -4.228469 0
M  V30 24 C -0.850342 -1.142338 -4.160993 0
M  V30 25 C 0.067557 -1.102016 -3.106169 0
M  V30 26 C -0.051761 -2.056310 -2.111857 0
M  V30 27 C -1.032476 -3.031101 -2.127552 0
M  V30 28 C 0.271030 -4.049364 2.133439 0
M  V30 29 O 0.651409 -5.203477 2.464304 0
M  V30 30 H 0.584685 2.398302 6.026184 0
M  V30 31 H 2.042202 1.446550 5.707587 0
M  V30 32 H 0.588273 0.656265 6.489401 0
M  V30 33 H 1.394737 -1.078413 5.680264 0
M  V30 34 H 1.400972 -3.395627 4.761824 0
M  V30 35 H -1.450527 0.267552 1.203228 0
M  V30 36 H -1.240761 1.252929 2.704196 0
M  V30 37 H 1.797909 0.079109 1.002991 0
M  V30 38 H 0.586189 0.162216 -0.353879 0
M  V30 39 H 3.041422 1.418524 -0.320506 0
M  V30 40 H 1.710139 1.816092 -1.437045 0
M  V30 41 H 2.558737 3.155750 1.063276 0
M  V30 42 H 0.589186 4.044757 1.464327 0
M  V30 43 H 0.378074 4.352773 -0.351103 0
M  V30 44 H -1.336783 2.810823 0.897350 0
M  V30 45 H -0.531542 2.047818 -0.544981 0
M  V30 46 H -0.462191 -5.533642 0.000841 0
M  V30 47 H -3.530157 -4.279978 -3.668078 0
M  V30 48 H -2.533603 -2.079374 -5.066310 0
M  V30 49 H -0.709595 -0.363761 -4.917275 0
M  V30 50 H 0.861885 -0.348738 -3.050039 0
M  V30 51 H 0.665635 -2.024120 -1.312941 0
M  V30 END ATOM
M  V30 BEGIN BOND
M  V30 1 1 1 2
M  V30 2 1 2 3
M  V30 3 2 3 4
M  V30 4 1 4 5
M  V30 5 2 5 6
M  V30 6 1 6 7
M  V30 7 2 7 8
M  V30 8 1 8 9
M  V30 9 1 9 10
M  V30 10 1 10 11
M  V30 11 1 11 12
M  V30 12 1 12 13
M  V30 13 1 13 14
M  V30 14 1 14 15
M  V30 15 1 7 16
M  V30 16 1 16 17
M  V30 17 2 17 18
M  V30 18 1 18 19
M  V30 19 2 19 20
M  V30 20 1 20 21
M  V30 21 1 21 22
M  V30 22 2 22 23
M  V30 23 1 23 24
M  V30 24 2 24 25
M  V30 25 1 25 26
M  V30 26 2 26 27
M  V30 27 1 17 28
M  V30 28 2 28 29
M  V30 29 1 8 3
M  V30 30 1 15 10
M  V30 31 1 27 19
M  V30 32 1 28 6
M  V30 33 1 27 22
M  V30 34 1 1 30
M  V30 35 1 1 31
M  V30 36 1 1 32
M  V30 37 1 4 33
M  V30 38 1 5 34
M  V30 39 1 9 35
M  V30 40 1 9 36
M  V30 41 1 11 37
M  V30 42 1 11 38
M  V30 43 1 12 39
M  V30 44 1 12 40
M  V30 45 1 13 41
M  V30 46 1 14 42
M  V30 47 1 14 43
M  V30 48 1 15 44
M  V30 49 1 15 45
M  V30 50 1 18 46
M  V30 51 1 21 47
M  V30 52 1 23 48
M  V30 53 1 24 49
M  V30 54 1 25 50
M  V30 55 1 26 51
M  V30 END BOND
M  V30 END CTAB
M  END
>  <Dataset>  (922) 
ChEMBL_Kinases

>  <Ligand_Instance>  (922) 
nan

>  <PDB_ID>  (922) 
nan

>  <Standardized_SMILES>  (922) 
COc1ccc2c(c1CN1CCNCC1)O/C(=C\c1n[nH]c3ccccc13)C2=O

>  <Name>  (922) 
nan

>  <Pocket>  (922) 
nan

>  <ATP_Site>  (922) 
nan

>  <Peripheral>  (922) 
nan

>  <Num_H_Atoms_ProtBoundConf>  (922) 
nan

>  <Num_Resolved_Atoms>  (922) 
nan

>  <Num_Not_Resolved_Atoms>  (922) 
nan

$$$$
CHEMBL3680520
     RDKit          3D

  0  0  0  0  0  0  0  0  0  0999 V3000
M  V30 BEGIN CTAB
M  V30 COUNTS 63 66 0 0 0
M  V30 BEGIN ATOM
M  V30 1 C 3.049762 -0.821893 5.674065 0
M  V30 2 O 3.184120 -2.056484 5.167789 0
M  V30 3 C 2.784776 -2.480298 3.982469 0
M  V30 4 C 1.359713 -2.449446 3.628211 0
M  V30 5 C 0.628178 -1.160155 3.538639 0
M  V30 6 N 1.224082 -0.249120 2.555808 0
M  V30 7 C 0.629118 1.026568 2.360946 0
M  V30 8 N -0.457602 1.378030 3.069935 0
M  V30 9 C -1.067128 2.566929 2.933772 0
M  V30 10 N -0.622403 3.493639 2.067392 0
M  V30 11 C 0.454027 3.210241 1.330290 0
M  V30 12 C 0.961019 4.113842 0.424992 0
M  V30 13 C 0.307892 5.406933 0.268775 0
M  V30 14 N 0.797645 6.370795 -0.655677 0
M  V30 15 O -0.711201 5.618463 0.998014 0
M  V30 16 C 2.082482 3.833264 -0.350760 0
M  V30 17 C 2.694867 2.602732 -0.194559 0
M  V30 18 C 2.171332 1.710763 0.718155 0
M  V30 19 C 1.076660 1.983473 1.476019 0
M  V30 20 C -0.754182 -1.565668 2.978233 0
M  V30 21 C -1.891236 -1.587013 3.759931 0
M  V30 22 C -3.079904 -1.957712 3.191001 0
M  V30 23 C -3.128165 -2.303315 1.852675 0
M  V30 24 C -2.001359 -2.288660 1.052148 0
M  V30 25 N -2.018629 -2.633536 -0.306693 0
M  V30 26 C -1.852293 -3.821966 -1.069485 0
M  V30 27 O -1.629202 -4.868433 -0.407758 0
M  V30 28 C -1.951751 -3.732259 -2.523954 0
M  V30 29 C -2.193948 -2.611781 -3.293150 0
M  V30 30 C -2.255144 -2.710934 -4.668130 0
M  V30 31 C -2.079995 -3.918543 -5.339401 0
M  V30 32 O -2.153112 -3.954391 -6.727140 0
M  V30 33 C -2.406948 -2.752622 -7.448981 0
M  V30 34 C -1.834294 -5.054387 -4.556631 0
M  V30 35 F -1.671529 -6.193833 -5.233573 0
M  V30 36 C -1.774419 -4.947315 -3.180079 0
M  V30 37 C -0.795776 -1.914009 1.623956 0
M  V30 38 H 3.604322 -0.818932 6.679312 0
M  V30 39 H 1.966731 -0.610761 5.940864 0
M  V30 40 H 3.412038 0.007922 5.049158 0
M  V30 41 H 3.128317 -3.586811 3.911398 0
M  V30 42 H 3.416618 -2.046967 3.121183 0
M  V30 43 H 1.240631 -2.958059 2.606064 0
M  V30 44 H 0.736587 -3.097579 4.329308 0
M  V30 45 H 0.419562 -0.662255 4.458561 0
M  V30 46 H 2.060523 -0.620631 2.064464 0
M  V30 47 H -1.937643 2.779421 3.538978 0
M  V30 48 H 0.493662 6.534698 -1.621588 0
M  V30 49 H 1.526774 7.101986 -0.610200 0
M  V30 50 H 2.449216 4.570462 -1.050595 0
M  V30 51 H 3.565957 2.421710 -0.816983 0
M  V30 52 H 2.695507 0.783403 0.784141 0
M  V30 53 H -1.740741 -1.299250 4.790222 0
M  V30 54 H -3.929995 -1.953258 3.856705 0
M  V30 55 H -4.080658 -2.590876 1.434388 0
M  V30 56 H -2.209074 -1.683412 -0.695030 0
M  V30 57 H -2.321820 -1.706620 -2.730282 0
M  V30 58 H -2.447588 -1.801355 -5.219202 0
M  V30 59 H -3.376178 -2.288379 -7.139601 0
M  V30 60 H -2.313905 -2.906311 -8.521194 0
M  V30 61 H -1.635165 -1.988344 -7.164120 0
M  V30 62 H -1.577213 -5.903854 -2.690729 0
M  V30 63 H 0.122617 -1.890420 1.017831 0
M  V30 END ATOM
M  V30 BEGIN BOND
M  V30 1 1 1 2
M  V30 2 1 2 3
M  V30 3 1 3 4
M  V30 4 1 4 5
M  V30 5 1 5 6
M  V30 6 1 6 7
M  V30 7 2 7 8
M  V30 8 1 8 9
M  V30 9 2 9 10
M  V30 10 1 10 11
M  V30 11 2 11 12
M  V30 12 1 12 13
M  V30 13 1 13 14
M  V30 14 2 13 15
M  V30 15 1 12 16
M  V30 16 2 16 17
M  V30 17 1 17 18
M  V30 18 2 18 19
M  V30 19 1 5 20
M  V30 20 2 20 21
M  V30 21 1 21 22
M  V30 22 2 22 23
M  V30 23 1 23 24
M  V30 24 1 24 25
M  V30 25 1 25 26
M  V30 26 2 26 27
M  V30 27 1 26 28
M  V30 28 2 28 29
M  V30 29 1 29 30
M  V30 30 2 30 31
M  V30 31 1 31 32
M  V30 32 1 32 33
M  V30 33 1 31 34
M  V30 34 1 34 35
M  V30 35 2 34 36
M  V30 36 2 24 37
M  V30 37 1 19 7
M  V30 38 1 37 20
M  V30 39 1 19 11
M  V30 40 1 36 28
M  V30 41 1 1 38
M  V30 42 1 1 39
M  V30 43 1 1 40
M  V30 44 1 3 41
M  V30 45 1 3 42
M  V30 46 1 4 43
M  V30 47 1 4 44
M  V30 48 1 5 45
M  V30 49 1 6 46
M  V30 50 1 9 47
M  V30 51 1 14 48
M  V30 52 1 14 49
M  V30 53 1 16 50
M  V30 54 1 17 51
M  V30 55 1 18 52
M  V30 56 1 21 53
M  V30 57 1 22 54
M  V30 58 1 23 55
M  V30 59 1 25 56
M  V30 60 1 29 57
M  V30 61 1 30 58
M  V30 62 1 33 59
M  V30 63 1 33 60
M  V30 64 1 33 61
M  V30 65 1 36 62
M  V30 66 1 37 63
M  V30 END BOND
M  V30 END CTAB
M  END
>  <Dataset>  (923) 
ChEMBL_Kinases

>  <Ligand_Instance>  (923) 
nan

>  <PDB_ID>  (923) 
nan

>  <Standardized_SMILES>  (923) 
COCCC(Nc1ncnc2c(C(N)=O)cccc12)c1cccc(NC(=O)c2ccc(OC)c(F)c2)c1

>  <Name>  (923) 
nan

>  <Pocket>  (923) 
nan

>  <ATP_Site>  (923) 
nan

>  <Peripheral>  (923) 
nan

>  <Num_H_Atoms_ProtBoundConf>  (923) 
nan

>  <Num_Resolved_Atoms>  (923) 
nan

>  <Num_Not_Resolved_Atoms>  (923) 
nan

$$$$
CHEMBL3680536
     RDKit          3D

  0  0  0  0  0  0  0  0  0  0999 V3000
M  V30 BEGIN CTAB
M  V30 COUNTS 44 46 0 0 0
M  V30 BEGIN ATOM
M  V30 1 N -0.724063 -3.984811 -2.108954 0
M  V30 2 C -0.042609 -2.952637 -1.316372 0
M  V30 3 C -0.872276 -1.702955 -1.352001 0
M  V30 4 O -0.293002 -0.684147 -0.625136 0
M  V30 5 C 0.848485 0.012685 -0.777412 0
M  V30 6 C 1.719186 -0.175487 -1.825255 0
M  V30 7 C 2.897479 0.528235 -2.007198 0
M  V30 8 C 3.219621 1.501786 -1.051320 0
M  V30 9 C 4.448015 2.273467 -1.191854 0
M  V30 10 N 5.298523 2.023287 -2.298971 0
M  V30 11 O 4.847223 3.171609 -0.404212 0
M  V30 12 C 2.316112 1.677073 0.008301 0
M  V30 13 N 2.720891 2.618704 0.852802 0
M  V30 14 C 2.037020 2.959487 1.929839 0
M  V30 15 N 0.916090 2.276565 2.085497 0
M  V30 16 C 0.425563 1.311241 1.289486 0
M  V30 17 N -0.812629 0.620001 1.514018 0
M  V30 18 C -2.036446 -0.038610 1.768942 0
M  V30 19 C -2.067465 -0.809478 3.053567 0
M  V30 20 C -2.470187 -0.292241 4.289778 0
M  V30 21 C -2.442122 -1.132765 5.383904 0
M  V30 22 C -2.033744 -2.448662 5.291403 0
M  V30 23 C -1.632701 -2.976308 4.078778 0
M  V30 24 F -1.240765 -4.265808 4.029007 0
M  V30 25 C -1.663584 -2.129296 2.989100 0
M  V30 26 C 1.149517 0.965198 0.169400 0
M  V30 27 H -0.059265 -4.726663 -2.433780 0
M  V30 28 H -1.465478 -4.380053 -1.481856 0
M  V30 29 H 0.033881 -3.304461 -0.257072 0
M  V30 30 H 0.929524 -2.810016 -1.783138 0
M  V30 31 H -1.880633 -1.935210 -0.949356 0
M  V30 32 H -1.022723 -1.434394 -2.436569 0
M  V30 33 H 1.582635 -0.860319 -2.627148 0
M  V30 34 H 3.595268 0.391168 -2.827821 0
M  V30 35 H 6.126902 1.401445 -2.416311 0
M  V30 36 H 6.132625 1.406666 -2.441305 0
M  V30 37 H 2.179660 3.675854 2.726186 0
M  V30 38 H -1.064972 1.100144 2.430273 0
M  V30 39 H -2.353973 -0.718671 0.932049 0
M  V30 40 H -2.908559 0.693047 1.796973 0
M  V30 41 H -2.777294 0.745136 4.289215 0
M  V30 42 H -2.767959 -0.655572 6.297983 0
M  V30 43 H -2.055322 -3.014145 6.227935 0
M  V30 44 H -1.338561 -2.590907 2.056192 0
M  V30 END ATOM
M  V30 BEGIN BOND
M  V30 1 1 1 2
M  V30 2 1 2 3
M  V30 3 1 3 4
M  V30 4 1 4 5
M  V30 5 2 5 6
M  V30 6 1 6 7
M  V30 7 2 7 8
M  V30 8 1 8 9
M  V30 9 1 9 10
M  V30 10 2 9 11
M  V30 11 1 8 12
M  V30 12 2 12 13
M  V30 13 1 13 14
M  V30 14 2 14 15
M  V30 15 1 15 16
M  V30 16 1 16 17
M  V30 17 1 17 18
M  V30 18 1 18 19
M  V30 19 2 19 20
M  V30 20 1 20 21
M  V30 21 2 21 22
M  V30 22 1 22 23
M  V30 23 1 23 24
M  V30 24 2 23 25
M  V30 25 2 16 26
M  V30 26 1 26 5
M  V30 27 1 26 12
M  V30 28 1 25 19
M  V30 29 1 1 27
M  V30 30 1 1 28
M  V30 31 1 2 29
M  V30 32 1 2 30
M  V30 33 1 3 31
M  V30 34 1 3 32
M  V30 35 1 6 33
M  V30 36 1 7 34
M  V30 37 1 10 35
M  V30 38 1 10 36
M  V30 39 1 14 37
M  V30 40 1 17 38
M  V30 41 1 18 39
M  V30 42 1 18 40
M  V30 43 1 20 41
M  V30 44 1 21 42
M  V30 45 1 22 43
M  V30 46 1 25 44
M  V30 END BOND
M  V30 END CTAB
M  END
>  <Dataset>  (924) 
ChEMBL_Kinases

>  <Ligand_Instance>  (924) 
nan

>  <PDB_ID>  (924) 
nan

>  <Standardized_SMILES>  (924) 
NCCOc1ccc(C(N)=O)c2ncnc(NCc3cccc(F)c3)c12

>  <Name>  (924) 
nan

>  <Pocket>  (924) 
nan

>  <ATP_Site>  (924) 
nan

>  <Peripheral>  (924) 
nan

>  <Num_H_Atoms_ProtBoundConf>  (924) 
nan

>  <Num_Resolved_Atoms>  (924) 
nan

>  <Num_Not_Resolved_Atoms>  (924) 
nan

$$$$
CHEMBL4592453
     RDKit          3D

  0  0  0  0  0  0  0  0  0  0999 V3000
M  V30 BEGIN CTAB
M  V30 COUNTS 29 31 0 0 0
M  V30 BEGIN ATOM
M  V30 1 N 2.439344 -4.225725 5.184295 0
M  V30 2 C 1.817043 -4.091944 4.090056 0
M  V30 3 N 0.624800 -3.416993 3.700795 0
M  V30 4 C 0.517478 -3.072995 2.330497 0
M  V30 5 O -0.479068 -2.470663 1.822334 0
M  V30 6 C 1.680925 -3.476615 1.513941 0
M  V30 7 C 2.102765 -2.978162 0.361969 0
M  V30 8 C 1.381227 -1.870783 -0.263198 0
M  V30 9 C 1.230053 -1.813093 -1.650290 0
M  V30 10 C 0.501226 -0.640566 -1.892441 0
M  V30 11 C 0.252900 -0.058166 -0.671773 0
M  V30 12 C -0.464447 1.176892 -0.358670 0
M  V30 13 C -1.007461 1.922743 -1.410111 0
M  V30 14 C -1.695266 3.114435 -1.147730 0
M  V30 15 C -1.815671 3.518211 0.161458 0
M  V30 16 Cl -2.665368 4.989354 0.576457 0
M  V30 17 C -1.287044 2.795602 1.206069 0
M  V30 18 Cl -1.434158 3.291938 2.875219 0
M  V30 19 C -0.608624 1.619009 0.940470 0
M  V30 20 O 0.792199 -0.821711 0.251583 0
M  V30 21 S 2.373021 -4.823215 2.523518 0
M  V30 22 H 2.131871 -3.802163 6.102647 0
M  V30 23 H -0.131727 -3.189976 4.415901 0
M  V30 24 H 2.982453 -3.418613 -0.086053 0
M  V30 25 H 1.528059 -2.419554 -2.476055 0
M  V30 26 H 0.144608 -0.178509 -2.816275 0
M  V30 27 H -0.887575 1.568946 -2.424325 0
M  V30 28 H -2.127974 3.708609 -1.951363 0
M  V30 29 H -0.172694 1.011308 1.739769 0
M  V30 END ATOM
M  V30 BEGIN BOND
M  V30 1 2 1 2 CFG=2
M  V30 2 1 2 3
M  V30 3 1 3 4
M  V30 4 2 4 5
M  V30 5 1 4 6
M  V30 6 2 6 7
M  V30 7 1 7 8
M  V30 8 2 8 9
M  V30 9 1 9 10
M  V30 10 2 10 11
M  V30 11 1 11 12
M  V30 12 2 12 13
M  V30 13 1 13 14
M  V30 14 2 14 15
M  V30 15 1 15 16
M  V30 16 1 15 17
M  V30 17 1 17 18
M  V30 18 2 17 19
M  V30 19 1 11 20
M  V30 20 1 6 21
M  V30 21 1 21 2
M  V30 22 1 20 8
M  V30 23 1 19 12
M  V30 24 1 1 22
M  V30 25 1 3 23
M  V30 26 1 7 24
M  V30 27 1 9 25
M  V30 28 1 10 26
M  V30 29 1 13 27
M  V30 30 1 14 28
M  V30 31 1 19 29
M  V30 END BOND
M  V30 END CTAB
M  END
>  <Dataset>  (925) 
ChEMBL_Kinases

>  <Ligand_Instance>  (925) 
nan

>  <PDB_ID>  (925) 
nan

>  <Standardized_SMILES>  (925) 
N=C1NC(=O)/C(=C\c2ccc(-c3ccc(Cl)c(Cl)c3)o2)S1

>  <Name>  (925) 
nan

>  <Pocket>  (925) 
nan

>  <ATP_Site>  (925) 
nan

>  <Peripheral>  (925) 
nan

>  <Num_H_Atoms_ProtBoundConf>  (925) 
nan

>  <Num_Resolved_Atoms>  (925) 
nan

>  <Num_Not_Resolved_Atoms>  (925) 
nan

$$$$
CHEMBL3105021
     RDKit          3D

  0  0  0  0  0  0  0  0  0  0999 V3000
M  V30 BEGIN CTAB
M  V30 COUNTS 57 60 0 0 0
M  V30 BEGIN ATOM
M  V30 1 C 1.142198 -3.545556 1.875963 0
M  V30 2 C 1.421197 -2.165011 2.425582 0 CFG=1
M  V30 3 C 2.449858 -1.424335 1.638520 0
M  V30 4 N 2.320052 0.002216 1.958607 0
M  V30 5 C 2.525336 1.234371 1.239455 0
M  V30 6 C 3.546137 1.943110 1.885302 0
M  V30 7 C 3.964178 3.180953 1.411135 0
M  V30 8 N 3.342449 3.668877 0.300946 0
M  V30 9 C 2.361990 2.995233 -0.324890 0
M  V30 10 C 1.926458 1.767119 0.121144 0
M  V30 11 N 0.910607 0.950944 -0.420064 0
M  V30 12 C 1.044753 -0.031187 -1.429271 0
M  V30 13 O 2.197372 -0.204297 -1.905669 0
M  V30 14 C -0.038001 -0.849525 -1.954266 0
M  V30 15 N -1.305033 -0.748159 -1.517363 0
M  V30 16 C -2.286283 -1.514492 -2.016542 0
M  V30 17 C -3.680953 -1.475638 -1.606813 0
M  V30 18 C -4.720164 -0.714716 -2.111493 0
M  V30 19 F -4.352752 0.098872 -3.130109 0
M  V30 20 C -5.979161 -0.847838 -1.556433 0
M  V30 21 C -6.207749 -1.722184 -0.515582 0
M  V30 22 C -5.175517 -2.498696 0.008586 0
M  V30 23 C -3.911249 -2.347743 -0.567899 0
M  V30 24 F -2.995529 -3.161596 0.035246 0
M  V30 25 C -1.964284 -2.428758 -3.008510 0
M  V30 26 F -2.929757 -3.236073 -3.552695 0
M  V30 27 C -0.692374 -2.590423 -3.506587 0
M  V30 28 C 0.273580 -1.758100 -2.937821 0
M  V30 29 N 1.604158 -1.917679 -3.449225 0
M  V30 30 C 1.876544 0.170163 3.340956 0
M  V30 31 C 0.430601 -0.269149 3.531398 0 CFG=1
M  V30 32 N -0.479385 0.834974 3.482946 0
M  V30 33 C 0.163158 -1.324447 2.468493 0 CFG=2
M  V30 34 O -0.958309 -2.086496 2.782843 0
M  V30 35 H 1.928869 -4.209362 2.230241 0
M  V30 36 H 0.949598 -3.535736 0.804832 0
M  V30 37 H 0.190945 -3.873738 2.377642 0
M  V30 38 H 1.820227 -2.300642 3.458185 0
M  V30 39 H 3.486511 -1.758874 1.906257 0
M  V30 40 H 2.337614 -1.634833 0.562709 0
M  V30 41 H 4.114675 1.669694 2.765794 0
M  V30 42 H 4.733473 3.793690 1.836341 0
M  V30 43 H 1.852826 3.362087 -1.208381 0
M  V30 44 H -0.073136 1.073555 -0.038822 0
M  V30 45 H -6.746727 -0.226779 -1.994662 0
M  V30 46 H -7.213421 -1.740624 -0.169501 0
M  V30 47 H -5.417695 -3.165271 0.823935 0
M  V30 48 H -0.433217 -3.287092 -4.266204 0
M  V30 49 H 2.047494 -2.611609 -2.780666 0
M  V30 50 H 1.911895 -1.400784 -4.292589 0
M  V30 51 H 2.536762 -0.458062 3.968103 0
M  V30 52 H 1.990057 1.215446 3.679247 0
M  V30 53 H 0.321113 -0.801234 4.505654 0
M  V30 54 H -1.034940 0.803574 2.620633 0
M  V30 55 H -0.004888 1.752729 3.671876 0
M  V30 56 H -0.028957 -0.827817 1.517484 0
M  V30 57 H -1.031192 -2.336808 3.717091 0
M  V30 END ATOM
M  V30 BEGIN BOND
M  V30 1 1 1 2
M  V30 2 1 2 3
M  V30 3 1 3 4
M  V30 4 1 4 5
M  V30 5 2 5 6
M  V30 6 1 6 7
M  V30 7 2 7 8
M  V30 8 1 8 9
M  V30 9 2 9 10
M  V30 10 1 10 11
M  V30 11 1 11 12
M  V30 12 2 12 13
M  V30 13 1 12 14
M  V30 14 2 14 15
M  V30 15 1 15 16
M  V30 16 1 16 17
M  V30 17 2 17 18
M  V30 18 1 18 19
M  V30 19 1 18 20
M  V30 20 2 20 21
M  V30 21 1 21 22
M  V30 22 2 22 23
M  V30 23 1 23 24
M  V30 24 2 16 25
M  V30 25 1 25 26
M  V30 26 1 25 27
M  V30 27 2 27 28
M  V30 28 1 28 29
M  V30 29 1 4 30
M  V30 30 1 30 31
M  V30 31 1 31 32
M  V30 32 1 31 33
M  V30 33 1 33 34
M  V30 34 1 33 2
M  V30 35 1 10 5
M  V30 36 1 28 14
M  V30 37 1 23 17
M  V30 38 1 1 35
M  V30 39 1 1 36
M  V30 40 1 1 37
M  V30 41 1 2 38 CFG=1
M  V30 42 1 3 39
M  V30 43 1 3 40
M  V30 44 1 6 41
M  V30 45 1 7 42
M  V30 46 1 9 43
M  V30 47 1 11 44
M  V30 48 1 20 45
M  V30 49 1 21 46
M  V30 50 1 22 47
M  V30 51 1 27 48
M  V30 52 1 29 49
M  V30 53 1 29 50
M  V30 54 1 30 51
M  V30 55 1 30 52
M  V30 56 1 31 53 CFG=1
M  V30 57 1 32 54
M  V30 58 1 32 55
M  V30 59 1 33 56 CFG=3
M  V30 60 1 34 57
M  V30 END BOND
M  V30 END CTAB
M  END
>  <Dataset>  (926) 
ChEMBL_Kinases

>  <Ligand_Instance>  (926) 
nan

>  <PDB_ID>  (926) 
nan

>  <Standardized_SMILES>  (926) 
C[C@H]1CN(c2ccncc2NC(=O)c2nc(-c3c(F)cccc3F)c(F)cc2N)C[C@@H](N)[C@@H]1O

>  <Name>  (926) 
nan

>  <Pocket>  (926) 
nan

>  <ATP_Site>  (926) 
nan

>  <Peripheral>  (926) 
nan

>  <Num_H_Atoms_ProtBoundConf>  (926) 
nan

>  <Num_Resolved_Atoms>  (926) 
nan

>  <Num_Not_Resolved_Atoms>  (926) 
nan

$$$$
CHEMBL3680517
     RDKit          3D

  0  0  0  0  0  0  0  0  0  0999 V3000
M  V30 BEGIN CTAB
M  V30 COUNTS 53 57 0 0 0
M  V30 BEGIN ATOM
M  V30 1 N 1.929851 -1.992087 4.976084 0
M  V30 2 C 3.363022 -1.860112 4.800630 0
M  V30 3 O 3.341489 -2.364623 5.920818 0
M  V30 4 C 3.773008 -1.280200 3.539521 0
M  V30 5 C 5.132909 -1.210467 3.348902 0
M  V30 6 C 5.616753 -0.663410 2.156253 0
M  V30 7 C 4.657328 -0.235426 1.264303 0
M  V30 8 C 3.304969 -0.311800 1.467873 0
M  V30 9 C 2.367709 0.110249 0.539824 0
M  V30 10 N 2.753105 0.707528 -0.670493 0
M  V30 11 C 1.932361 1.176489 -1.775640 0
M  V30 12 C 0.759263 1.979082 -1.329235 0
M  V30 13 C 0.742650 3.340487 -1.127522 0
M  V30 14 C -0.410187 3.903233 -0.690128 0
M  V30 15 C -1.580458 3.246807 -0.422661 0
M  V30 16 C -1.602218 1.888436 -0.611848 0
M  V30 17 N -2.600999 0.878525 -0.340172 0
M  V30 18 C -2.881272 -0.304008 -1.057498 0
M  V30 19 O -2.262966 -0.628531 -2.118763 0
M  V30 20 C -3.920126 -1.192727 -0.551287 0
M  V30 21 C -5.166055 -1.137718 0.040846 0
M  V30 22 N -5.566393 -2.395378 0.292376 0
M  V30 23 C -4.652224 -3.298569 -0.100492 0
M  V30 24 C -4.653563 -4.674301 -0.033676 0
M  V30 25 C -3.573194 -5.376234 -0.515356 0
M  V30 26 C -2.480895 -4.712111 -1.068629 0
M  V30 27 C -2.535266 -3.341211 -1.108882 0
M  V30 28 C -3.598517 -2.552178 -0.638504 0
M  V30 29 C -0.419537 1.260898 -1.069539 0
M  V30 30 N 1.092321 -0.049396 0.879608 0
M  V30 31 C 0.635053 -0.569938 2.013335 0
M  V30 32 N 1.552121 -0.971702 2.898976 0
M  V30 33 C 2.847740 -0.847128 2.635948 0
M  V30 34 H 0.966741 -1.697711 5.275238 0
M  V30 35 H 1.021550 -1.561077 5.328397 0
M  V30 36 H 5.794278 -1.579726 4.113807 0
M  V30 37 H 6.671149 -0.596260 1.976552 0
M  V30 38 H 5.043421 0.172305 0.361441 0
M  V30 39 H 3.760496 0.881043 -0.891374 0
M  V30 40 H 2.514901 1.742938 -2.539931 0
M  V30 41 H 1.548097 0.292118 -2.322957 0
M  V30 42 H 1.629671 3.883215 -1.327417 0
M  V30 43 H -0.478673 4.982324 -0.517911 0
M  V30 44 H -2.539891 3.590025 -0.074061 0
M  V30 45 H -3.103493 1.195932 0.521921 0
M  V30 46 H -5.558633 -0.145640 0.183135 0
M  V30 47 H -6.499298 -2.564401 0.744230 0
M  V30 48 H -5.481689 -5.221132 0.387694 0
M  V30 49 H -3.488017 -6.461951 -0.501768 0
M  V30 50 H -1.597101 -5.206183 -1.469099 0
M  V30 51 H -1.690936 -2.827470 -1.533049 0
M  V30 52 H -0.363713 0.188166 -1.272036 0
M  V30 53 H -0.460575 -0.602979 2.079817 0
M  V30 END ATOM
M  V30 BEGIN BOND
M  V30 1 1 1 2
M  V30 2 2 2 3
M  V30 3 1 2 4
M  V30 4 2 4 5
M  V30 5 1 5 6
M  V30 6 2 6 7
M  V30 7 1 7 8
M  V30 8 2 8 9
M  V30 9 1 9 10
M  V30 10 1 10 11
M  V30 11 1 11 12
M  V30 12 2 12 13
M  V30 13 1 13 14
M  V30 14 2 14 15
M  V30 15 1 15 16
M  V30 16 1 16 17
M  V30 17 1 17 18
M  V30 18 2 18 19
M  V30 19 1 18 20
M  V30 20 2 20 21
M  V30 21 1 21 22
M  V30 22 1 22 23
M  V30 23 2 23 24
M  V30 24 1 24 25
M  V30 25 2 25 26
M  V30 26 1 26 27
M  V30 27 2 27 28
M  V30 28 2 16 29
M  V30 29 1 9 30
M  V30 30 2 30 31
M  V30 31 1 31 32
M  V30 32 2 32 33
M  V30 33 1 33 4
M  V30 34 1 33 8
M  V30 35 1 29 12
M  V30 36 1 28 20
M  V30 37 1 28 23
M  V30 38 1 1 34
M  V30 39 1 1 35
M  V30 40 1 5 36
M  V30 41 1 6 37
M  V30 42 1 7 38
M  V30 43 1 10 39
M  V30 44 1 11 40
M  V30 45 1 11 41
M  V30 46 1 13 42
M  V30 47 1 14 43
M  V30 48 1 15 44
M  V30 49 1 17 45
M  V30 50 1 21 46
M  V30 51 1 22 47
M  V30 52 1 24 48
M  V30 53 1 25 49
M  V30 54 1 26 50
M  V30 55 1 27 51
M  V30 56 1 29 52
M  V30 57 1 31 53
M  V30 END BOND
M  V30 END CTAB
M  END
>  <Dataset>  (927) 
ChEMBL_Kinases

>  <Ligand_Instance>  (927) 
nan

>  <PDB_ID>  (927) 
nan

>  <Standardized_SMILES>  (927) 
NC(=O)c1cccc2c(NCc3cccc(NC(=O)c4c[nH]c5ccccc45)c3)ncnc12

>  <Name>  (927) 
nan

>  <Pocket>  (927) 
nan

>  <ATP_Site>  (927) 
nan

>  <Peripheral>  (927) 
nan

>  <Num_H_Atoms_ProtBoundConf>  (927) 
nan

>  <Num_Resolved_Atoms>  (927) 
nan

>  <Num_Not_Resolved_Atoms>  (927) 
nan

$$$$
CHEMBL3105022
     RDKit          3D

  0  0  0  0  0  0  0  0  0  0999 V3000
M  V30 BEGIN CTAB
M  V30 COUNTS 55 58 0 0 0
M  V30 BEGIN ATOM
M  V30 1 C 2.318483 -3.481712 1.992054 0
M  V30 2 C 1.473374 -3.271158 0.753959 0 CFG=1
M  V30 3 C 1.019006 -1.828979 0.637810 0
M  V30 4 N 1.753814 -1.113316 -0.384326 0
M  V30 5 C 2.650921 0.015360 -0.316891 0
M  V30 6 C 3.938102 -0.191298 -0.761993 0
M  V30 7 C 4.896576 0.799337 -0.752648 0
M  V30 8 N 4.485141 1.995116 -0.274002 0
M  V30 9 C 3.228487 2.189114 0.158215 0
M  V30 10 C 2.240494 1.234518 0.168374 0
M  V30 11 N 0.910359 1.381827 0.608107 0
M  V30 12 C 0.252801 2.507319 1.140433 0
M  V30 13 O 0.894934 3.578326 1.269871 0
M  V30 14 C -1.138999 2.507903 1.554575 0
M  V30 15 C -1.752566 3.605187 2.065208 0
M  V30 16 C -3.063843 3.675939 2.476311 0
M  V30 17 C -3.789816 2.499031 2.340211 0
M  V30 18 F -5.087152 2.513069 2.730197 0
M  V30 19 C -3.153323 1.381212 1.816624 0
M  V30 20 C -4.002435 0.199714 1.715867 0
M  V30 21 C -4.168183 -0.757508 2.681444 0
M  V30 22 F -3.478902 -0.591564 3.839006 0
M  V30 23 C -5.003975 -1.822219 2.448856 0
M  V30 24 C -5.704439 -1.981972 1.260530 0
M  V30 25 C -5.525381 -1.006480 0.296869 0
M  V30 26 C -4.683053 0.061923 0.537570 0
M  V30 27 F -4.628065 0.923475 -0.520518 0
M  V30 28 N -1.862434 1.390039 1.435387 0
M  V30 29 C 1.471341 -1.715277 -1.682108 0
M  V30 30 C 1.490495 -3.207546 -1.669797 0 CFG=1
M  V30 31 N 2.067426 -3.687541 -2.910124 0
M  V30 32 C 2.271382 -3.695053 -0.460153 0 CFG=2
M  V30 33 O 2.336547 -5.066174 -0.513776 0
M  V30 34 H 1.872891 -2.891545 2.814414 0
M  V30 35 H 3.385703 -3.180978 1.796277 0
M  V30 36 H 2.351783 -4.561306 2.238693 0
M  V30 37 H 0.606448 -3.955824 0.831869 0
M  V30 38 H -0.060718 -1.814185 0.386852 0
M  V30 39 H 1.130305 -1.397108 1.643709 0
M  V30 40 H 4.225701 -1.150854 -1.133392 0
M  V30 41 H 5.918910 0.716619 -1.081915 0
M  V30 42 H 3.000794 3.177663 0.520384 0
M  V30 43 H 0.271789 0.556550 0.550692 0
M  V30 44 H -1.168508 4.515504 2.163798 0
M  V30 45 H -3.474419 4.592311 2.872489 0
M  V30 46 H -5.113461 -2.556372 3.224809 0
M  V30 47 H -6.341048 -2.860862 1.175459 0
M  V30 48 H -6.088858 -1.168079 -0.614215 0
M  V30 49 H 0.498464 -1.346971 -2.087530 0
M  V30 50 H 2.230669 -1.357806 -2.407678 0
M  V30 51 H 0.420792 -3.542573 -1.577449 0
M  V30 52 H 1.408968 -4.278490 -3.448411 0
M  V30 53 H 2.451047 -2.888672 -3.463160 0
M  V30 54 H 3.278237 -3.273956 -0.503454 0
M  V30 55 H 2.482473 -5.314615 -1.476130 0
M  V30 END ATOM
M  V30 BEGIN BOND
M  V30 1 1 1 2
M  V30 2 1 2 3
M  V30 3 1 3 4
M  V30 4 1 4 5
M  V30 5 2 5 6
M  V30 6 1 6 7
M  V30 7 2 7 8
M  V30 8 1 8 9
M  V30 9 2 9 10
M  V30 10 1 10 11
M  V30 11 1 11 12
M  V30 12 2 12 13
M  V30 13 1 12 14
M  V30 14 2 14 15
M  V30 15 1 15 16
M  V30 16 2 16 17
M  V30 17 1 17 18
M  V30 18 1 17 19
M  V30 19 1 19 20
M  V30 20 2 20 21
M  V30 21 1 21 22
M  V30 22 1 21 23
M  V30 23 2 23 24
M  V30 24 1 24 25
M  V30 25 2 25 26
M  V30 26 1 26 27
M  V30 27 2 19 28
M  V30 28 1 4 29
M  V30 29 1 29 30
M  V30 30 1 30 31
M  V30 31 1 30 32
M  V30 32 1 32 33
M  V30 33 1 32 2
M  V30 34 1 10 5
M  V30 35 1 28 14
M  V30 36 1 26 20
M  V30 37 1 1 34
M  V30 38 1 1 35
M  V30 39 1 1 36
M  V30 40 1 2 37 CFG=1
M  V30 41 1 3 38
M  V30 42 1 3 39
M  V30 43 1 6 40
M  V30 44 1 7 41
M  V30 45 1 9 42
M  V30 46 1 11 43
M  V30 47 1 15 44
M  V30 48 1 16 45
M  V30 49 1 23 46
M  V30 50 1 24 47
M  V30 51 1 25 48
M  V30 52 1 29 49
M  V30 53 1 29 50
M  V30 54 1 30 51 CFG=1
M  V30 55 1 31 52
M  V30 56 1 31 53
M  V30 57 1 32 54 CFG=1
M  V30 58 1 33 55
M  V30 END BOND
M  V30 END CTAB
M  END
>  <Dataset>  (928) 
ChEMBL_Kinases

>  <Ligand_Instance>  (928) 
nan

>  <PDB_ID>  (928) 
nan

>  <Standardized_SMILES>  (928) 
C[C@H]1CN(c2ccncc2NC(=O)c2ccc(F)c(-c3c(F)cccc3F)n2)C[C@@H](N)[C@@H]1O

>  <Name>  (928) 
nan

>  <Pocket>  (928) 
nan

>  <ATP_Site>  (928) 
nan

>  <Peripheral>  (928) 
nan

>  <Num_H_Atoms_ProtBoundConf>  (928) 
nan

>  <Num_Resolved_Atoms>  (928) 
nan

>  <Num_Not_Resolved_Atoms>  (928) 
nan

$$$$
CHEMBL2147769
     RDKit          3D

  0  0  0  0  0  0  0  0  0  0999 V3000
M  V30 BEGIN CTAB
M  V30 COUNTS 51 55 0 0 0
M  V30 BEGIN ATOM
M  V30 1 C 0.905077 2.303414 5.457628 0
M  V30 2 O 0.378635 1.802165 4.251183 0
M  V30 3 C 0.454429 0.479981 3.903257 0
M  V30 4 C 1.029707 -0.534876 4.635986 0
M  V30 5 C 1.084905 -1.857764 4.247688 0
M  V30 6 C 0.519544 -2.183169 3.033109 0
M  V30 7 C -0.073017 -1.212215 2.250669 0
M  V30 8 C -0.105730 0.098749 2.677812 0
M  V30 9 C -0.751797 1.160906 1.827958 0
M  V30 10 N 0.296078 1.912877 1.208887 0
M  V30 11 C -0.156151 2.992451 0.360592 0
M  V30 12 C 0.951933 4.037734 0.386238 0
M  V30 13 N 2.214880 3.338654 0.370865 0
M  V30 14 C 2.112922 2.060981 -0.334361 0
M  V30 15 C 1.192070 1.110749 0.423454 0
M  V30 16 O -0.555738 -1.816934 1.091292 0
M  V30 17 C -0.281309 -3.186782 1.109728 0
M  V30 18 C -0.551254 -4.142749 0.230636 0
M  V30 19 C -1.257182 -3.733027 -0.980606 0
M  V30 20 C -2.237665 -2.761756 -1.039827 0
M  V30 21 N -2.611594 -2.708841 -2.333675 0
M  V30 22 C -1.908117 -3.597574 -3.059012 0
M  V30 23 C -1.907746 -3.933655 -4.397654 0
M  V30 24 C -1.029048 -4.923256 -4.817978 0
M  V30 25 N -0.195669 -5.547977 -3.965217 0
M  V30 26 C -0.150093 -5.266013 -2.657524 0
M  V30 27 C -1.017489 -4.287604 -2.236113 0
M  V30 28 C 0.419166 -3.474867 2.356112 0
M  V30 29 O 0.863031 -4.550545 2.811428 0
M  V30 30 H 1.742690 1.714735 5.868325 0
M  V30 31 H 0.112880 2.357155 6.251483 0
M  V30 32 H 1.286874 3.348843 5.310235 0
M  V30 33 H 1.467063 -0.275963 5.579539 0
M  V30 34 H 1.561795 -2.607170 4.890046 0
M  V30 35 H -1.427112 0.674925 1.104110 0
M  V30 36 H -1.392341 1.820201 2.467647 0
M  V30 37 H -1.126599 3.406783 0.677899 0
M  V30 38 H -0.207012 2.607371 -0.675859 0
M  V30 39 H 0.877126 4.527176 1.399975 0
M  V30 40 H 0.834005 4.813799 -0.366612 0
M  V30 41 H 3.012881 3.870893 0.010244 0
M  V30 42 H 3.128284 1.646861 -0.339414 0
M  V30 43 H 1.767546 2.242537 -1.364146 0
M  V30 44 H 1.733665 0.332894 0.969752 0
M  V30 45 H 0.567519 0.616862 -0.365358 0
M  V30 46 H -0.272059 -5.170762 0.384563 0
M  V30 47 H -2.629510 -2.166006 -0.231066 0
M  V30 48 H -3.341485 -2.078627 -2.748224 0
M  V30 49 H -2.580528 -3.427866 -5.083694 0
M  V30 50 H -1.003271 -5.214080 -5.875299 0
M  V30 51 H 0.502512 -5.746326 -1.952044 0
M  V30 END ATOM
M  V30 BEGIN BOND
M  V30 1 1 1 2
M  V30 2 1 2 3
M  V30 3 2 3 4
M  V30 4 1 4 5
M  V30 5 2 5 6
M  V30 6 1 6 7
M  V30 7 2 7 8
M  V30 8 1 8 9
M  V30 9 1 9 10
M  V30 10 1 10 11
M  V30 11 1 11 12
M  V30 12 1 12 13
M  V30 13 1 13 14
M  V30 14 1 14 15
M  V30 15 1 7 16
M  V30 16 1 16 17
M  V30 17 2 17 18
M  V30 18 1 18 19
M  V30 19 2 19 20
M  V30 20 1 20 21
M  V30 21 1 21 22
M  V30 22 2 22 23
M  V30 23 1 23 24
M  V30 24 2 24 25
M  V30 25 1 25 26
M  V30 26 2 26 27
M  V30 27 1 17 28
M  V30 28 2 28 29
M  V30 29 1 8 3
M  V30 30 1 15 10
M  V30 31 1 27 19
M  V30 32 1 28 6
M  V30 33 1 27 22
M  V30 34 1 1 30
M  V30 35 1 1 31
M  V30 36 1 1 32
M  V30 37 1 4 33
M  V30 38 1 5 34
M  V30 39 1 9 35
M  V30 40 1 9 36
M  V30 41 1 11 37
M  V30 42 1 11 38
M  V30 43 1 12 39
M  V30 44 1 12 40
M  V30 45 1 13 41
M  V30 46 1 14 42
M  V30 47 1 14 43
M  V30 48 1 15 44
M  V30 49 1 15 45
M  V30 50 1 18 46
M  V30 51 1 20 47
M  V30 52 1 21 48
M  V30 53 1 23 49
M  V30 54 1 24 50
M  V30 55 1 26 51
M  V30 END BOND
M  V30 END CTAB
M  END
>  <Dataset>  (929) 
ChEMBL_Kinases

>  <Ligand_Instance>  (929) 
nan

>  <PDB_ID>  (929) 
nan

>  <Standardized_SMILES>  (929) 
COc1ccc2c(c1CN1CCNCC1)O/C(=C\c1c[nH]c3ccncc13)C2=O

>  <Name>  (929) 
nan

>  <Pocket>  (929) 
nan

>  <ATP_Site>  (929) 
nan

>  <Peripheral>  (929) 
nan

>  <Num_H_Atoms_ProtBoundConf>  (929) 
nan

>  <Num_Resolved_Atoms>  (929) 
nan

>  <Num_Not_Resolved_Atoms>  (929) 
nan

$$$$
CHEMBL3701736
     RDKit          3D

  0  0  0  0  0  0  0  0  0  0999 V3000
M  V30 BEGIN CTAB
M  V30 COUNTS 61 66 0 0 0
M  V30 BEGIN ATOM
M  V30 1 C 6.861695 -2.735227 5.442100 0
M  V30 2 O 6.875842 -1.617485 4.539535 0
M  V30 3 C 5.732488 -1.328680 3.806614 0
M  V30 4 C 4.582500 -2.089534 3.924566 0
M  V30 5 C 3.513035 -1.702041 3.143284 0
M  V30 6 C 3.558777 -0.623785 2.285908 0
M  V30 7 C 4.709685 0.128887 2.175153 0
M  V30 8 C 5.793277 -0.246028 2.952343 0
M  V30 9 O 4.761111 1.216896 1.312729 0
M  V30 10 C 3.667804 1.612487 0.506413 0
M  V30 11 N 2.516933 0.771506 0.689528 0
M  V30 12 C 2.372688 -0.298586 1.500656 0
M  V30 13 N 1.129800 -0.793204 1.361488 0
M  V30 14 C 0.478922 -0.024816 0.449202 0
M  V30 15 C -0.895403 -0.400951 0.158710 0
M  V30 16 C -2.043654 0.312562 0.426072 0
M  V30 17 C -3.302915 -0.144484 0.099889 0
M  V30 18 C -3.443918 -1.385912 -0.531331 0
M  V30 19 C -4.815119 -1.786325 -0.838639 0
M  V30 20 N -5.692089 -0.650740 -1.099266 0
M  V30 21 C -5.378391 -2.571104 0.351546 0
M  V30 22 C -5.497940 -3.812473 -0.532546 0
M  V30 23 C -4.516226 -4.911571 -0.211772 0
M  V30 24 O -6.769465 -4.323278 -0.668591 0
M  V30 25 C -5.056468 -2.958877 -1.696218 0
M  V30 26 C -2.328046 -2.109217 -0.806007 0
M  V30 27 C -1.054376 -1.639720 -0.472581 0
M  V30 28 C 1.357031 0.952851 0.034138 0
M  V30 29 C 0.943208 1.938284 -0.955131 0
M  V30 30 C 1.696341 1.753370 -2.123657 0
M  V30 31 C 1.492350 2.581064 -3.234392 0
M  V30 32 C 0.549772 3.585429 -3.190501 0
M  V30 33 C -0.177732 3.746977 -2.030329 0
M  V30 34 C 0.004169 2.948027 -0.927998 0
M  V30 35 H 6.447293 -3.635220 4.947287 0
M  V30 36 H 6.125565 -2.487704 6.246553 0
M  V30 37 H 7.855940 -2.893877 5.885153 0
M  V30 38 H 4.566793 -2.924321 4.596596 0
M  V30 39 H 2.585390 -2.271226 3.202395 0
M  V30 40 H 6.708410 0.339730 2.875176 0
M  V30 41 H 4.033226 1.656494 -0.517492 0
M  V30 42 H 3.441964 2.669611 0.799567 0
M  V30 43 H -1.893252 1.260378 0.913481 0
M  V30 44 H -4.149151 0.471970 0.342599 0
M  V30 45 H -5.562222 -0.272954 -2.046462 0
M  V30 46 H -6.657499 -0.916150 -0.834368 0
M  V30 47 H -4.706511 -2.692968 1.201981 0
M  V30 48 H -6.394725 -2.269942 0.658835 0
M  V30 49 H -5.032787 -5.864743 0.056038 0
M  V30 50 H -3.893641 -5.154688 -1.117866 0
M  V30 51 H -3.847165 -4.655286 0.615664 0
M  V30 52 H -6.870184 -5.126401 -0.104485 0
M  V30 53 H -5.926224 -2.772792 -2.385911 0
M  V30 54 H -4.246081 -3.372253 -2.299181 0
M  V30 55 H -2.469781 -3.072110 -1.297963 0
M  V30 56 H -0.220737 -2.300758 -0.738280 0
M  V30 57 H 2.474220 1.012418 -2.320176 0
M  V30 58 H 2.041433 2.487018 -4.160899 0
M  V30 59 H 0.373399 4.239433 -4.038191 0
M  V30 60 H -0.943478 4.516826 -1.911323 0
M  V30 61 H -0.493693 2.974596 0.025789 0
M  V30 END ATOM
M  V30 BEGIN BOND
M  V30 1 1 1 2
M  V30 2 1 2 3
M  V30 3 2 3 4
M  V30 4 1 4 5
M  V30 5 2 5 6
M  V30 6 1 6 7
M  V30 7 2 7 8
M  V30 8 1 7 9
M  V30 9 1 9 10
M  V30 10 1 10 11
M  V30 11 1 11 12
M  V30 12 2 12 13
M  V30 13 1 13 14
M  V30 14 1 14 15
M  V30 15 2 15 16
M  V30 16 1 16 17
M  V30 17 2 17 18
M  V30 18 1 18 19
M  V30 19 1 19 20
M  V30 20 1 19 21
M  V30 21 1 21 22
M  V30 22 1 22 23
M  V30 23 1 22 24
M  V30 24 1 22 25
M  V30 25 1 18 26
M  V30 26 2 26 27
M  V30 27 2 14 28
M  V30 28 1 28 29
M  V30 29 2 29 30
M  V30 30 1 30 31
M  V30 31 2 31 32
M  V30 32 1 32 33
M  V30 33 2 33 34
M  V30 34 1 8 3
M  V30 35 1 28 11
M  V30 36 1 34 29
M  V30 37 1 12 6
M  V30 38 1 27 15
M  V30 39 1 25 19
M  V30 40 1 1 35
M  V30 41 1 1 36
M  V30 42 1 1 37
M  V30 43 1 4 38
M  V30 44 1 5 39
M  V30 45 1 8 40
M  V30 46 1 10 41
M  V30 47 1 10 42
M  V30 48 1 16 43
M  V30 49 1 17 44
M  V30 50 1 20 45
M  V30 51 1 20 46
M  V30 52 1 21 47
M  V30 53 1 21 48
M  V30 54 1 23 49
M  V30 55 1 23 50
M  V30 56 1 23 51
M  V30 57 1 24 52
M  V30 58 1 25 53
M  V30 59 1 25 54
M  V30 60 1 26 55
M  V30 61 1 27 56
M  V30 62 1 30 57
M  V30 63 1 31 58
M  V30 64 1 32 59
M  V30 65 1 33 60
M  V30 66 1 34 61
M  V30 END BOND
M  V30 END CTAB
M  END
>  <Dataset>  (930) 
ChEMBL_Kinases

>  <Ligand_Instance>  (930) 
nan

>  <PDB_ID>  (930) 
nan

>  <Standardized_SMILES>  (930) 
COc1ccc2c(c1)OCn1c-2nc(-c2ccc(C3(N)CC(C)(O)C3)cc2)c1-c1ccccc1

>  <Name>  (930) 
nan

>  <Pocket>  (930) 
nan

>  <ATP_Site>  (930) 
nan

>  <Peripheral>  (930) 
nan

>  <Num_H_Atoms_ProtBoundConf>  (930) 
nan

>  <Num_Resolved_Atoms>  (930) 
nan

>  <Num_Not_Resolved_Atoms>  (930) 
nan

$$$$
CHEMBL4279758
     RDKit          3D

  0  0  0  0  0  0  0  0  0  0999 V3000
M  V30 BEGIN CTAB
M  V30 COUNTS 63 69 0 0 0
M  V30 BEGIN ATOM
M  V30 1 C 0.507732 -2.106236 5.945214 0
M  V30 2 C 1.619093 -1.969582 4.959195 0
M  V30 3 O 2.766361 -1.851564 5.502184 0
M  V30 4 N 1.481406 -1.963423 3.535421 0
M  V30 5 C 2.667482 -1.821049 2.726384 0 CFG=2
M  V30 6 C 2.612948 -0.591057 1.803402 0
M  V30 7 C 1.679947 -0.862162 0.659924 0 CFG=2
M  V30 8 N 0.907814 0.265017 0.230458 0
M  V30 9 C 1.242006 1.575706 0.402586 0
M  V30 10 C 2.406561 2.109017 0.916172 0
M  V30 11 C 2.660219 3.458546 1.029054 0
M  V30 12 C 1.678459 4.364559 0.595509 0
M  V30 13 C 0.533087 3.785877 0.087929 0
M  V30 14 C 0.283087 2.462686 -0.023374 0
M  V30 15 C -0.727610 1.679284 -0.506518 0
M  V30 16 C -1.926816 2.010466 -1.072325 0
M  V30 17 C -2.802939 1.051038 -1.520203 0
M  V30 18 C -2.413873 -0.280537 -1.373364 0
M  V30 19 C -3.086571 -1.430621 -1.774076 0
M  V30 20 C -4.312854 -1.640437 -2.383382 0
M  V30 21 C -4.714096 -2.924114 -2.659762 0
M  V30 22 O -5.948200 -3.090219 -3.270090 0
M  V30 23 C -3.915727 -3.980591 -2.338672 0
M  V30 24 C -2.710450 -3.717813 -1.736172 0
M  V30 25 C -2.233586 -2.461513 -1.424737 0
M  V30 26 N -1.155706 -1.889507 -0.863411 0
M  V30 27 C -1.201511 -0.560547 -0.798387 0
M  V30 28 C -0.311354 0.372778 -0.338804 0
M  V30 29 C -4.056231 1.613653 -2.110186 0
M  V30 30 N -3.888014 3.037702 -1.965073 0
M  V30 31 C -2.626206 3.239455 -1.360934 0
M  V30 32 O -2.329460 4.425213 -1.179376 0
M  V30 33 O 0.981841 -1.969827 1.045371 0
M  V30 34 C 1.754726 -3.144731 0.932998 0 CFG=1
M  V30 35 C 2.376056 -3.335163 -0.415762 0
M  V30 36 C 2.867923 -3.109432 1.964124 0 CFG=2
M  V30 37 O 2.633399 -4.133546 2.874589 0
M  V30 38 H 0.245382 -1.101721 6.328211 0
M  V30 39 H -0.379608 -2.548751 5.441755 0
M  V30 40 H 0.840295 -2.794732 6.729316 0
M  V30 41 H 0.473503 -2.070702 3.303879 0
M  V30 42 H 3.512369 -1.747655 3.429335 0
M  V30 43 H 2.210958 0.174852 2.484725 0
M  V30 44 H 3.637715 -0.514327 1.460650 0
M  V30 45 H 2.332899 -1.178119 -0.175126 0
M  V30 46 H 3.307439 1.647053 1.275960 0
M  V30 47 H 3.570260 3.935670 1.431632 0
M  V30 48 H 1.840260 5.451954 0.668094 0
M  V30 49 H -0.149485 4.547725 -0.214608 0
M  V30 50 H -4.953823 -0.811092 -2.641223 0
M  V30 51 H -6.694450 -2.394389 -3.177897 0
M  V30 52 H -4.216296 -4.999973 -2.549512 0
M  V30 53 H -2.095954 -4.571432 -1.491770 0
M  V30 54 H -0.467935 -2.600753 -0.606831 0
M  V30 55 H -4.102834 1.345354 -3.199368 0
M  V30 56 H -4.960345 1.329430 -1.564154 0
M  V30 57 H -4.666796 3.637122 -2.304342 0
M  V30 58 H 1.050146 -3.958978 1.193852 0
M  V30 59 H 1.820613 -2.820654 -1.222799 0
M  V30 60 H 2.452375 -4.429578 -0.611034 0
M  V30 61 H 3.397207 -2.885701 -0.392516 0
M  V30 62 H 3.867288 -3.260254 1.561600 0
M  V30 63 H 3.174408 -4.930240 2.766556 0
M  V30 END ATOM
M  V30 BEGIN BOND
M  V30 1 1 1 2
M  V30 2 2 2 3
M  V30 3 1 2 4
M  V30 4 1 4 5
M  V30 5 1 5 6
M  V30 6 1 6 7
M  V30 7 1 7 8
M  V30 8 1 8 9
M  V30 9 2 9 10
M  V30 10 1 10 11
M  V30 11 2 11 12
M  V30 12 1 12 13
M  V30 13 2 13 14
M  V30 14 1 14 15
M  V30 15 2 15 16
M  V30 16 1 16 17
M  V30 17 2 17 18
M  V30 18 1 18 19
M  V30 19 2 19 20
M  V30 20 1 20 21
M  V30 21 1 21 22
M  V30 22 2 21 23
M  V30 23 1 23 24
M  V30 24 2 24 25
M  V30 25 1 25 26
M  V30 26 1 26 27
M  V30 27 2 27 28
M  V30 28 1 17 29
M  V30 29 1 29 30
M  V30 30 1 30 31
M  V30 31 2 31 32
M  V30 32 1 7 33
M  V30 33 1 33 34
M  V30 34 1 34 35
M  V30 35 1 34 36
M  V30 36 1 36 37
M  V30 37 1 36 5
M  V30 38 1 28 8
M  V30 39 1 14 9
M  V30 40 1 28 15
M  V30 41 1 31 16
M  V30 42 1 27 18
M  V30 43 1 25 19
M  V30 44 1 1 38
M  V30 45 1 1 39
M  V30 46 1 1 40
M  V30 47 1 4 41
M  V30 48 1 5 42 CFG=1
M  V30 49 1 6 43
M  V30 50 1 6 44
M  V30 51 1 7 45 CFG=3
M  V30 52 1 10 46
M  V30 53 1 11 47
M  V30 54 1 12 48
M  V30 55 1 13 49
M  V30 56 1 20 50
M  V30 57 1 22 51
M  V30 58 1 23 52
M  V30 59 1 24 53
M  V30 60 1 26 54
M  V30 61 1 29 55
M  V30 62 1 29 56
M  V30 63 1 30 57
M  V30 64 1 34 58 CFG=1
M  V30 65 1 35 59
M  V30 66 1 35 60
M  V30 67 1 35 61
M  V30 68 1 36 62 CFG=3
M  V30 69 1 37 63
M  V30 END BOND
M  V30 END CTAB
M  END
>  <Dataset>  (931) 
ChEMBL_Kinases

>  <Ligand_Instance>  (931) 
nan

>  <PDB_ID>  (931) 
nan

>  <Standardized_SMILES>  (931) 
CC(=O)N[C@@H]1C[C@H](n2c3ccccc3c3c4c(c5c6cc(O)ccc6[nH]c5c32)CNC4=O)O[C@@H](C)[C@@H]1O

>  <Name>  (931) 
nan

>  <Pocket>  (931) 
nan

>  <ATP_Site>  (931) 
nan

>  <Peripheral>  (931) 
nan

>  <Num_H_Atoms_ProtBoundConf>  (931) 
nan

>  <Num_Resolved_Atoms>  (931) 
nan

>  <Num_Not_Resolved_Atoms>  (931) 
nan

$$$$
CHEMBL3680515
     RDKit          3D

  0  0  0  0  0  0  0  0  0  0999 V3000
M  V30 BEGIN CTAB
M  V30 COUNTS 61 63 0 0 0
M  V30 BEGIN ATOM
M  V30 1 C 0.551965 -2.371327 6.169554 0
M  V30 2 N 0.287592 -2.807889 4.757813 0
M  V30 3 C 1.166878 -2.002825 3.910732 0
M  V30 4 C 0.825711 -2.169211 2.429121 0
M  V30 5 N 1.728415 -1.355609 1.693544 0
M  V30 6 C 2.625793 -0.556042 0.970436 0
M  V30 7 N 3.961569 -0.367731 1.007216 0
M  V30 8 C 4.542355 0.623593 0.305614 0
M  V30 9 N 3.848494 1.462034 -0.457953 0
M  V30 10 C 2.527954 1.370304 -0.578761 0
M  V30 11 C 1.800916 2.199244 -1.385490 0
M  V30 12 C 2.372614 3.317863 -2.107098 0
M  V30 13 N 3.652441 3.880670 -2.082088 0
M  V30 14 O 1.752214 4.016558 -2.939010 0
M  V30 15 C 0.409012 2.070909 -1.539939 0
M  V30 16 C -0.239675 1.079141 -0.855587 0
M  V30 17 O -1.597511 0.758107 -0.849118 0
M  V30 18 C -2.101419 -0.320787 -0.087782 0
M  V30 19 C -3.590523 -0.444586 -0.280980 0
M  V30 20 C -3.897918 -0.668930 -1.778871 0
M  V30 21 N -3.449920 0.469354 -2.468811 0
M  V30 22 C -4.151842 1.682851 -2.293986 0
M  V30 23 C -2.644853 0.309036 -3.618204 0
M  V30 24 C 0.567724 0.291787 -0.066032 0
M  V30 25 C 1.939747 0.332359 0.161479 0
M  V30 26 C 0.651345 -3.555285 1.983973 0
M  V30 27 C 1.576556 -4.515590 1.657621 0
M  V30 28 C 1.184981 -5.758645 1.234789 0
M  V30 29 C -0.122311 -6.152414 1.101131 0
M  V30 30 C -1.079125 -5.229291 1.412712 0
M  V30 31 C -0.694998 -3.961355 1.844279 0
M  V30 32 H 1.347240 -2.981638 6.587421 0
M  V30 33 H -0.402941 -2.405556 6.678449 0
M  V30 34 H 0.846759 -1.258829 6.129896 0
M  V30 35 H -0.706955 -2.541809 4.587565 0
M  V30 36 H 2.239784 -2.210787 4.118060 0
M  V30 37 H 0.924803 -0.933565 4.162527 0
M  V30 38 H -0.228514 -1.650590 2.424585 0
M  V30 39 H 2.502749 -1.982752 2.090726 0
M  V30 40 H 5.614920 0.604663 0.474293 0
M  V30 41 H 4.531515 3.991077 -2.598000 0
M  V30 42 H 3.531206 4.311907 -1.118971 0
M  V30 43 H -0.205350 2.704751 -2.156936 0
M  V30 44 H -1.810014 -0.257275 0.952284 0
M  V30 45 H -1.606079 -1.247334 -0.515204 0
M  V30 46 H -3.981492 -1.266840 0.322725 0
M  V30 47 H -4.089610 0.466687 0.055329 0
M  V30 48 H -3.320673 -1.555689 -2.111770 0
M  V30 49 H -4.994419 -0.861166 -1.829054 0
M  V30 50 H -4.087866 2.382184 -3.152137 0
M  V30 51 H -3.747225 2.229097 -1.423716 0
M  V30 52 H -5.235523 1.487239 -2.002399 0
M  V30 53 H -3.104186 -0.333471 -4.424903 0
M  V30 54 H -2.381999 1.289115 -4.039248 0
M  V30 55 H -1.649801 -0.175883 -3.413853 0
M  V30 56 H 0.093477 -0.523326 0.473596 0
M  V30 57 H 2.598250 -4.173501 1.773193 0
M  V30 58 H 1.981180 -6.444018 1.008551 0
M  V30 59 H -0.410000 -7.132906 0.771738 0
M  V30 60 H -2.118149 -5.502149 1.312597 0
M  V30 61 H -1.563083 -3.314542 2.047782 0
M  V30 END ATOM
M  V30 BEGIN BOND
M  V30 1 1 1 2
M  V30 2 1 2 3
M  V30 3 1 3 4
M  V30 4 1 4 5
M  V30 5 1 5 6
M  V30 6 2 6 7
M  V30 7 1 7 8
M  V30 8 2 8 9
M  V30 9 1 9 10
M  V30 10 2 10 11
M  V30 11 1 11 12
M  V30 12 1 12 13
M  V30 13 2 12 14
M  V30 14 1 11 15
M  V30 15 2 15 16
M  V30 16 1 16 17
M  V30 17 1 17 18
M  V30 18 1 18 19
M  V30 19 1 19 20
M  V30 20 1 20 21
M  V30 21 1 21 22
M  V30 22 1 21 23
M  V30 23 1 16 24
M  V30 24 2 24 25
M  V30 25 1 4 26
M  V30 26 2 26 27
M  V30 27 1 27 28
M  V30 28 2 28 29
M  V30 29 1 29 30
M  V30 30 2 30 31
M  V30 31 1 25 6
M  V30 32 1 31 26
M  V30 33 1 25 10
M  V30 34 1 1 32
M  V30 35 1 1 33
M  V30 36 1 1 34
M  V30 37 1 2 35
M  V30 38 1 3 36
M  V30 39 1 3 37
M  V30 40 1 4 38
M  V30 41 1 5 39
M  V30 42 1 8 40
M  V30 43 1 13 41
M  V30 44 1 13 42
M  V30 45 1 15 43
M  V30 46 1 18 44
M  V30 47 1 18 45
M  V30 48 1 19 46
M  V30 49 1 19 47
M  V30 50 1 20 48
M  V30 51 1 20 49
M  V30 52 1 22 50
M  V30 53 1 22 51
M  V30 54 1 22 52
M  V30 55 1 23 53
M  V30 56 1 23 54
M  V30 57 1 23 55
M  V30 58 1 24 56
M  V30 59 1 27 57
M  V30 60 1 28 58
M  V30 61 1 29 59
M  V30 62 1 30 60
M  V30 63 1 31 61
M  V30 END BOND
M  V30 END CTAB
M  END
>  <Dataset>  (932) 
ChEMBL_Kinases

>  <Ligand_Instance>  (932) 
nan

>  <PDB_ID>  (932) 
nan

>  <Standardized_SMILES>  (932) 
CNCC(Nc1ncnc2c(C(N)=O)cc(OCCCN(C)C)cc12)c1ccccc1

>  <Name>  (932) 
nan

>  <Pocket>  (932) 
nan

>  <ATP_Site>  (932) 
nan

>  <Peripheral>  (932) 
nan

>  <Num_H_Atoms_ProtBoundConf>  (932) 
nan

>  <Num_Resolved_Atoms>  (932) 
nan

>  <Num_Not_Resolved_Atoms>  (932) 
nan

$$$$
CHEMBL3680514
     RDKit          3D

  0  0  0  0  0  0  0  0  0  0999 V3000
M  V30 BEGIN CTAB
M  V30 COUNTS 60 63 0 0 0
M  V30 BEGIN ATOM
M  V30 1 C 4.261863 -0.867985 4.602304 0
M  V30 2 N 3.111317 -0.562261 3.702591 0
M  V30 3 C 2.620799 -1.879241 3.342266 0
M  V30 4 C 3.669224 0.091576 2.580352 0
M  V30 5 C 2.795758 0.653107 1.538589 0
M  V30 6 N 1.930302 -0.223807 0.806253 0
M  V30 7 C 1.034058 0.433095 -0.118349 0
M  V30 8 N 1.033924 1.767059 -0.259191 0
M  V30 9 C 0.225659 2.428834 -1.099350 0
M  V30 10 N -0.629782 1.705319 -1.838131 0
M  V30 11 C -0.659101 0.362367 -1.724466 0
M  V30 12 C -1.571056 -0.292411 -2.523910 0
M  V30 13 C -2.481507 0.355567 -3.460633 0
M  V30 14 N -2.404663 1.769802 -3.542786 0
M  V30 15 O -3.325982 -0.185171 -4.204035 0
M  V30 16 C -1.593707 -1.660037 -2.400366 0
M  V30 17 C -0.822749 -2.444784 -1.581931 0
M  V30 18 O -0.741195 -3.755542 -1.362736 0
M  V30 19 C -1.446982 -4.806473 -1.906727 0
M  V30 20 C -2.908150 -4.804110 -1.665001 0
M  V30 21 C -4.001056 -4.398081 -2.388372 0
M  V30 22 C -5.284559 -4.492880 -1.902342 0
M  V30 23 C -5.546806 -5.006175 -0.650193 0
M  V30 24 F -6.853474 -5.045242 -0.290608 0
M  V30 25 C -4.475938 -5.436743 0.134076 0
M  V30 26 C -3.203886 -5.319578 -0.401753 0
M  V30 27 C 0.075836 -1.719426 -0.803091 0
M  V30 28 C 0.166411 -0.329795 -0.864656 0
M  V30 29 C 2.026471 1.794722 2.142171 0
M  V30 30 C 0.821768 1.592332 2.796992 0
M  V30 31 C 0.101878 2.646309 3.361092 0
M  V30 32 C 0.605360 3.930590 3.263728 0
M  V30 33 C 1.793261 4.176828 2.624917 0
M  V30 34 F 2.340772 5.416335 2.495881 0
M  V30 35 C 2.453473 3.105207 2.092244 0
M  V30 36 H 3.963294 -1.685009 5.286436 0
M  V30 37 H 5.069039 -1.220477 3.914810 0
M  V30 38 H 4.593365 0.046788 5.093991 0
M  V30 39 H 1.550077 -1.810757 3.140491 0
M  V30 40 H 2.696656 -2.533328 4.266557 0
M  V30 41 H 3.228938 -2.356398 2.547556 0
M  V30 42 H 4.455111 -0.616686 2.156969 0
M  V30 43 H 4.290617 0.950677 2.972910 0
M  V30 44 H 3.481079 1.174456 0.793585 0
M  V30 45 H 1.979801 -1.238873 0.942884 0
M  V30 46 H 0.267306 3.510964 -1.174046 0
M  V30 47 H -2.021433 2.614734 -4.007581 0
M  V30 48 H -2.950208 2.378660 -2.864817 0
M  V30 49 H -2.286506 -2.197990 -3.015824 0
M  V30 50 H -1.319008 -4.839992 -3.037249 0
M  V30 51 H -1.035327 -5.809622 -1.588639 0
M  V30 52 H -3.703205 -4.019973 -3.360200 0
M  V30 53 H -6.032980 -4.121023 -2.615544 0
M  V30 54 H -4.719843 -5.831003 1.104256 0
M  V30 55 H -2.468774 -5.694627 0.321387 0
M  V30 56 H 0.731923 -2.215633 -0.125124 0
M  V30 57 H 0.407316 0.588276 2.885433 0
M  V30 58 H -0.835711 2.505407 3.872071 0
M  V30 59 H 0.098219 4.806078 3.681072 0
M  V30 60 H 3.399387 3.271076 1.578658 0
M  V30 END ATOM
M  V30 BEGIN BOND
M  V30 1 1 1 2
M  V30 2 1 2 3
M  V30 3 1 2 4
M  V30 4 1 4 5
M  V30 5 1 5 6
M  V30 6 1 6 7
M  V30 7 2 7 8
M  V30 8 1 8 9
M  V30 9 2 9 10
M  V30 10 1 10 11
M  V30 11 2 11 12
M  V30 12 1 12 13
M  V30 13 1 13 14
M  V30 14 2 13 15
M  V30 15 1 12 16
M  V30 16 2 16 17
M  V30 17 1 17 18
M  V30 18 1 18 19
M  V30 19 1 19 20
M  V30 20 2 20 21
M  V30 21 1 21 22
M  V30 22 2 22 23
M  V30 23 1 23 24
M  V30 24 1 23 25
M  V30 25 2 25 26
M  V30 26 1 17 27
M  V30 27 2 27 28
M  V30 28 1 5 29
M  V30 29 2 29 30
M  V30 30 1 30 31
M  V30 31 2 31 32
M  V30 32 1 32 33
M  V30 33 1 33 34
M  V30 34 2 33 35
M  V30 35 1 28 7
M  V30 36 1 35 29
M  V30 37 1 28 11
M  V30 38 1 26 20
M  V30 39 1 1 36
M  V30 40 1 1 37
M  V30 41 1 1 38
M  V30 42 1 3 39
M  V30 43 1 3 40
M  V30 44 1 3 41
M  V30 45 1 4 42
M  V30 46 1 4 43
M  V30 47 1 5 44
M  V30 48 1 6 45
M  V30 49 1 9 46
M  V30 50 1 14 47
M  V30 51 1 14 48
M  V30 52 1 16 49
M  V30 53 1 19 50
M  V30 54 1 19 51
M  V30 55 1 21 52
M  V30 56 1 22 53
M  V30 57 1 25 54
M  V30 58 1 26 55
M  V30 59 1 27 56
M  V30 60 1 30 57
M  V30 61 1 31 58
M  V30 62 1 32 59
M  V30 63 1 35 60
M  V30 END BOND
M  V30 END CTAB
M  END
>  <Dataset>  (933) 
ChEMBL_Kinases

>  <Ligand_Instance>  (933) 
nan

>  <PDB_ID>  (933) 
nan

>  <Standardized_SMILES>  (933) 
CN(C)CC(Nc1ncnc2c(C(N)=O)cc(OCc3ccc(F)cc3)cc12)c1cccc(F)c1

>  <Name>  (933) 
nan

>  <Pocket>  (933) 
nan

>  <ATP_Site>  (933) 
nan

>  <Peripheral>  (933) 
nan

>  <Num_H_Atoms_ProtBoundConf>  (933) 
nan

>  <Num_Resolved_Atoms>  (933) 
nan

>  <Num_Not_Resolved_Atoms>  (933) 
nan

$$$$
CHEMBL3680519
     RDKit          3D

  0  0  0  0  0  0  0  0  0  0999 V3000
M  V30 BEGIN CTAB
M  V30 COUNTS 54 57 0 0 0
M  V30 BEGIN ATOM
M  V30 1 C 0.892968 -3.206768 3.996099 0
M  V30 2 C 1.682380 -2.639327 2.834908 0
M  V30 3 N 1.808127 -1.251179 3.018191 0
M  V30 4 C 2.517571 -0.515774 2.038166 0
M  V30 5 N 3.049671 -1.132446 0.971358 0
M  V30 6 C 3.717506 -0.419921 0.054171 0
M  V30 7 N 3.894777 0.929551 0.140049 0
M  V30 8 C 3.386771 1.618774 1.187140 0
M  V30 9 C 3.556461 2.981537 1.289956 0
M  V30 10 C 4.292785 3.682660 0.254354 0
M  V30 11 N 4.466148 5.104045 0.367189 0
M  V30 12 O 4.748007 2.980427 -0.708505 0
M  V30 13 C 3.026560 3.656275 2.370190 0
M  V30 14 C 2.333929 2.929860 3.324962 0
M  V30 15 F 1.837745 3.640426 4.359053 0
M  V30 16 C 2.196134 1.576338 3.171281 0
M  V30 17 C 2.703131 0.852562 2.115509 0
M  V30 18 C 1.156276 -3.185580 1.625581 0
M  V30 19 C 1.728863 -4.272098 0.954578 0
M  V30 20 C 1.155950 -4.737074 -0.209909 0
M  V30 21 C 0.021310 -4.155628 -0.739194 0
M  V30 22 C -0.555220 -3.070215 -0.073803 0
M  V30 23 N -1.724348 -2.507865 -0.663593 0
M  V30 24 C -3.119939 -2.748323 -0.539783 0
M  V30 25 O -3.553562 -3.636368 0.237279 0
M  V30 26 C -4.034029 -1.959515 -1.317786 0
M  V30 27 C -5.373778 -2.243735 -1.147497 0
M  V30 28 C -6.338931 -1.528943 -1.861945 0
M  V30 29 C -5.952423 -0.535763 -2.740616 0
M  V30 30 C -7.019805 0.191667 -3.473408 0
M  V30 31 F -7.969615 0.641188 -2.558751 0
M  V30 32 F -6.539295 1.270937 -4.165933 0
M  V30 33 F -7.592252 -0.733540 -4.354603 0
M  V30 34 N -4.629796 -0.273922 -2.891660 0
M  V30 35 C -3.699198 -0.975691 -2.191336 0
M  V30 36 C 0.038363 -2.618705 1.096994 0
M  V30 37 H -0.196216 -3.144214 3.792695 0
M  V30 38 H 1.197741 -4.246302 4.235262 0
M  V30 39 H 1.044816 -2.612837 4.929115 0
M  V30 40 H 2.717195 -3.074351 2.978531 0
M  V30 41 H 1.380589 -0.805940 3.861059 0
M  V30 42 H 4.141625 -0.931723 -0.801930 0
M  V30 43 H 4.166940 5.899979 -0.235548 0
M  V30 44 H 4.074521 5.750224 -0.372235 0
M  V30 45 H 3.196327 4.724198 2.389218 0
M  V30 46 H 1.639295 1.123759 3.976055 0
M  V30 47 H 2.617211 -4.673453 1.432994 0
M  V30 48 H 1.710604 -5.584484 -0.617621 0
M  V30 49 H -0.352999 -4.584836 -1.648310 0
M  V30 50 H -1.276414 -1.798140 -1.277732 0
M  V30 51 H -5.771404 -2.999452 -0.485804 0
M  V30 52 H -7.401878 -1.745329 -1.735074 0
M  V30 53 H -2.655179 -0.740859 -2.336329 0
M  V30 54 H -0.451059 -1.787558 1.555668 0
M  V30 END ATOM
M  V30 BEGIN BOND
M  V30 1 1 1 2
M  V30 2 1 2 3
M  V30 3 1 3 4
M  V30 4 2 4 5
M  V30 5 1 5 6
M  V30 6 2 6 7
M  V30 7 1 7 8
M  V30 8 2 8 9
M  V30 9 1 9 10
M  V30 10 1 10 11
M  V30 11 2 10 12
M  V30 12 1 9 13
M  V30 13 2 13 14
M  V30 14 1 14 15
M  V30 15 1 14 16
M  V30 16 2 16 17
M  V30 17 1 2 18
M  V30 18 2 18 19
M  V30 19 1 19 20
M  V30 20 2 20 21
M  V30 21 1 21 22
M  V30 22 1 22 23
M  V30 23 1 23 24
M  V30 24 2 24 25
M  V30 25 1 24 26
M  V30 26 2 26 27
M  V30 27 1 27 28
M  V30 28 2 28 29
M  V30 29 1 29 30
M  V30 30 1 30 31
M  V30 31 1 30 32
M  V30 32 1 30 33
M  V30 33 1 29 34
M  V30 34 2 34 35
M  V30 35 2 22 36
M  V30 36 1 17 4
M  V30 37 1 36 18
M  V30 38 1 17 8
M  V30 39 1 35 26
M  V30 40 1 1 37
M  V30 41 1 1 38
M  V30 42 1 1 39
M  V30 43 1 2 40
M  V30 44 1 3 41
M  V30 45 1 6 42
M  V30 46 1 11 43
M  V30 47 1 11 44
M  V30 48 1 13 45
M  V30 49 1 16 46
M  V30 50 1 19 47
M  V30 51 1 20 48
M  V30 52 1 21 49
M  V30 53 1 23 50
M  V30 54 1 27 51
M  V30 55 1 28 52
M  V30 56 1 35 53
M  V30 57 1 36 54
M  V30 END BOND
M  V30 END CTAB
M  END
>  <Dataset>  (934) 
ChEMBL_Kinases

>  <Ligand_Instance>  (934) 
nan

>  <PDB_ID>  (934) 
nan

>  <Standardized_SMILES>  (934) 
CC(Nc1ncnc2c(C(N)=O)cc(F)cc12)c1cccc(NC(=O)c2ccc(C(F)(F)F)nc2)c1

>  <Name>  (934) 
nan

>  <Pocket>  (934) 
nan

>  <ATP_Site>  (934) 
nan

>  <Peripheral>  (934) 
nan

>  <Num_H_Atoms_ProtBoundConf>  (934) 
nan

>  <Num_Resolved_Atoms>  (934) 
nan

>  <Num_Not_Resolved_Atoms>  (934) 
nan

$$$$
CHEMBL3701738
     RDKit          3D

  0  0  0  0  0  0  0  0  0  0999 V3000
M  V30 BEGIN CTAB
M  V30 COUNTS 68 74 0 0 0
M  V30 BEGIN ATOM
M  V30 1 C 1.792270 -2.198365 4.875405 0
M  V30 2 C 3.167670 -1.616690 4.779831 0
M  V30 3 O 3.276458 -0.807903 3.632850 0
M  V30 4 C 4.448741 -0.134414 3.278603 0
M  V30 5 C 5.598409 -0.215038 4.037622 0
M  V30 6 C 6.668252 0.494499 3.571552 0
M  V30 7 C 6.655818 1.270067 2.406270 0
M  V30 8 C 5.470307 1.326254 1.664652 0
M  V30 9 C 4.385382 0.616630 2.121834 0
M  V30 10 C 3.161399 0.678930 1.336059 0
M  V30 11 N 1.929739 0.121301 1.502292 0
M  V30 12 C 1.134971 0.514966 0.469316 0
M  V30 13 C -0.232353 0.004069 0.506956 0
M  V30 14 C -0.304722 -1.345739 0.216912 0
M  V30 15 C -1.515668 -2.009038 0.207260 0
M  V30 16 C -2.714675 -1.363104 0.485143 0
M  V30 17 C -4.099751 -1.813275 0.521261 0
M  V30 18 N -4.707617 -1.554552 1.823804 0
M  V30 19 C -4.991220 -1.548578 -0.650237 0
M  V30 20 C -4.507991 -2.841824 -1.252867 0
M  V30 21 O -3.371282 -2.761122 -2.012764 0
M  V30 22 C -5.533353 -3.697753 -1.943458 0
M  V30 23 C -5.051071 -4.980959 -2.624317 0
M  V30 24 C -5.742949 -5.063404 -1.321965 0
M  V30 25 C -4.306573 -3.302145 0.197871 0
M  V30 26 C -2.595399 -0.019213 0.768534 0
M  V30 27 C -1.417554 0.696686 0.793782 0
M  V30 28 C 1.886540 1.329157 -0.350252 0
M  V30 29 C 1.276913 1.884535 -1.527856 0
M  V30 30 C 0.845009 0.981699 -2.508140 0
M  V30 31 C 0.247368 1.489538 -3.668623 0
M  V30 32 C 0.103275 2.853762 -3.810838 0
M  V30 33 C 0.522866 3.743749 -2.857428 0
M  V30 34 C 1.109170 3.254145 -1.717332 0
M  V30 35 N 3.109379 1.404901 0.207694 0
M  V30 36 C 4.238500 2.147306 -0.313667 0
M  V30 37 O 5.387307 2.074319 0.503328 0
M  V30 38 H 1.758616 -3.214521 5.326857 0
M  V30 39 H 1.133114 -1.547542 5.498302 0
M  V30 40 H 1.282990 -2.278437 3.883882 0
M  V30 41 H 3.339247 -1.028309 5.711638 0
M  V30 42 H 3.898276 -2.438921 4.688350 0
M  V30 43 H 5.623654 -0.808087 4.936880 0
M  V30 44 H 7.608918 0.488196 4.103846 0
M  V30 45 H 7.509939 1.828026 2.046239 0
M  V30 46 H 0.539503 -1.994930 -0.022645 0
M  V30 47 H -1.613150 -3.061434 -0.003508 0
M  V30 48 H -4.471478 -2.398906 2.429265 0
M  V30 49 H -4.239724 -0.761480 2.315724 0
M  V30 50 H -6.060855 -1.653839 -0.359331 0
M  V30 51 H -4.837595 -0.638844 -1.223047 0
M  V30 52 H -3.328462 -1.860963 -2.434707 0
M  V30 53 H -6.452946 -3.253467 -2.358813 0
M  V30 54 H -5.560726 -5.288494 -3.556796 0
M  V30 55 H -3.941702 -5.107115 -2.625037 0
M  V30 56 H -6.753699 -5.532116 -1.328900 0
M  V30 57 H -5.157322 -5.386647 -0.443353 0
M  V30 58 H -3.403345 -3.908215 0.268786 0
M  V30 59 H -5.229102 -3.710196 0.662414 0
M  V30 60 H -3.407121 0.655277 1.009375 0
M  V30 61 H -1.257401 1.720005 1.002092 0
M  V30 62 H 0.958218 -0.107845 -2.398599 0
M  V30 63 H -0.088249 0.767958 -4.431271 0
M  V30 64 H -0.361995 3.151573 -4.725121 0
M  V30 65 H 0.396148 4.821471 -2.993739 0
M  V30 66 H 1.464279 3.894589 -0.922183 0
M  V30 67 H 3.952356 3.182230 -0.578685 0
M  V30 68 H 4.558819 1.676721 -1.292234 0
M  V30 END ATOM
M  V30 BEGIN BOND
M  V30 1 1 1 2
M  V30 2 1 2 3
M  V30 3 1 3 4
M  V30 4 2 4 5
M  V30 5 1 5 6
M  V30 6 2 6 7
M  V30 7 1 7 8
M  V30 8 2 8 9
M  V30 9 1 9 10
M  V30 10 2 10 11
M  V30 11 1 11 12
M  V30 12 1 12 13
M  V30 13 2 13 14
M  V30 14 1 14 15
M  V30 15 2 15 16
M  V30 16 1 16 17
M  V30 17 1 17 18
M  V30 18 1 17 19
M  V30 19 1 19 20
M  V30 20 1 20 21
M  V30 21 1 20 22
M  V30 22 1 22 23
M  V30 23 1 23 24
M  V30 24 1 20 25
M  V30 25 1 16 26
M  V30 26 2 26 27
M  V30 27 2 12 28
M  V30 28 1 28 29
M  V30 29 2 29 30
M  V30 30 1 30 31
M  V30 31 2 31 32
M  V30 32 1 32 33
M  V30 33 2 33 34
M  V30 34 1 28 35
M  V30 35 1 35 36
M  V30 36 1 36 37
M  V30 37 1 9 4
M  V30 38 1 35 10
M  V30 39 1 37 8
M  V30 40 1 27 13
M  V30 41 1 34 29
M  V30 42 1 25 17
M  V30 43 1 24 22
M  V30 44 1 1 38
M  V30 45 1 1 39
M  V30 46 1 1 40
M  V30 47 1 2 41
M  V30 48 1 2 42
M  V30 49 1 5 43
M  V30 50 1 6 44
M  V30 51 1 7 45
M  V30 52 1 14 46
M  V30 53 1 15 47
M  V30 54 1 18 48
M  V30 55 1 18 49
M  V30 56 1 19 50
M  V30 57 1 19 51
M  V30 58 1 21 52
M  V30 59 1 22 53
M  V30 60 1 23 54
M  V30 61 1 23 55
M  V30 62 1 24 56
M  V30 63 1 24 57
M  V30 64 1 25 58
M  V30 65 1 25 59
M  V30 66 1 26 60
M  V30 67 1 27 61
M  V30 68 1 30 62
M  V30 69 1 31 63
M  V30 70 1 32 64
M  V30 71 1 33 65
M  V30 72 1 34 66
M  V30 73 1 36 67
M  V30 74 1 36 68
M  V30 END BOND
M  V30 END CTAB
M  END
>  <Dataset>  (935) 
ChEMBL_Kinases

>  <Ligand_Instance>  (935) 
nan

>  <PDB_ID>  (935) 
nan

>  <Standardized_SMILES>  (935) 
CCOc1cccc2c1-c1nc(-c3ccc(C4(N)CC(O)(C5CC5)C4)cc3)c(-c3ccccc3)n1CO2

>  <Name>  (935) 
nan

>  <Pocket>  (935) 
nan

>  <ATP_Site>  (935) 
nan

>  <Peripheral>  (935) 
nan

>  <Num_H_Atoms_ProtBoundConf>  (935) 
nan

>  <Num_Resolved_Atoms>  (935) 
nan

>  <Num_Not_Resolved_Atoms>  (935) 
nan

$$$$
CHEMBL2151190
     RDKit          3D

  0  0  0  0  0  0  0  0  0  0999 V3000
M  V30 BEGIN CTAB
M  V30 COUNTS 34 37 0 0 0
M  V30 BEGIN ATOM
M  V30 1 C -1.146800 -3.426098 2.948951 0
M  V30 2 N -0.875139 -2.260865 2.135186 0
M  V30 3 N 0.193229 -2.131193 1.380247 0
M  V30 4 C 0.466469 -1.055390 0.614567 0
M  V30 5 C 1.674149 -0.961728 -0.209744 0
M  V30 6 C 2.548345 -2.028487 -0.183340 0
M  V30 7 C 3.686979 -1.923485 -0.969671 0
M  V30 8 C 3.918891 -0.802000 -1.733976 0
M  V30 9 C 3.020223 0.266634 -1.745747 0
M  V30 10 C 1.878107 0.175327 -0.964711 0
M  V30 11 O 3.554638 1.226904 -2.615103 0
M  V30 12 C 4.515234 0.582145 -3.458281 0
M  V30 13 O 4.958210 -0.448669 -2.593127 0
M  V30 14 N -0.433959 -0.048431 0.637812 0
M  V30 15 C -1.562724 -0.066306 1.370008 0
M  V30 16 C -2.466125 0.983670 1.371522 0
M  V30 17 O -2.213068 1.981626 0.661510 0
M  V30 18 N -3.576107 0.891007 2.132761 0
M  V30 19 C -4.503544 2.007341 2.113199 0
M  V30 20 C -3.770707 -0.216766 2.865670 0
M  V30 21 O -4.829066 -0.275432 3.575196 0
M  V30 22 N -2.929917 -1.266800 2.904257 0
M  V30 23 C -1.779547 -1.271329 2.170546 0
M  V30 24 H -0.183728 -3.889006 3.306740 0
M  V30 25 H -1.668377 -3.133074 3.885676 0
M  V30 26 H -1.675732 -4.223548 2.380512 0
M  V30 27 H 2.372938 -2.901062 0.408116 0
M  V30 28 H 4.422279 -2.721011 -1.002243 0
M  V30 29 H 1.184036 1.012256 -0.980178 0
M  V30 30 H 3.960748 0.189269 -4.330697 0
M  V30 31 H 5.303271 1.263919 -3.775324 0
M  V30 32 H -5.401803 1.831621 2.699963 0
M  V30 33 H -4.720172 2.186839 1.024808 0
M  V30 34 H -3.922836 2.908638 2.433137 0
M  V30 END ATOM
M  V30 BEGIN BOND
M  V30 1 1 1 2
M  V30 2 1 2 3
M  V30 3 2 3 4
M  V30 4 1 4 5
M  V30 5 2 5 6
M  V30 6 1 6 7
M  V30 7 2 7 8
M  V30 8 1 8 9
M  V30 9 2 9 10
M  V30 10 1 9 11
M  V30 11 1 11 12
M  V30 12 1 12 13
M  V30 13 1 4 14
M  V30 14 2 14 15
M  V30 15 1 15 16
M  V30 16 2 16 17
M  V30 17 1 16 18
M  V30 18 1 18 19
M  V30 19 1 18 20
M  V30 20 2 20 21
M  V30 21 1 20 22
M  V30 22 2 22 23
M  V30 23 1 23 2
M  V30 24 1 10 5
M  V30 25 1 23 15
M  V30 26 1 13 8
M  V30 27 1 1 24
M  V30 28 1 1 25
M  V30 29 1 1 26
M  V30 30 1 6 27
M  V30 31 1 7 28
M  V30 32 1 10 29
M  V30 33 1 12 30
M  V30 34 1 12 31
M  V30 35 1 19 32
M  V30 36 1 19 33
M  V30 37 1 19 34
M  V30 END BOND
M  V30 END CTAB
M  END
>  <Dataset>  (936) 
ChEMBL_Kinases

>  <Ligand_Instance>  (936) 
nan

>  <PDB_ID>  (936) 
nan

>  <Standardized_SMILES>  (936) 
Cn1nc(-c2ccc3c(c2)OCO3)nc2c(=O)n(C)c(=O)nc1-2

>  <Name>  (936) 
nan

>  <Pocket>  (936) 
nan

>  <ATP_Site>  (936) 
nan

>  <Peripheral>  (936) 
nan

>  <Num_H_Atoms_ProtBoundConf>  (936) 
nan

>  <Num_Resolved_Atoms>  (936) 
nan

>  <Num_Not_Resolved_Atoms>  (936) 
nan

$$$$
CHEMBL3680535
     RDKit          3D

  0  0  0  0  0  0  0  0  0  0999 V3000
M  V30 BEGIN CTAB
M  V30 COUNTS 55 58 0 0 0
M  V30 BEGIN ATOM
M  V30 1 N 0.822235 -2.822351 5.090283 0
M  V30 2 C 1.757982 -3.515494 4.285835 0
M  V30 3 O 2.229860 -4.607235 4.686071 0
M  V30 4 C 2.139821 -2.925006 3.009269 0
M  V30 5 C 3.047960 -3.589209 2.218647 0
M  V30 6 C 3.406372 -3.024822 1.017635 0
M  V30 7 C 2.841453 -1.820092 0.658146 0
M  V30 8 C 1.931994 -1.110240 1.401752 0
M  V30 9 C 1.392059 0.093276 1.006440 0
M  V30 10 N 1.743568 0.669648 -0.221223 0
M  V30 11 C 1.278800 1.924865 -0.767115 0
M  V30 12 C 1.799231 3.053424 0.066731 0
M  V30 13 O 1.418941 3.066514 1.379642 0
M  V30 14 C -0.232260 1.970669 -0.819101 0
M  V30 15 C -0.863222 3.079923 -0.300644 0
M  V30 16 C -2.228001 3.192469 -0.331159 0
M  V30 17 C -2.982578 2.183428 -0.887899 0
M  V30 18 C -2.376670 1.041776 -1.424470 0
M  V30 19 N -3.149244 -0.019098 -2.025718 0
M  V30 20 C -2.581308 -1.222668 -2.592981 0
M  V30 21 O -3.667842 -1.954513 -3.139805 0
M  V30 22 C -1.973939 -2.111739 -1.534398 0
M  V30 23 C -0.765160 -2.773349 -1.509273 0
M  V30 24 C -0.462702 -3.534433 -0.413813 0
M  V30 25 C -1.330487 -3.651811 0.651640 0
M  V30 26 Br -0.850902 -4.730812 2.141146 0
M  V30 27 C -2.542315 -2.997859 0.644421 0
M  V30 28 C -2.869174 -2.216187 -0.464791 0
M  V30 29 C -0.999681 0.991129 -1.361418 0
M  V30 30 N 0.513582 0.686069 1.827562 0
M  V30 31 C 0.202129 0.090237 2.983569 0
M  V30 32 N 0.717700 -1.101146 3.407031 0
M  V30 33 C 1.614925 -1.726724 2.590038 0
M  V30 34 H 0.137371 -2.316308 5.678133 0
M  V30 35 H 0.575903 -2.037427 5.740043 0
M  V30 36 H 3.407087 -4.519623 2.624162 0
M  V30 37 H 4.121234 -3.557659 0.405982 0
M  V30 38 H 3.186501 -1.462033 -0.297857 0
M  V30 39 H 2.408136 0.199825 -0.865358 0
M  V30 40 H 1.677329 2.094197 -1.798713 0
M  V30 41 H 2.925485 2.925703 0.075414 0
M  V30 42 H 1.568592 4.053553 -0.387547 0
M  V30 43 H 2.168698 2.998625 2.035793 0
M  V30 44 H -0.377980 3.926335 0.157686 0
M  V30 45 H -2.775027 4.040870 0.061438 0
M  V30 46 H -4.060639 2.241506 -0.927574 0
M  V30 47 H -4.198907 0.155327 -2.020273 0
M  V30 48 H -1.873051 -1.062536 -3.402542 0
M  V30 49 H -4.170485 -2.414928 -2.399595 0
M  V30 50 H -0.201333 -2.583473 -2.409240 0
M  V30 51 H 0.504247 -4.024991 -0.464599 0
M  V30 52 H -3.195431 -3.118397 1.505768 0
M  V30 53 H -3.841506 -1.751643 -0.360392 0
M  V30 54 H -0.512570 0.115791 -1.770626 0
M  V30 55 H -0.511696 0.567713 3.655092 0
M  V30 END ATOM
M  V30 BEGIN BOND
M  V30 1 1 1 2
M  V30 2 2 2 3
M  V30 3 1 2 4
M  V30 4 2 4 5
M  V30 5 1 5 6
M  V30 6 2 6 7
M  V30 7 1 7 8
M  V30 8 2 8 9
M  V30 9 1 9 10
M  V30 10 1 10 11
M  V30 11 1 11 12
M  V30 12 1 12 13
M  V30 13 1 11 14
M  V30 14 2 14 15
M  V30 15 1 15 16
M  V30 16 2 16 17
M  V30 17 1 17 18
M  V30 18 1 18 19
M  V30 19 1 19 20
M  V30 20 1 20 21
M  V30 21 1 20 22
M  V30 22 2 22 23
M  V30 23 1 23 24
M  V30 24 2 24 25
M  V30 25 1 25 26
M  V30 26 1 25 27
M  V30 27 2 27 28
M  V30 28 2 18 29
M  V30 29 1 9 30
M  V30 30 2 30 31
M  V30 31 1 31 32
M  V30 32 2 32 33
M  V30 33 1 33 4
M  V30 34 1 33 8
M  V30 35 1 29 14
M  V30 36 1 28 22
M  V30 37 1 1 34
M  V30 38 1 1 35
M  V30 39 1 5 36
M  V30 40 1 6 37
M  V30 41 1 7 38
M  V30 42 1 10 39
M  V30 43 1 11 40
M  V30 44 1 12 41
M  V30 45 1 12 42
M  V30 46 1 13 43
M  V30 47 1 15 44
M  V30 48 1 16 45
M  V30 49 1 17 46
M  V30 50 1 19 47
M  V30 51 1 20 48
M  V30 52 1 21 49
M  V30 53 1 23 50
M  V30 54 1 24 51
M  V30 55 1 27 52
M  V30 56 1 28 53
M  V30 57 1 29 54
M  V30 58 1 31 55
M  V30 END BOND
M  V30 END CTAB
M  END
>  <Dataset>  (937) 
ChEMBL_Kinases

>  <Ligand_Instance>  (937) 
nan

>  <PDB_ID>  (937) 
nan

>  <Standardized_SMILES>  (937) 
NC(=O)c1cccc2c(NC(CO)c3cccc(NC(O)c4ccc(Br)cc4)c3)ncnc12

>  <Name>  (937) 
nan

>  <Pocket>  (937) 
nan

>  <ATP_Site>  (937) 
nan

>  <Peripheral>  (937) 
nan

>  <Num_H_Atoms_ProtBoundConf>  (937) 
nan

>  <Num_Resolved_Atoms>  (937) 
nan

>  <Num_Not_Resolved_Atoms>  (937) 
nan

$$$$
CHEMBL215086
     RDKit          3D

  0  0  0  0  0  0  0  0  0  0999 V3000
M  V30 BEGIN CTAB
M  V30 COUNTS 51 53 0 0 0
M  V30 BEGIN ATOM
M  V30 1 C 2.501153 1.928828 -4.876379 0
M  V30 2 O 2.569132 1.409090 -3.548205 0
M  V30 3 C 3.732609 0.960149 -2.985775 0
M  V30 4 C 4.918088 1.004476 -3.729126 0
M  V30 5 C 6.054109 0.536788 -3.103049 0
M  V30 6 F 7.248658 0.551332 -3.772993 0
M  V30 7 C 6.070068 0.042851 -1.815437 0
M  V30 8 F 7.182066 -0.414664 -1.203524 0
M  V30 9 C 4.865067 0.027583 -1.137728 0
M  V30 10 C 3.679677 0.474540 -1.683739 0
M  V30 11 C 2.403947 0.467548 -0.979882 0
M  V30 12 O 1.831122 1.573943 -1.141898 0
M  V30 13 C 1.755896 -0.563400 -0.180150 0
M  V30 14 C 2.297427 -1.813253 0.031230 0
M  V30 15 N 1.609725 -2.694904 0.786010 0
M  V30 16 C 0.406719 -2.366256 1.330943 0
M  V30 17 N -0.308595 -3.305491 2.125168 0
M  V30 18 C -1.572898 -2.966268 2.700258 0
M  V30 19 C -1.514472 -1.782394 3.645218 0
M  V30 20 C -2.805411 -1.804649 4.432982 0
M  V30 21 N -3.970311 -2.075827 3.649208 0
M  V30 22 S -5.264745 -1.114897 4.231380 0
M  V30 23 C -4.939123 0.632617 4.093014 0
M  V30 24 O -5.518351 -1.433586 5.679804 0
M  V30 25 O -6.527449 -1.378312 3.444337 0
M  V30 26 C -3.792310 -1.910922 2.223209 0
M  V30 27 C -2.670737 -2.743191 1.680780 0
M  V30 28 N -0.105941 -1.140307 1.113095 0
M  V30 29 C 0.539085 -0.200929 0.358533 0
M  V30 30 N -0.120242 1.027722 0.222819 0
M  V30 31 H 1.545857 2.450503 -5.054695 0
M  V30 32 H 2.722199 1.126635 -5.616246 0
M  V30 33 H 3.278971 2.736993 -4.924900 0
M  V30 34 H 4.927204 1.389245 -4.743032 0
M  V30 35 H 4.873067 -0.355332 -0.128177 0
M  V30 36 H 3.247323 -2.075583 -0.400640 0
M  V30 37 H 0.111454 -4.255494 2.281354 0
M  V30 38 H -1.939270 -3.810560 3.334708 0
M  V30 39 H -0.694993 -1.996485 4.363076 0
M  V30 40 H -1.333508 -0.828230 3.139749 0
M  V30 41 H -2.912425 -0.907803 5.076072 0
M  V30 42 H -2.705702 -2.658224 5.162260 0
M  V30 43 H -4.153277 0.983872 4.783837 0
M  V30 44 H -5.886240 1.128850 4.437186 0
M  V30 45 H -4.754906 0.870369 3.036051 0
M  V30 46 H -4.731392 -2.235055 1.732826 0
M  V30 47 H -3.684257 -0.820696 1.985998 0
M  V30 48 H -2.295768 -2.233273 0.771851 0
M  V30 49 H -3.093588 -3.704456 1.323139 0
M  V30 50 H -0.442154 1.651701 -0.540978 0
M  V30 51 H -0.384854 1.488099 1.115121 0
M  V30 END ATOM
M  V30 BEGIN BOND
M  V30 1 1 1 2
M  V30 2 1 2 3
M  V30 3 2 3 4
M  V30 4 1 4 5
M  V30 5 1 5 6
M  V30 6 2 5 7
M  V30 7 1 7 8
M  V30 8 1 7 9
M  V30 9 2 9 10
M  V30 10 1 10 11
M  V30 11 2 11 12
M  V30 12 1 11 13
M  V30 13 2 13 14
M  V30 14 1 14 15
M  V30 15 2 15 16
M  V30 16 1 16 17
M  V30 17 1 17 18
M  V30 18 1 18 19
M  V30 19 1 19 20
M  V30 20 1 20 21
M  V30 21 1 21 22
M  V30 22 1 22 23
M  V30 23 2 22 24
M  V30 24 2 22 25
M  V30 25 1 21 26
M  V30 26 1 26 27
M  V30 27 1 16 28
M  V30 28 2 28 29
M  V30 29 1 29 30
M  V30 30 1 10 3
M  V30 31 1 29 13
M  V30 32 1 27 18
M  V30 33 1 1 31
M  V30 34 1 1 32
M  V30 35 1 1 33
M  V30 36 1 4 34
M  V30 37 1 9 35
M  V30 38 1 14 36
M  V30 39 1 17 37
M  V30 40 1 18 38
M  V30 41 1 19 39
M  V30 42 1 19 40
M  V30 43 1 20 41
M  V30 44 1 20 42
M  V30 45 1 23 43
M  V30 46 1 23 44
M  V30 47 1 23 45
M  V30 48 1 26 46
M  V30 49 1 26 47
M  V30 50 1 27 48
M  V30 51 1 27 49
M  V30 52 1 30 50
M  V30 53 1 30 51
M  V30 END BOND
M  V30 END CTAB
M  END
>  <Dataset>  (938) 
ChEMBL_Kinases

>  <Ligand_Instance>  (938) 
nan

>  <PDB_ID>  (938) 
nan

>  <Standardized_SMILES>  (938) 
COc1cc(F)c(F)cc1C(=O)c1cnc(NC2CCN(S(C)(=O)=O)CC2)nc1N

>  <Name>  (938) 
nan

>  <Pocket>  (938) 
nan

>  <ATP_Site>  (938) 
nan

>  <Peripheral>  (938) 
nan

>  <Num_H_Atoms_ProtBoundConf>  (938) 
nan

>  <Num_Resolved_Atoms>  (938) 
nan

>  <Num_Not_Resolved_Atoms>  (938) 
nan

$$$$
CHEMBL3680534
     RDKit          3D

  0  0  0  0  0  0  0  0  0  0999 V3000
M  V30 BEGIN CTAB
M  V30 COUNTS 71 74 0 0 0
M  V30 BEGIN ATOM
M  V30 1 C 1.793032 -6.256390 2.276445 0
M  V30 2 C 1.539987 -4.794667 1.945557 0
M  V30 3 C 0.731175 -4.252925 3.126081 0
M  V30 4 O 0.837165 -4.633778 0.751283 0
M  V30 5 C 1.219719 -3.929360 -0.354302 0
M  V30 6 O 2.333608 -3.499827 0.021182 0
M  V30 7 N 1.535454 -3.223866 -1.541918 0
M  V30 8 C 2.824216 -2.562373 -1.471728 0
M  V30 9 C 0.603139 -3.230450 -2.643293 0
M  V30 10 C -0.383696 -2.101824 -2.575444 0
M  V30 11 N -1.194821 -2.123867 -1.373486 0
M  V30 12 C -2.159033 -1.100391 -1.211431 0
M  V30 13 N -2.322571 -0.139634 -2.133465 0
M  V30 14 C -3.203225 0.844078 -2.044305 0
M  V30 15 N -4.026615 0.952856 -0.982840 0
M  V30 16 C -3.924597 0.024862 -0.011390 0
M  V30 17 C -2.996190 -0.986539 -0.135977 0
M  V30 18 C -2.947327 -1.863231 0.851790 0
M  V30 19 C -3.690790 -2.026704 2.127301 0
M  V30 20 C -4.697407 -0.908252 2.226563 0
M  V30 21 C -4.656708 -0.002749 1.076923 0
M  V30 22 C -5.650076 1.073860 1.211146 0
M  V30 23 N -6.591887 1.347963 2.238045 0
M  V30 24 O -5.824558 1.993339 0.354655 0
M  V30 25 C 0.223851 -0.772755 -2.790955 0
M  V30 26 C 0.224669 -0.170977 -4.053877 0
M  V30 27 C 0.804639 1.085822 -4.229916 0
M  V30 28 C 1.387323 1.767776 -3.184734 0
M  V30 29 C 1.405126 1.197479 -1.908894 0
M  V30 30 N 1.968145 1.777466 -0.732474 0
M  V30 31 C 1.277478 2.616044 0.187688 0
M  V30 32 O 0.075963 2.832070 -0.106383 0
M  V30 33 C 1.943027 3.162280 1.365836 0
M  V30 34 C 3.258345 2.949474 1.723463 0
M  V30 35 C 3.759779 3.535768 2.877674 0
M  V30 36 C 2.978254 4.343304 3.703886 0
M  V30 37 Br 3.668196 5.146997 5.287340 0
M  V30 38 C 1.666947 4.548636 3.336926 0
M  V30 39 C 1.159680 3.969676 2.190891 0
M  V30 40 C 0.817915 -0.043944 -1.795883 0
M  V30 41 H 0.900397 -6.887301 2.216408 0
M  V30 42 H 2.629249 -6.662651 1.673709 0
M  V30 43 H 2.135584 -6.282955 3.341666 0
M  V30 44 H 2.516636 -4.291167 1.993549 0
M  V30 45 H 0.142150 -3.371544 2.843364 0
M  V30 46 H 1.433353 -4.088505 3.974224 0
M  V30 47 H 0.037444 -5.079735 3.454534 0
M  V30 48 H 3.665874 -3.297386 -1.336839 0
M  V30 49 H 3.047975 -2.091893 -2.465996 0
M  V30 50 H 2.842121 -1.792360 -0.677757 0
M  V30 51 H -0.001412 -4.177911 -2.564501 0
M  V30 52 H 1.076036 -3.293941 -3.640822 0
M  V30 53 H -1.122788 -2.239241 -3.414259 0
M  V30 54 H -0.985596 -2.895426 -0.745558 0
M  V30 55 H -3.290984 1.604316 -2.834020 0
M  V30 56 H -2.243888 -2.659141 0.787602 0
M  V30 57 H -2.931863 -1.963734 2.949081 0
M  V30 58 H -4.197957 -3.019261 2.127023 0
M  V30 59 H -4.488251 -0.362492 3.177144 0
M  V30 60 H -5.709516 -1.368385 2.362606 0
M  V30 61 H -5.968246 1.650003 3.021502 0
M  V30 62 H -7.618223 1.221033 2.069042 0
M  V30 63 H -0.221609 -0.669927 -4.903387 0
M  V30 64 H 0.820708 1.580706 -5.202967 0
M  V30 65 H 1.850273 2.739304 -3.258258 0
M  V30 66 H 2.978262 1.525776 -0.592077 0
M  V30 67 H 3.840782 2.326606 1.075620 0
M  V30 68 H 4.789811 3.368729 3.157083 0
M  V30 69 H 1.030266 5.166023 3.948224 0
M  V30 70 H 0.107695 4.170966 1.952284 0
M  V30 71 H 0.805663 -0.533180 -0.816604 0
M  V30 END ATOM
M  V30 BEGIN BOND
M  V30 1 1 1 2
M  V30 2 1 2 3
M  V30 3 1 2 4
M  V30 4 1 4 5
M  V30 5 2 5 6
M  V30 6 1 5 7
M  V30 7 1 7 8
M  V30 8 1 7 9
M  V30 9 1 9 10
M  V30 10 1 10 11
M  V30 11 1 11 12
M  V30 12 2 12 13
M  V30 13 1 13 14
M  V30 14 2 14 15
M  V30 15 1 15 16
M  V30 16 1 16 17
M  V30 17 2 17 18
M  V30 18 1 18 19
M  V30 19 1 19 20
M  V30 20 1 20 21
M  V30 21 1 21 22
M  V30 22 1 22 23
M  V30 23 2 22 24
M  V30 24 1 10 25
M  V30 25 2 25 26
M  V30 26 1 26 27
M  V30 27 2 27 28
M  V30 28 1 28 29
M  V30 29 1 29 30
M  V30 30 1 30 31
M  V30 31 2 31 32
M  V30 32 1 31 33
M  V30 33 2 33 34
M  V30 34 1 34 35
M  V30 35 2 35 36
M  V30 36 1 36 37
M  V30 37 1 36 38
M  V30 38 2 38 39
M  V30 39 2 29 40
M  V30 40 1 17 12
M  V30 41 1 40 25
M  V30 42 2 21 16
M  V30 43 1 39 33
M  V30 44 1 1 41
M  V30 45 1 1 42
M  V30 46 1 1 43
M  V30 47 1 2 44
M  V30 48 1 3 45
M  V30 49 1 3 46
M  V30 50 1 3 47
M  V30 51 1 8 48
M  V30 52 1 8 49
M  V30 53 1 8 50
M  V30 54 1 9 51
M  V30 55 1 9 52
M  V30 56 1 10 53
M  V30 57 1 11 54
M  V30 58 1 14 55
M  V30 59 1 18 56
M  V30 60 1 19 57
M  V30 61 1 19 58
M  V30 62 1 20 59
M  V30 63 1 20 60
M  V30 64 1 23 61
M  V30 65 1 23 62
M  V30 66 1 26 63
M  V30 67 1 27 64
M  V30 68 1 28 65
M  V30 69 1 30 66
M  V30 70 1 34 67
M  V30 71 1 35 68
M  V30 72 1 38 69
M  V30 73 1 39 70
M  V30 74 1 40 71
M  V30 END BOND
M  V30 END CTAB
M  END
>  <Dataset>  (939) 
ChEMBL_Kinases

>  <Ligand_Instance>  (939) 
nan

>  <PDB_ID>  (939) 
nan

>  <Standardized_SMILES>  (939) 
CC(C)OC(=O)N(C)CC(Nc1ncnc2c1=CCCC=2C(N)=O)c1cccc(NC(=O)c2ccc(Br)cc2)c1

>  <Name>  (939) 
nan

>  <Pocket>  (939) 
nan

>  <ATP_Site>  (939) 
nan

>  <Peripheral>  (939) 
nan

>  <Num_H_Atoms_ProtBoundConf>  (939) 
nan

>  <Num_Resolved_Atoms>  (939) 
nan

>  <Num_Not_Resolved_Atoms>  (939) 
nan

$$$$
CHEMBL4591082
     RDKit          3D

  0  0  0  0  0  0  0  0  0  0999 V3000
M  V30 BEGIN CTAB
M  V30 COUNTS 86 90 0 0 0
M  V30 BEGIN ATOM
M  V30 1 C -4.400791 -8.003745 -1.431361 0
M  V30 2 S -3.336431 -6.728934 -0.803970 0
M  V30 3 O -2.058521 -7.319293 -0.349635 0
M  V30 4 O -4.043067 -6.087947 0.355100 0
M  V30 5 N -3.148771 -5.536406 -2.021185 0
M  V30 6 C -2.527175 -6.066877 -3.216139 0
M  V30 7 C -2.211881 -4.937716 -4.155385 0
M  V30 8 C -3.364063 -4.018394 -4.388397 0
M  V30 9 C -3.989388 -3.597085 -3.077927 0
M  V30 10 N -3.014169 -2.917820 -2.245341 0
M  V30 11 C -3.408931 -1.672721 -1.678198 0
M  V30 12 O -4.585910 -1.217411 -1.916030 0
M  V30 13 C -2.802567 -0.664624 -0.819395 0 CFG=2
M  V30 14 C -2.896031 0.733504 -1.448951 0
M  V30 15 C -2.232772 1.681900 -0.453373 0
M  V30 16 C -2.257732 3.099432 -0.924765 0
M  V30 17 C -1.589415 4.045298 0.074056 0
M  V30 18 C -2.213923 3.792351 1.408612 0
M  V30 19 C -3.695447 3.870781 1.455989 0
M  V30 20 C -4.440198 3.527511 0.219373 0
M  V30 21 C -3.671741 3.628600 -1.065404 0
M  V30 22 N -1.451060 -0.868367 -0.429285 0
M  V30 23 C -0.902617 -0.860175 0.891584 0
M  V30 24 O -1.677596 -0.650574 1.856978 0
M  V30 25 C 0.535681 -1.103858 0.947131 0
M  V30 26 C 1.396710 -1.358362 -0.098772 0
M  V30 27 C 2.749868 -1.560647 0.161379 0
M  V30 28 C 3.284373 -1.518323 1.432623 0
M  V30 29 C 4.743890 -1.765070 1.500514 0
M  V30 30 N 5.542835 -0.568082 1.381719 0
M  V30 31 C 5.742362 0.390866 2.412974 0
M  V30 32 O 5.200786 0.226428 3.529467 0
M  V30 33 C 6.586267 1.577525 2.171744 0
M  V30 34 C 7.215441 1.881205 0.977248 0
M  V30 35 N 7.878964 3.045808 1.199449 0
M  V30 36 C 7.654669 3.427597 2.484915 0
M  V30 37 C 8.162209 4.574271 3.100472 0
M  V30 38 C 7.759131 4.701460 4.427226 0
M  V30 39 C 6.951074 3.808203 5.079950 0
M  V30 40 C 6.500660 2.700633 4.376632 0
M  V30 41 N 6.859010 2.519719 3.076086 0
M  V30 42 C 2.417353 -1.263490 2.471756 0
M  V30 43 C 1.075126 -1.062487 2.221693 0
M  V30 44 C -4.378027 -4.863473 -2.340641 0
M  V30 45 H -4.293055 -8.882056 -0.759170 0
M  V30 46 H -4.167257 -8.331212 -2.447085 0
M  V30 47 H -5.482439 -7.689013 -1.333505 0
M  V30 48 H -1.539898 -6.485927 -2.904890 0
M  V30 49 H -3.133192 -6.819368 -3.724437 0
M  V30 50 H -1.908144 -5.335570 -5.153682 0
M  V30 51 H -1.356526 -4.332819 -3.766474 0
M  V30 52 H -2.973350 -3.110589 -4.897233 0
M  V30 53 H -4.161913 -4.510897 -5.004022 0
M  V30 54 H -4.885084 -2.951001 -3.243361 0
M  V30 55 H -2.044332 -3.120252 -1.938887 0
M  V30 56 H -3.373322 -0.524187 0.153211 0
M  V30 57 H -2.319089 0.682701 -2.390069 0
M  V30 58 H -3.956581 0.993924 -1.619035 0
M  V30 59 H -1.185866 1.356193 -0.299742 0
M  V30 60 H -2.840794 1.610644 0.494667 0
M  V30 61 H -1.754130 3.218558 -1.886493 0
M  V30 62 H -1.837396 5.078595 -0.268759 0
M  V30 63 H -0.509050 3.913030 0.141634 0
M  V30 64 H -1.834779 2.802753 1.783187 0
M  V30 65 H -1.812955 4.558373 2.141048 0
M  V30 66 H -4.020097 3.143426 2.263022 0
M  V30 67 H -4.012830 4.874989 1.863179 0
M  V30 68 H -4.964821 2.530105 0.310822 0
M  V30 69 H -5.305999 4.248820 0.131482 0
M  V30 70 H -4.181514 3.003616 -1.823268 0
M  V30 71 H -3.633997 4.656129 -1.428592 0
M  V30 72 H -1.005108 -1.019129 -1.356793 0
M  V30 73 H 0.959844 -1.385486 -1.062189 0
M  V30 74 H 3.313228 -1.751595 -0.761199 0
M  V30 75 H 5.058073 -2.466939 0.687822 0
M  V30 76 H 4.972915 -2.248216 2.480449 0
M  V30 77 H 6.031643 -0.352530 0.472722 0
M  V30 78 H 7.178084 1.302832 0.063936 0
M  V30 79 H 8.797143 5.280051 2.596197 0
M  V30 80 H 8.148242 5.599961 4.930744 0
M  V30 81 H 6.717778 4.031280 6.114465 0
M  V30 82 H 5.861428 1.994100 4.897955 0
M  V30 83 H 2.883515 -1.239750 3.461598 0
M  V30 84 H 0.477415 -0.869339 3.099012 0
M  V30 85 H -5.105510 -5.482628 -2.913404 0
M  V30 86 H -4.870988 -4.520787 -1.408003 0
M  V30 END ATOM
M  V30 BEGIN BOND
M  V30 1 1 1 2
M  V30 2 2 2 3
M  V30 3 2 2 4
M  V30 4 1 2 5
M  V30 5 1 5 6
M  V30 6 1 6 7
M  V30 7 1 7 8
M  V30 8 1 8 9
M  V30 9 1 9 10
M  V30 10 1 10 11
M  V30 11 2 11 12
M  V30 12 1 11 13
M  V30 13 1 13 14
M  V30 14 1 14 15
M  V30 15 1 15 16
M  V30 16 1 16 17
M  V30 17 1 17 18
M  V30 18 1 18 19
M  V30 19 1 19 20
M  V30 20 1 20 21
M  V30 21 1 13 22
M  V30 22 1 22 23
M  V30 23 2 23 24
M  V30 24 1 23 25
M  V30 25 2 25 26
M  V30 26 1 26 27
M  V30 27 2 27 28
M  V30 28 1 28 29
M  V30 29 1 29 30
M  V30 30 1 30 31
M  V30 31 2 31 32
M  V30 32 1 31 33
M  V30 33 2 33 34
M  V30 34 1 34 35
M  V30 35 2 35 36
M  V30 36 1 36 37
M  V30 37 2 37 38
M  V30 38 1 38 39
M  V30 39 2 39 40
M  V30 40 1 40 41
M  V30 41 1 28 42
M  V30 42 2 42 43
M  V30 43 1 9 44
M  V30 44 1 44 5
M  V30 45 1 21 16
M  V30 46 1 43 25
M  V30 47 1 41 33
M  V30 48 1 41 36
M  V30 49 1 1 45
M  V30 50 1 1 46
M  V30 51 1 1 47
M  V30 52 1 6 48
M  V30 53 1 6 49
M  V30 54 1 7 50
M  V30 55 1 7 51
M  V30 56 1 8 52
M  V30 57 1 8 53
M  V30 58 1 9 54
M  V30 59 1 10 55
M  V30 60 1 13 56 CFG=1
M  V30 61 1 14 57
M  V30 62 1 14 58
M  V30 63 1 15 59
M  V30 64 1 15 60
M  V30 65 1 16 61
M  V30 66 1 17 62
M  V30 67 1 17 63
M  V30 68 1 18 64
M  V30 69 1 18 65
M  V30 70 1 19 66
M  V30 71 1 19 67
M  V30 72 1 20 68
M  V30 73 1 20 69
M  V30 74 1 21 70
M  V30 75 1 21 71
M  V30 76 1 22 72
M  V30 77 1 26 73
M  V30 78 1 27 74
M  V30 79 1 29 75
M  V30 80 1 29 76
M  V30 81 1 30 77
M  V30 82 1 34 78
M  V30 83 1 37 79
M  V30 84 1 38 80
M  V30 85 1 39 81
M  V30 86 1 40 82
M  V30 87 1 42 83
M  V30 88 1 43 84
M  V30 89 1 44 85
M  V30 90 1 44 86
M  V30 END BOND
M  V30 END CTAB
M  END
>  <Dataset>  (940) 
ChEMBL_Kinases

>  <Ligand_Instance>  (940) 
nan

>  <PDB_ID>  (940) 
nan

>  <Standardized_SMILES>  (940) 
CS(=O)(=O)N1CCCC(NC(=O)[C@H](CCC2CCCCC2)NC(=O)c2ccc(CNC(=O)c3cnc4ccccn34)cc2)C1

>  <Name>  (940) 
SR-302

>  <Pocket>  (940) 
nan

>  <ATP_Site>  (940) 
nan

>  <Peripheral>  (940) 
nan

>  <Num_H_Atoms_ProtBoundConf>  (940) 
nan

>  <Num_Resolved_Atoms>  (940) 
nan

>  <Num_Not_Resolved_Atoms>  (940) 
nan

$$$$
CHEMBL3680533
     RDKit          3D

  0  0  0  0  0  0  0  0  0  0999 V3000
M  V30 BEGIN CTAB
M  V30 COUNTS 52 55 0 0 0
M  V30 BEGIN ATOM
M  V30 1 C 0.296785 -2.012758 3.029615 0
M  V30 2 C -0.551208 -0.764125 2.888647 0
M  V30 3 N -0.030690 0.029633 1.793780 0
M  V30 4 C 1.308045 0.493298 1.878351 0
M  V30 5 N 2.070148 0.209278 2.933816 0
M  V30 6 C 3.339533 0.637738 3.034631 0
M  V30 7 N 3.924694 1.377218 2.084852 0
M  V30 8 C 3.222624 1.703136 0.994380 0
M  V30 9 C 3.780961 2.463227 -0.012064 0
M  V30 10 C 5.140775 2.902813 0.131593 0
M  V30 11 N 5.928430 2.585123 1.267110 0
M  V30 12 O 5.781670 3.598119 -0.698200 0
M  V30 13 C 3.060753 2.801965 -1.138794 0
M  V30 14 C 1.745986 2.359470 -1.245567 0
M  V30 15 C 1.228808 1.606735 -0.223837 0
M  V30 16 C 1.912019 1.254769 0.901312 0
M  V30 17 C -1.991059 -1.093982 2.743000 0
M  V30 18 C -2.931552 -1.002372 3.748358 0
M  V30 19 C -4.260359 -1.323476 3.553975 0
M  V30 20 C -4.659049 -1.752915 2.301753 0
M  V30 21 C -3.759405 -1.865767 1.249653 0
M  V30 22 N -4.164052 -2.312035 -0.058828 0
M  V30 23 C -3.169129 -2.396014 -1.074742 0
M  V30 24 C -2.402812 -3.512353 -1.340488 0
M  V30 25 C -1.451052 -3.517072 -2.349403 0
M  V30 26 C -0.646397 -4.728371 -2.609242 0
M  V30 27 F 0.414227 -4.405608 -3.441945 0
M  V30 28 F -1.437563 -5.716350 -3.148152 0
M  V30 29 F -0.084854 -5.255429 -1.452413 0
M  V30 30 C -1.255100 -2.385093 -3.113739 0
M  V30 31 C -2.028583 -1.275201 -2.837212 0
M  V30 32 N -2.940315 -1.317534 -1.847711 0
M  V30 33 C -2.452548 -1.528632 1.517304 0
M  V30 34 H -0.376081 -2.772496 3.491472 0
M  V30 35 H 1.175985 -1.882450 3.660688 0
M  V30 36 H 0.577147 -2.298099 1.980337 0
M  V30 37 H -0.358626 -0.158027 3.806019 0
M  V30 38 H -0.711735 0.188253 1.025184 0
M  V30 39 H 3.885571 0.359155 3.928899 0
M  V30 40 H 6.303812 3.086538 2.126565 0
M  V30 41 H 6.183856 1.558096 1.184850 0
M  V30 42 H 3.542631 3.395162 -1.891948 0
M  V30 43 H 1.220954 2.648503 -2.144321 0
M  V30 44 H 0.205439 1.298262 -0.373052 0
M  V30 45 H -2.586963 -0.661451 4.722267 0
M  V30 46 H -4.974955 -1.238555 4.372762 0
M  V30 47 H -5.708277 -2.010811 2.132682 0
M  V30 48 H -5.174154 -2.548662 -0.180923 0
M  V30 49 H -2.588157 -4.375012 -0.719749 0
M  V30 50 H -0.511246 -2.372256 -3.910385 0
M  V30 51 H -1.924086 -0.356627 -3.399519 0
M  V30 52 H -1.756506 -1.613504 0.712070 0
M  V30 END ATOM
M  V30 BEGIN BOND
M  V30 1 1 1 2
M  V30 2 1 2 3
M  V30 3 1 3 4
M  V30 4 2 4 5
M  V30 5 1 5 6
M  V30 6 2 6 7
M  V30 7 1 7 8
M  V30 8 2 8 9
M  V30 9 1 9 10
M  V30 10 1 10 11
M  V30 11 2 10 12
M  V30 12 1 9 13
M  V30 13 2 13 14
M  V30 14 1 14 15
M  V30 15 2 15 16
M  V30 16 1 2 17
M  V30 17 2 17 18
M  V30 18 1 18 19
M  V30 19 2 19 20
M  V30 20 1 20 21
M  V30 21 1 21 22
M  V30 22 1 22 23
M  V30 23 2 23 24
M  V30 24 1 24 25
M  V30 25 1 25 26
M  V30 26 1 26 27
M  V30 27 1 26 28
M  V30 28 1 26 29
M  V30 29 2 25 30
M  V30 30 1 30 31
M  V30 31 2 31 32
M  V30 32 2 21 33
M  V30 33 1 16 4
M  V30 34 1 33 17
M  V30 35 1 16 8
M  V30 36 1 32 23
M  V30 37 1 1 34
M  V30 38 1 1 35
M  V30 39 1 1 36
M  V30 40 1 2 37
M  V30 41 1 3 38
M  V30 42 1 6 39
M  V30 43 1 11 40
M  V30 44 1 11 41
M  V30 45 1 13 42
M  V30 46 1 14 43
M  V30 47 1 15 44
M  V30 48 1 18 45
M  V30 49 1 19 46
M  V30 50 1 20 47
M  V30 51 1 22 48
M  V30 52 1 24 49
M  V30 53 1 30 50
M  V30 54 1 31 51
M  V30 55 1 33 52
M  V30 END BOND
M  V30 END CTAB
M  END
>  <Dataset>  (941) 
ChEMBL_Kinases

>  <Ligand_Instance>  (941) 
nan

>  <PDB_ID>  (941) 
nan

>  <Standardized_SMILES>  (941) 
CC(Nc1ncnc2c(C(N)=O)cccc12)c1cccc(Nc2cc(C(F)(F)F)ccn2)c1

>  <Name>  (941) 
nan

>  <Pocket>  (941) 
nan

>  <ATP_Site>  (941) 
nan

>  <Peripheral>  (941) 
nan

>  <Num_H_Atoms_ProtBoundConf>  (941) 
nan

>  <Num_Resolved_Atoms>  (941) 
nan

>  <Num_Not_Resolved_Atoms>  (941) 
nan

$$$$
CHEMBL3103872
     RDKit          3D

  0  0  0  0  0  0  0  0  0  0999 V3000
M  V30 BEGIN CTAB
M  V30 COUNTS 43 45 0 0 0
M  V30 BEGIN ATOM
M  V30 1 C 2.638291 -6.161166 3.873469 0
M  V30 2 C 2.452912 -5.011326 2.947066 0
M  V30 3 O 2.439784 -3.834974 3.354277 0
M  V30 4 N 2.291082 -5.318649 1.572231 0
M  V30 5 C 2.115862 -4.149769 0.732259 0
M  V30 6 N 2.083413 -2.977486 0.989485 0
M  V30 7 C 1.917132 -2.005022 0.133573 0
M  V30 8 C 1.880001 -0.596288 0.457046 0
M  V30 9 O 2.013559 -0.221984 1.642636 0
M  V30 10 N 1.699681 0.454189 -0.471967 0
M  V30 11 C 1.685065 1.790242 -0.007188 0
M  V30 12 C 2.760590 2.642437 0.126633 0
M  V30 13 N 2.612378 3.898089 0.583602 0
M  V30 14 C 1.381759 4.374594 0.933069 0
M  V30 15 C 0.272839 3.536235 0.809044 0
M  V30 16 C 0.430448 2.248159 0.339442 0
M  V30 17 N -0.826351 1.561625 0.290135 0
M  V30 18 C -1.485297 0.991361 -0.853194 0
M  V30 19 C -2.209623 -0.277775 -0.457798 0
M  V30 20 C -3.305640 0.012463 0.544895 0
M  V30 21 C -2.966407 1.193509 1.424703 0
M  V30 22 C -1.490533 1.441337 1.552842 0
M  V30 23 C 1.758360 -2.485081 -1.291984 0
M  V30 24 S 1.894067 -4.356507 -1.058819 0
M  V30 25 H 2.997618 -5.873499 4.868534 0
M  V30 26 H 1.669859 -6.713277 3.986635 0
M  V30 27 H 3.341247 -6.866063 3.418083 0
M  V30 28 H 2.292337 -6.259511 1.175457 0
M  V30 29 H 1.580390 0.236524 -1.480592 0
M  V30 30 H 3.719720 2.229153 -0.160247 0
M  V30 31 H 1.354308 5.407854 1.294936 0
M  V30 32 H -0.640970 4.021434 1.114022 0
M  V30 33 H -0.753309 0.776996 -1.628183 0
M  V30 34 H -2.195326 1.737551 -1.292584 0
M  V30 35 H -1.476276 -0.960570 -0.011240 0
M  V30 36 H -2.679276 -0.752658 -1.333436 0
M  V30 37 H -3.404007 -0.874087 1.192917 0
M  V30 38 H -4.254411 0.178747 -0.016453 0
M  V30 39 H -3.365757 1.100562 2.460005 0
M  V30 40 H -3.454745 2.081904 0.982048 0
M  V30 41 H -1.016762 0.664285 2.193644 0
M  V30 42 H -1.383145 2.395749 2.109227 0
M  V30 43 H 1.600101 -1.658687 -2.149441 0
M  V30 END ATOM
M  V30 BEGIN BOND
M  V30 1 1 1 2
M  V30 2 2 2 3
M  V30 3 1 2 4
M  V30 4 1 4 5
M  V30 5 2 5 6
M  V30 6 1 6 7
M  V30 7 1 7 8
M  V30 8 2 8 9
M  V30 9 1 8 10
M  V30 10 1 10 11
M  V30 11 2 11 12
M  V30 12 1 12 13
M  V30 13 2 13 14
M  V30 14 1 14 15
M  V30 15 2 15 16
M  V30 16 1 16 17
M  V30 17 1 17 18
M  V30 18 1 18 19
M  V30 19 1 19 20
M  V30 20 1 20 21
M  V30 21 1 21 22
M  V30 22 2 7 23
M  V30 23 1 23 24
M  V30 24 1 24 5
M  V30 25 1 16 11
M  V30 26 1 22 17
M  V30 27 1 1 25
M  V30 28 1 1 26
M  V30 29 1 1 27
M  V30 30 1 4 28
M  V30 31 1 10 29
M  V30 32 1 12 30
M  V30 33 1 14 31
M  V30 34 1 15 32
M  V30 35 1 18 33
M  V30 36 1 18 34
M  V30 37 1 19 35
M  V30 38 1 19 36
M  V30 39 1 20 37
M  V30 40 1 20 38
M  V30 41 1 21 39
M  V30 42 1 21 40
M  V30 43 1 22 41
M  V30 44 1 22 42
M  V30 45 1 23 43
M  V30 END BOND
M  V30 END CTAB
M  END
>  <Dataset>  (942) 
ChEMBL_Kinases

>  <Ligand_Instance>  (942) 
nan

>  <PDB_ID>  (942) 
nan

>  <Standardized_SMILES>  (942) 
CC(=O)Nc1nc(C(=O)Nc2cnccc2N2CCCCC2)cs1

>  <Name>  (942) 
nan

>  <Pocket>  (942) 
nan

>  <ATP_Site>  (942) 
nan

>  <Peripheral>  (942) 
nan

>  <Num_H_Atoms_ProtBoundConf>  (942) 
nan

>  <Num_Resolved_Atoms>  (942) 
nan

>  <Num_Not_Resolved_Atoms>  (942) 
nan

$$$$
CHEMBL3103875
     RDKit          3D

  0  0  0  0  0  0  0  0  0  0999 V3000
M  V30 BEGIN CTAB
M  V30 COUNTS 45 47 0 0 0
M  V30 BEGIN ATOM
M  V30 1 C 0.725657 -6.818933 1.654715 0
M  V30 2 C 1.316567 -5.482513 1.406735 0
M  V30 3 O 1.081503 -4.635837 2.304594 0
M  V30 4 N 2.085679 -5.154673 0.265440 0
M  V30 5 C 2.501929 -3.768331 0.348751 0
M  V30 6 N 2.173088 -2.732529 0.063445 0
M  V30 7 C 2.699556 -1.548923 0.227526 0
M  V30 8 C 2.182831 -0.259314 -0.185991 0
M  V30 9 O 2.743330 0.844562 0.004917 0
M  V30 10 N 0.946983 -0.133272 -0.870462 0
M  V30 11 C 0.419461 1.113124 -1.285385 0
M  V30 12 C 0.609519 1.771288 -2.474175 0
M  V30 13 N 0.019579 2.960157 -2.690546 0
M  V30 14 C -0.769581 3.528302 -1.744426 0
M  V30 15 N -1.380780 4.785365 -1.999245 0
M  V30 16 C -0.999083 2.913656 -0.526626 0
M  V30 17 C -0.391951 1.687316 -0.300539 0
M  V30 18 N -0.663675 1.096786 0.975577 0
M  V30 19 C -1.295295 -0.178164 1.122770 0
M  V30 20 C -2.158255 -0.336717 2.332878 0
M  V30 21 C -1.749913 0.468393 3.521996 0
M  V30 22 C -0.317824 0.924134 3.375185 0
M  V30 23 C -0.278329 1.830151 2.169350 0
M  V30 24 C 3.967120 -1.628647 0.924284 0
M  V30 25 S 4.160759 -3.485881 1.220749 0
M  V30 26 H 1.124308 -7.312661 2.561718 0
M  V30 27 H 0.845098 -7.526843 0.812510 0
M  V30 28 H -0.377144 -6.660501 1.796121 0
M  V30 29 H 2.260120 -5.866044 -0.449022 0
M  V30 30 H 0.383025 -1.008660 -1.086784 0
M  V30 31 H 1.251910 1.240555 -3.161836 0
M  V30 32 H -0.711523 5.501938 -1.642741 0
M  V30 33 H -2.325907 4.911210 -2.460583 0
M  V30 34 H -1.633335 3.405617 0.191034 0
M  V30 35 H -0.479815 -0.942371 1.180930 0
M  V30 36 H -1.906661 -0.357213 0.210053 0
M  V30 37 H -2.224654 -1.419103 2.607407 0
M  V30 38 H -3.220681 -0.053171 2.080956 0
M  V30 39 H -1.805933 -0.165573 4.434448 0
M  V30 40 H -2.440879 1.307018 3.704248 0
M  V30 41 H 0.294851 0.010133 3.242878 0
M  V30 42 H -0.022049 1.510474 4.267272 0
M  V30 43 H -1.118451 2.563813 2.329724 0
M  V30 44 H 0.676609 2.347675 2.079359 0
M  V30 45 H 4.631068 -0.618797 1.180937 0
M  V30 END ATOM
M  V30 BEGIN BOND
M  V30 1 1 1 2
M  V30 2 2 2 3
M  V30 3 1 2 4
M  V30 4 1 4 5
M  V30 5 2 5 6
M  V30 6 1 6 7
M  V30 7 1 7 8
M  V30 8 2 8 9
M  V30 9 1 8 10
M  V30 10 1 10 11
M  V30 11 2 11 12
M  V30 12 1 12 13
M  V30 13 2 13 14
M  V30 14 1 14 15
M  V30 15 1 14 16
M  V30 16 2 16 17
M  V30 17 1 17 18
M  V30 18 1 18 19
M  V30 19 1 19 20
M  V30 20 1 20 21
M  V30 21 1 21 22
M  V30 22 1 22 23
M  V30 23 2 7 24
M  V30 24 1 24 25
M  V30 25 1 25 5
M  V30 26 1 17 11
M  V30 27 1 23 18
M  V30 28 1 1 26
M  V30 29 1 1 27
M  V30 30 1 1 28
M  V30 31 1 4 29
M  V30 32 1 10 30
M  V30 33 1 12 31
M  V30 34 1 15 32
M  V30 35 1 15 33
M  V30 36 1 16 34
M  V30 37 1 19 35
M  V30 38 1 19 36
M  V30 39 1 20 37
M  V30 40 1 20 38
M  V30 41 1 21 39
M  V30 42 1 21 40
M  V30 43 1 22 41
M  V30 44 1 22 42
M  V30 45 1 23 43
M  V30 46 1 23 44
M  V30 47 1 24 45
M  V30 END BOND
M  V30 END CTAB
M  END
>  <Dataset>  (943) 
ChEMBL_Kinases

>  <Ligand_Instance>  (943) 
nan

>  <PDB_ID>  (943) 
nan

>  <Standardized_SMILES>  (943) 
CC(=O)Nc1nc(C(=O)Nc2cnc(N)cc2N2CCCCC2)cs1

>  <Name>  (943) 
nan

>  <Pocket>  (943) 
nan

>  <ATP_Site>  (943) 
nan

>  <Peripheral>  (943) 
nan

>  <Num_H_Atoms_ProtBoundConf>  (943) 
nan

>  <Num_Resolved_Atoms>  (943) 
nan

>  <Num_Not_Resolved_Atoms>  (943) 
nan

$$$$
CHEMBL3103886
     RDKit          3D

  0  0  0  0  0  0  0  0  0  0999 V3000
M  V30 BEGIN CTAB
M  V30 COUNTS 42 44 0 0 0
M  V30 BEGIN ATOM
M  V30 1 N 0.038918 -4.558736 2.803834 0
M  V30 2 C 0.818183 -4.469628 1.601902 0
M  V30 3 C 1.381877 -5.625572 1.086272 0
M  V30 4 C 2.115124 -5.468515 -0.065941 0
M  V30 5 C 2.264009 -4.223682 -0.651568 0
M  V30 6 C 1.692278 -3.095020 -0.115896 0
M  V30 7 C 1.829516 -1.775621 -0.705628 0
M  V30 8 O 2.505052 -1.716740 -1.742497 0
M  V30 9 N 1.249190 -0.598233 -0.170940 0
M  V30 10 C 1.316586 0.715056 -0.654638 0
M  V30 11 C 1.937749 1.120207 -1.808189 0
M  V30 12 C 1.994370 2.409652 -2.287651 0
M  V30 13 C 1.357907 3.395134 -1.524148 0
M  V30 14 C 0.722297 3.005350 -0.349922 0
M  V30 15 C 0.694641 1.686639 0.090657 0
M  V30 16 N 0.015069 1.557821 1.357439 0
M  V30 17 C -1.240187 2.296351 1.570336 0
M  V30 18 C -2.342987 1.269576 1.505967 0
M  V30 19 C -1.902740 -0.068591 1.960914 0
M  V30 20 C -0.787195 -0.037085 2.976964 0
M  V30 21 C 0.356187 0.823347 2.568056 0
M  V30 22 N 0.976348 -3.267050 1.014529 0
M  V30 23 H -0.717938 -5.276020 2.968125 0
M  V30 24 H 0.219027 -3.880555 3.571850 0
M  V30 25 H 1.247668 -6.581693 1.566011 0
M  V30 26 H 2.593115 -6.311170 -0.543057 0
M  V30 27 H 2.843745 -4.074397 -1.569839 0
M  V30 28 H 0.718085 -0.843939 0.682267 0
M  V30 29 H 2.443187 0.412122 -2.438392 0
M  V30 30 H 2.505370 2.672373 -3.215479 0
M  V30 31 H 1.410982 4.411062 -1.916927 0
M  V30 32 H 0.296039 3.877805 0.113953 0
M  V30 33 H -1.375610 3.078467 0.795111 0
M  V30 34 H -1.191124 2.810357 2.556608 0
M  V30 35 H -2.600662 1.173746 0.410922 0
M  V30 36 H -3.280158 1.628469 1.981080 0
M  V30 37 H -1.672643 -0.798244 1.155801 0
M  V30 38 H -2.777161 -0.533079 2.504813 0
M  V30 39 H -1.159635 0.144321 4.005724 0
M  V30 40 H -0.395662 -1.091506 3.010989 0
M  V30 41 H 1.344366 0.374369 2.572539 0
M  V30 42 H 0.421707 1.640307 3.359758 0
M  V30 END ATOM
M  V30 BEGIN BOND
M  V30 1 1 1 2
M  V30 2 2 2 3
M  V30 3 1 3 4
M  V30 4 2 4 5
M  V30 5 1 5 6
M  V30 6 1 6 7
M  V30 7 2 7 8
M  V30 8 1 7 9
M  V30 9 1 9 10
M  V30 10 2 10 11
M  V30 11 1 11 12
M  V30 12 2 12 13
M  V30 13 1 13 14
M  V30 14 2 14 15
M  V30 15 1 15 16
M  V30 16 1 16 17
M  V30 17 1 17 18
M  V30 18 1 18 19
M  V30 19 1 19 20
M  V30 20 1 20 21
M  V30 21 2 6 22
M  V30 22 1 22 2
M  V30 23 1 15 10
M  V30 24 1 21 16
M  V30 25 1 1 23
M  V30 26 1 1 24
M  V30 27 1 3 25
M  V30 28 1 4 26
M  V30 29 1 5 27
M  V30 30 1 9 28
M  V30 31 1 11 29
M  V30 32 1 12 30
M  V30 33 1 13 31
M  V30 34 1 14 32
M  V30 35 1 17 33
M  V30 36 1 17 34
M  V30 37 1 18 35
M  V30 38 1 18 36
M  V30 39 1 19 37
M  V30 40 1 19 38
M  V30 41 1 20 39
M  V30 42 1 20 40
M  V30 43 1 21 41
M  V30 44 1 21 42
M  V30 END BOND
M  V30 END CTAB
M  END
>  <Dataset>  (944) 
ChEMBL_Kinases

>  <Ligand_Instance>  (944) 
nan

>  <PDB_ID>  (944) 
nan

>  <Standardized_SMILES>  (944) 
Nc1cccc(C(=O)Nc2ccccc2N2CCCCC2)n1

>  <Name>  (944) 
nan

>  <Pocket>  (944) 
nan

>  <ATP_Site>  (944) 
nan

>  <Peripheral>  (944) 
nan

>  <Num_H_Atoms_ProtBoundConf>  (944) 
nan

>  <Num_Resolved_Atoms>  (944) 
nan

>  <Num_Not_Resolved_Atoms>  (944) 
nan

$$$$
CHEMBL3103877
     RDKit          3D

  0  0  0  0  0  0  0  0  0  0999 V3000
M  V30 BEGIN CTAB
M  V30 COUNTS 39 41 0 0 0
M  V30 BEGIN ATOM
M  V30 1 N 2.324476 -2.850040 2.297589 0
M  V30 2 C 1.653034 -3.282265 1.125792 0
M  V30 3 N 1.451808 -4.622877 0.966613 0
M  V30 4 C 0.815683 -5.070212 -0.137566 0
M  V30 5 C 0.348406 -4.234989 -1.133177 0
M  V30 6 N 0.552416 -2.893879 -0.968936 0
M  V30 7 C 1.186164 -2.448155 0.131110 0
M  V30 8 C 1.423669 -1.020564 0.343549 0
M  V30 9 O 2.013584 -0.640062 1.373125 0
M  V30 10 N 1.026144 0.011238 -0.554510 0
M  V30 11 C 1.431047 1.277246 -0.007132 0
M  V30 12 C 2.621060 1.938235 -0.201530 0
M  V30 13 N 2.813470 3.109389 0.394361 0
M  V30 14 C 1.880365 3.648966 1.170338 0
M  V30 15 C 0.658479 3.041638 1.412003 0
M  V30 16 C 0.428737 1.815161 0.801822 0
M  V30 17 N -0.832154 1.221078 1.070330 0
M  V30 18 C -1.767827 0.928231 -0.015407 0
M  V30 19 C -2.244124 -0.462289 0.101836 0
M  V30 20 N -2.069187 -1.169143 1.286024 0
M  V30 21 C -1.483207 -0.600477 2.410111 0
M  V30 22 C -1.249081 0.878853 2.424534 0
M  V30 23 H 2.015848 -2.747002 3.283613 0
M  V30 24 H 3.266579 -2.652479 1.875483 0
M  V30 25 H 0.677788 -6.144002 -0.222074 0
M  V30 26 H -0.161580 -4.588947 -2.019129 0
M  V30 27 H 0.522876 -0.313344 -1.432900 0
M  V30 28 H 3.283350 1.386585 -0.851694 0
M  V30 29 H 2.074974 4.620977 1.647787 0
M  V30 30 H -0.080103 3.502831 2.046304 0
M  V30 31 H -2.630580 1.635158 0.159051 0
M  V30 32 H -1.316315 1.164450 -0.993584 0
M  V30 33 H -1.786006 -1.036684 -0.756729 0
M  V30 34 H -3.342594 -0.480844 -0.155387 0
M  V30 35 H -1.695897 -2.141784 1.118262 0
M  V30 36 H -0.488170 -1.091213 2.603833 0
M  V30 37 H -2.087085 -0.831122 3.314356 0
M  V30 38 H -0.452986 1.120559 3.148350 0
M  V30 39 H -2.196095 1.380973 2.689692 0
M  V30 END ATOM
M  V30 BEGIN BOND
M  V30 1 1 1 2
M  V30 2 2 2 3
M  V30 3 1 3 4
M  V30 4 2 4 5
M  V30 5 1 5 6
M  V30 6 2 6 7
M  V30 7 1 7 8
M  V30 8 2 8 9
M  V30 9 1 8 10
M  V30 10 1 10 11
M  V30 11 2 11 12
M  V30 12 1 12 13
M  V30 13 2 13 14
M  V30 14 1 14 15
M  V30 15 2 15 16
M  V30 16 1 16 17
M  V30 17 1 17 18
M  V30 18 1 18 19
M  V30 19 1 19 20
M  V30 20 1 20 21
M  V30 21 1 21 22
M  V30 22 1 7 2
M  V30 23 1 16 11
M  V30 24 1 22 17
M  V30 25 1 1 23
M  V30 26 1 1 24
M  V30 27 1 4 25
M  V30 28 1 5 26
M  V30 29 1 10 27
M  V30 30 1 12 28
M  V30 31 1 14 29
M  V30 32 1 15 30
M  V30 33 1 18 31
M  V30 34 1 18 32
M  V30 35 1 19 33
M  V30 36 1 19 34
M  V30 37 1 20 35
M  V30 38 1 21 36
M  V30 39 1 21 37
M  V30 40 1 22 38
M  V30 41 1 22 39
M  V30 END BOND
M  V30 END CTAB
M  END
>  <Dataset>  (945) 
ChEMBL_Kinases

>  <Ligand_Instance>  (945) 
nan

>  <PDB_ID>  (945) 
nan

>  <Standardized_SMILES>  (945) 
Nc1nccnc1C(=O)Nc1cnccc1N1CCNCC1

>  <Name>  (945) 
nan

>  <Pocket>  (945) 
nan

>  <ATP_Site>  (945) 
nan

>  <Peripheral>  (945) 
nan

>  <Num_H_Atoms_ProtBoundConf>  (945) 
nan

>  <Num_Resolved_Atoms>  (945) 
nan

>  <Num_Not_Resolved_Atoms>  (945) 
nan

$$$$
CHEMBL4591417
     RDKit          3D

  0  0  0  0  0  0  0  0  0  0999 V3000
M  V30 BEGIN CTAB
M  V30 COUNTS 55 59 0 0 0
M  V30 BEGIN ATOM
M  V30 1 C 2.711561 -4.434061 2.439658 0
M  V30 2 C 3.475409 -4.090499 1.195816 0
M  V30 3 C 3.593428 -2.806169 0.758991 0
M  V30 4 C 4.259311 -2.359546 -0.355880 0
M  V30 5 N 4.344174 -0.999700 -0.758437 0
M  V30 6 C 3.657903 -0.116127 0.142304 0
M  V30 7 N 4.250262 0.487912 1.202235 0
M  V30 8 C 3.512734 1.308492 2.002812 0
M  V30 9 C 2.193871 1.474040 1.679342 0
M  V30 10 C 1.596361 0.845218 0.583613 0
M  V30 11 C 0.153319 1.191192 0.456445 0
M  V30 12 S -0.496017 2.886622 0.210360 0
M  V30 13 C -2.291492 2.224019 0.193532 0
M  V30 14 C -3.569953 3.053045 0.022876 0
M  V30 15 C -4.474660 2.752997 1.168312 0
M  V30 16 C -4.904211 1.323578 1.146429 0
M  V30 17 N -5.466459 0.893269 -0.104204 0
M  V30 18 C -4.595064 1.164331 -1.222733 0
M  V30 19 C -4.163475 2.591113 -1.283246 0
M  V30 20 N -2.093548 1.126270 0.340443 0
M  V30 21 C -0.976844 0.445640 0.486335 0
M  V30 22 C -0.861698 -1.017963 0.671777 0
M  V30 23 C -0.230166 -1.684087 -0.367287 0
M  V30 24 C -0.048343 -3.056409 -0.330765 0
M  V30 25 C -0.501559 -3.789314 0.759325 0
M  V30 26 F -0.330455 -5.138224 0.808316 0
M  V30 27 C -1.125915 -3.097220 1.776666 0
M  V30 28 C -1.320915 -1.726085 1.766221 0
M  V30 29 N 2.360230 0.060641 -0.157478 0
M  V30 30 C 4.857669 -3.403495 -1.070110 0
M  V30 31 C 4.771682 -4.728090 -0.674727 0
M  V30 32 N 4.095827 -5.032030 0.426749 0
M  V30 33 H 2.092335 -5.327515 2.286700 0
M  V30 34 H 1.994213 -3.581353 2.610156 0
M  V30 35 H 3.333779 -4.489813 3.331312 0
M  V30 36 H 3.093575 -2.062224 1.382117 0
M  V30 37 H 4.879811 -0.816084 -1.634534 0
M  V30 38 H 3.983074 1.787882 2.843924 0
M  V30 39 H 1.658430 2.144951 2.362841 0
M  V30 40 H -3.291459 4.122769 -0.050040 0
M  V30 41 H -3.897921 2.909420 2.109890 0
M  V30 42 H -5.366101 3.391006 1.114071 0
M  V30 43 H -5.721068 1.219250 1.911894 0
M  V30 44 H -4.116865 0.613039 1.482081 0
M  V30 45 H -5.614598 -0.138784 -0.045157 0
M  V30 46 H -3.738451 0.447837 -1.294500 0
M  V30 47 H -5.198289 0.982139 -2.160244 0
M  V30 48 H -3.456134 2.701898 -2.109948 0
M  V30 49 H -5.060576 3.210962 -1.511659 0
M  V30 50 H 0.177699 -1.270221 -1.280441 0
M  V30 51 H 0.437868 -3.647829 -1.108974 0
M  V30 52 H -1.492968 -3.645241 2.648140 0
M  V30 53 H -1.798669 -1.157636 2.534573 0
M  V30 54 H 5.416912 -3.165777 -1.978700 0
M  V30 55 H 5.247517 -5.518969 -1.249944 0
M  V30 END ATOM
M  V30 BEGIN BOND
M  V30 1 1 1 2
M  V30 2 2 2 3
M  V30 3 1 3 4
M  V30 4 1 4 5
M  V30 5 1 5 6
M  V30 6 2 6 7
M  V30 7 1 7 8
M  V30 8 2 8 9
M  V30 9 1 9 10
M  V30 10 1 10 11
M  V30 11 1 11 12
M  V30 12 1 12 13
M  V30 13 1 13 14
M  V30 14 1 14 15
M  V30 15 1 15 16
M  V30 16 1 16 17
M  V30 17 1 17 18
M  V30 18 1 18 19
M  V30 19 2 13 20
M  V30 20 1 20 21
M  V30 21 1 21 22
M  V30 22 2 22 23
M  V30 23 1 23 24
M  V30 24 2 24 25
M  V30 25 1 25 26
M  V30 26 1 25 27
M  V30 27 2 27 28
M  V30 28 2 10 29
M  V30 29 2 4 30
M  V30 30 1 30 31
M  V30 31 2 31 32
M  V30 32 1 32 2
M  V30 33 1 29 6
M  V30 34 2 21 11
M  V30 35 1 28 22
M  V30 36 1 19 14
M  V30 37 1 1 33
M  V30 38 1 1 34
M  V30 39 1 1 35
M  V30 40 1 3 36
M  V30 41 1 5 37
M  V30 42 1 8 38
M  V30 43 1 9 39
M  V30 44 1 14 40
M  V30 45 1 15 41
M  V30 46 1 15 42
M  V30 47 1 16 43
M  V30 48 1 16 44
M  V30 49 1 17 45
M  V30 50 1 18 46
M  V30 51 1 18 47
M  V30 52 1 19 48
M  V30 53 1 19 49
M  V30 54 1 23 50
M  V30 55 1 24 51
M  V30 56 1 27 52
M  V30 57 1 28 53
M  V30 58 1 30 54
M  V30 59 1 31 55
M  V30 END BOND
M  V30 END CTAB
M  END
>  <Dataset>  (946) 
ChEMBL_Kinases

>  <Ligand_Instance>  (946) 
nan

>  <PDB_ID>  (946) 
nan

>  <Standardized_SMILES>  (946) 
Cc1cc(Nc2nccc(-c3sc(C4CCNCC4)nc3-c3ccc(F)cc3)n2)ccn1

>  <Name>  (946) 
nan

>  <Pocket>  (946) 
nan

>  <ATP_Site>  (946) 
nan

>  <Peripheral>  (946) 
nan

>  <Num_H_Atoms_ProtBoundConf>  (946) 
nan

>  <Num_Resolved_Atoms>  (946) 
nan

>  <Num_Not_Resolved_Atoms>  (946) 
nan

$$$$
CHEMBL4591512
     RDKit          3D

  0  0  0  0  0  0  0  0  0  0999 V3000
M  V30 BEGIN CTAB
M  V30 COUNTS 58 62 0 0 0
M  V30 BEGIN ATOM
M  V30 1 C 5.470313 -1.110212 4.239938 0
M  V30 2 C 4.748960 -2.175916 3.447785 0 CFG=1
M  V30 3 N 3.897425 -2.990991 4.290736 0
M  V30 4 C 2.521504 -2.902529 3.942028 0
M  V30 5 O 1.559771 -3.487997 4.487502 0
M  V30 6 C 2.489478 -1.983491 2.815157 0
M  V30 7 C 1.709281 -1.332516 1.885374 0
M  V30 8 C 2.430471 -0.534977 1.039334 0
M  V30 9 C 2.038559 0.315693 -0.072560 0
M  V30 10 C 3.057073 0.997014 -0.744692 0
M  V30 11 C 2.808270 1.828062 -1.816508 0
M  V30 12 C 1.510145 1.992877 -2.240349 0
M  V30 13 C 0.525528 1.303688 -1.552507 0
M  V30 14 C -0.779062 1.463420 -1.970277 0
M  V30 15 O -0.997716 2.238471 -2.964892 0
M  V30 16 N -1.811621 0.824997 -1.353281 0
M  V30 17 C -3.110518 1.077803 -1.899187 0
M  V30 18 C -3.591720 0.133470 -2.941502 0
M  V30 19 O -4.877910 0.411428 -3.472626 0
M  V30 20 C -3.251364 -1.311029 -2.940881 0
M  V30 21 C -2.595865 -0.443557 -3.955115 0
M  V30 22 C -1.541448 0.005903 -0.291572 0
M  V30 23 N -2.661257 -0.656602 0.334246 0
M  V30 24 C -2.588452 -1.542650 1.454074 0
M  V30 25 C -2.031073 -0.883391 2.692173 0
M  V30 26 C -3.972410 -2.045330 1.808838 0
M  V30 27 C -1.783425 -2.763949 1.026175 0
M  V30 28 N -0.279888 -0.170498 0.139851 0
M  V30 29 C 0.729580 0.461673 -0.474330 0
M  V30 30 N 3.693405 -0.691909 1.451653 0
M  V30 31 C 3.782731 -1.547617 2.510247 0
M  V30 32 H 5.536169 -0.143971 3.701606 0
M  V30 33 H 5.035569 -0.967430 5.246552 0
M  V30 34 H 6.507915 -1.473891 4.383409 0
M  V30 35 H 5.441077 -2.842517 2.908811 0
M  V30 36 H 4.278770 -3.574773 5.068121 0
M  V30 37 H 0.647989 -1.461469 1.855161 0
M  V30 38 H 4.113521 0.947547 -0.504563 0
M  V30 39 H 3.555347 2.364570 -2.354721 0
M  V30 40 H 1.278838 2.634220 -3.074663 0
M  V30 41 H -3.131314 2.108952 -2.379540 0
M  V30 42 H -3.911179 1.182116 -1.108795 0
M  V30 43 H -5.181928 -0.333346 -4.036373 0
M  V30 44 H -2.559851 -1.769564 -2.206324 0
M  V30 45 H -4.044467 -2.030590 -3.240232 0
M  V30 46 H -1.527060 -0.251943 -3.850382 0
M  V30 47 H -2.920685 -0.464467 -5.016077 0
M  V30 48 H -3.614648 -0.486340 -0.054888 0
M  V30 49 H -1.520153 -1.651531 3.282886 0
M  V30 50 H -2.882447 -0.475131 3.269504 0
M  V30 51 H -1.384429 -0.010494 2.461782 0
M  V30 52 H -3.959669 -2.426900 2.871776 0
M  V30 53 H -4.699422 -1.186121 1.852570 0
M  V30 54 H -4.313458 -2.851942 1.151760 0
M  V30 55 H -1.219599 -3.162701 1.909166 0
M  V30 56 H -1.045790 -2.412249 0.277907 0
M  V30 57 H -2.411705 -3.530437 0.533990 0
M  V30 58 H 4.578446 -0.246785 1.063987 0
M  V30 END ATOM
M  V30 BEGIN BOND
M  V30 1 1 1 2
M  V30 2 1 2 3
M  V30 3 1 3 4
M  V30 4 2 4 5
M  V30 5 1 4 6
M  V30 6 1 6 7
M  V30 7 2 7 8
M  V30 8 1 8 9
M  V30 9 2 9 10
M  V30 10 1 10 11
M  V30 11 2 11 12
M  V30 12 1 12 13
M  V30 13 1 13 14
M  V30 14 2 14 15
M  V30 15 1 14 16
M  V30 16 1 16 17
M  V30 17 1 17 18
M  V30 18 1 18 19
M  V30 19 1 18 20
M  V30 20 1 20 21
M  V30 21 1 16 22
M  V30 22 1 22 23
M  V30 23 1 23 24
M  V30 24 1 24 25
M  V30 25 1 24 26
M  V30 26 1 24 27
M  V30 27 2 22 28
M  V30 28 1 28 29
M  V30 29 1 8 30
M  V30 30 1 30 31
M  V30 31 1 31 2
M  V30 32 2 31 6
M  V30 33 1 29 9
M  V30 34 2 29 13
M  V30 35 1 21 18
M  V30 36 1 1 32
M  V30 37 1 1 33
M  V30 38 1 1 34
M  V30 39 1 2 35 CFG=3
M  V30 40 1 3 36
M  V30 41 1 7 37
M  V30 42 1 10 38
M  V30 43 1 11 39
M  V30 44 1 12 40
M  V30 45 1 17 41
M  V30 46 1 17 42
M  V30 47 1 19 43
M  V30 48 1 20 44
M  V30 49 1 20 45
M  V30 50 1 21 46
M  V30 51 1 21 47
M  V30 52 1 23 48
M  V30 53 1 25 49
M  V30 54 1 25 50
M  V30 55 1 25 51
M  V30 56 1 26 52
M  V30 57 1 26 53
M  V30 58 1 26 54
M  V30 59 1 27 55
M  V30 60 1 27 56
M  V30 61 1 27 57
M  V30 62 1 30 58
M  V30 END BOND
M  V30 END CTAB
M  END
>  <Dataset>  (947) 
ChEMBL_Kinases

>  <Ligand_Instance>  (947) 
nan

>  <PDB_ID>  (947) 
nan

>  <Standardized_SMILES>  (947) 
C[C@H]1NC(=O)c2cc(-c3cccc4c(=O)n(CC5(O)CC5)c(NC(C)(C)C)nc34)[nH]c21

>  <Name>  (947) 
nan

>  <Pocket>  (947) 
nan

>  <ATP_Site>  (947) 
nan

>  <Peripheral>  (947) 
nan

>  <Num_H_Atoms_ProtBoundConf>  (947) 
nan

>  <Num_Resolved_Atoms>  (947) 
nan

>  <Num_Not_Resolved_Atoms>  (947) 
nan

$$$$
CHEMBL3680530
     RDKit          3D

  0  0  0  0  0  0  0  0  0  0999 V3000
M  V30 BEGIN CTAB
M  V30 COUNTS 62 65 0 0 0
M  V30 BEGIN ATOM
M  V30 1 C 2.780222 -0.951559 6.545920 0
M  V30 2 C 3.813633 -0.118747 5.822172 0
M  V30 3 C 4.975174 -1.065161 5.507082 0
M  V30 4 C 3.254126 0.283005 4.475360 0
M  V30 5 N 2.045558 1.064451 4.543204 0
M  V30 6 C 1.501827 1.367528 3.247359 0
M  V30 7 C 1.341062 0.303909 2.361006 0
M  V30 8 C 0.815930 0.604136 1.106703 0
M  V30 9 C 0.470925 1.919447 0.771917 0
M  V30 10 C -0.072195 1.968036 -0.567058 0
M  V30 11 O -0.151226 0.976566 -1.334431 0
M  V30 12 N -0.611678 3.116405 -1.271735 0
M  V30 13 C -0.964153 2.504721 -2.536190 0
M  V30 14 C -0.194895 2.570645 -3.705743 0
M  V30 15 C -0.632567 1.867603 -4.805979 0
M  V30 16 C -1.793234 1.140628 -4.701053 0
M  V30 17 C -2.588700 1.040207 -3.574968 0
M  V30 18 C -3.754175 0.147417 -3.770562 0
M  V30 19 N -3.301034 -1.224477 -3.453229 0
M  V30 20 C -2.979976 -1.680846 -2.145971 0
M  V30 21 N -3.154221 -0.843886 -1.122701 0
M  V30 22 C -2.919911 -1.162581 0.145491 0
M  V30 23 N -2.476982 -2.395041 0.480234 0
M  V30 24 C -2.277967 -3.292990 -0.500224 0
M  V30 25 C -1.822870 -4.575645 -0.285864 0
M  V30 26 C -1.585049 -4.898730 1.114975 0
M  V30 27 N -1.104778 -6.070728 1.747570 0
M  V30 28 O -1.812128 -4.064090 2.025593 0
M  V30 29 C -1.601690 -5.518302 -1.284846 0
M  V30 30 C -1.867232 -5.114450 -2.597924 0
M  V30 31 C -2.328327 -3.823625 -2.836154 0
M  V30 32 C -2.528366 -2.941261 -1.822645 0
M  V30 33 C -2.126518 1.747428 -2.518667 0
M  V30 34 C 0.648897 2.932764 1.681874 0
M  V30 35 N 1.165784 2.632424 2.912637 0
M  V30 36 H 2.461733 -0.478876 7.502575 0
M  V30 37 H 1.859385 -1.070660 5.920744 0
M  V30 38 H 3.147942 -1.964259 6.805008 0
M  V30 39 H 4.168943 0.734025 6.390696 0
M  V30 40 H 4.763292 -1.683828 4.589163 0
M  V30 41 H 5.921594 -0.539989 5.327046 0
M  V30 42 H 5.061450 -1.817127 6.338937 0
M  V30 43 H 4.065018 0.885755 3.970686 0
M  V30 44 H 3.111546 -0.611574 3.864975 0
M  V30 45 H 1.424045 1.492290 5.282244 0
M  V30 46 H 1.597374 -0.736852 2.599310 0
M  V30 47 H 0.720993 -0.280946 0.464586 0
M  V30 48 H -0.600118 4.014587 -0.731246 0
M  V30 49 H 0.681959 3.215302 -3.536004 0
M  V30 50 H 0.034561 1.992963 -5.641999 0
M  V30 51 H -2.006088 0.641283 -5.651960 0
M  V30 52 H -4.238201 0.226035 -4.735068 0
M  V30 53 H -4.460844 0.386413 -2.915806 0
M  V30 54 H -3.249673 -1.804006 -4.317232 0
M  V30 55 H -3.103068 -0.379213 0.895653 0
M  V30 56 H -1.411577 -7.065185 1.968500 0
M  V30 57 H -0.141675 -6.019193 2.157928 0
M  V30 58 H -1.235829 -6.523616 -1.022220 0
M  V30 59 H -1.667001 -5.908726 -3.305630 0
M  V30 60 H -2.504312 -3.598338 -3.874537 0
M  V30 61 H -2.721012 1.720316 -1.638538 0
M  V30 62 H 0.355117 3.905980 1.322745 0
M  V30 END ATOM
M  V30 BEGIN BOND
M  V30 1 1 1 2
M  V30 2 1 2 3
M  V30 3 1 2 4
M  V30 4 1 4 5
M  V30 5 1 5 6
M  V30 6 2 6 7
M  V30 7 1 7 8
M  V30 8 2 8 9
M  V30 9 1 9 10
M  V30 10 2 10 11
M  V30 11 1 10 12
M  V30 12 1 12 13
M  V30 13 2 13 14
M  V30 14 1 14 15
M  V30 15 2 15 16
M  V30 16 1 16 17
M  V30 17 1 17 18
M  V30 18 1 18 19
M  V30 19 1 19 20
M  V30 20 2 20 21
M  V30 21 1 21 22
M  V30 22 2 22 23
M  V30 23 1 23 24
M  V30 24 2 24 25
M  V30 25 1 25 26
M  V30 26 1 26 27
M  V30 27 2 26 28
M  V30 28 1 25 29
M  V30 29 2 29 30
M  V30 30 1 30 31
M  V30 31 2 31 32
M  V30 32 2 17 33
M  V30 33 1 9 34
M  V30 34 2 34 35
M  V30 35 1 35 6
M  V30 36 1 33 13
M  V30 37 1 32 20
M  V30 38 1 32 24
M  V30 39 1 1 36
M  V30 40 1 1 37
M  V30 41 1 1 38
M  V30 42 1 2 39
M  V30 43 1 3 40
M  V30 44 1 3 41
M  V30 45 1 3 42
M  V30 46 1 4 43
M  V30 47 1 4 44
M  V30 48 1 5 45
M  V30 49 1 7 46
M  V30 50 1 8 47
M  V30 51 1 12 48
M  V30 52 1 14 49
M  V30 53 1 15 50
M  V30 54 1 16 51
M  V30 55 1 18 52
M  V30 56 1 18 53
M  V30 57 1 19 54
M  V30 58 1 22 55
M  V30 59 1 27 56
M  V30 60 1 27 57
M  V30 61 1 29 58
M  V30 62 1 30 59
M  V30 63 1 31 60
M  V30 64 1 33 61
M  V30 65 1 34 62
M  V30 END BOND
M  V30 END CTAB
M  END
>  <Dataset>  (948) 
ChEMBL_Kinases

>  <Ligand_Instance>  (948) 
nan

>  <PDB_ID>  (948) 
nan

>  <Standardized_SMILES>  (948) 
CC(C)CNc1ccc(C(=O)Nc2cccc(CNc3ncnc4c(C(N)=O)cccc34)c2)cn1

>  <Name>  (948) 
nan

>  <Pocket>  (948) 
nan

>  <ATP_Site>  (948) 
nan

>  <Peripheral>  (948) 
nan

>  <Num_H_Atoms_ProtBoundConf>  (948) 
nan

>  <Num_Resolved_Atoms>  (948) 
nan

>  <Num_Not_Resolved_Atoms>  (948) 
nan

$$$$
CHEMBL3680529
     RDKit          3D

  0  0  0  0  0  0  0  0  0  0999 V3000
M  V30 BEGIN CTAB
M  V30 COUNTS 61 65 0 0 0
M  V30 BEGIN ATOM
M  V30 1 N 5.019912 4.612657 5.228697 0
M  V30 2 C 5.740138 3.880756 4.244754 0
M  V30 3 O 6.918424 3.582943 4.572459 0
M  V30 4 C 5.230175 3.471082 2.943014 0
M  V30 5 C 6.075678 2.774010 2.134847 0
M  V30 6 C 5.585396 2.382869 0.890113 0
M  V30 7 C 4.292552 2.715471 0.546069 0
M  V30 8 C 3.431800 3.410947 1.338246 0
M  V30 9 C 2.146581 3.719987 0.950401 0
M  V30 10 N 1.636307 3.332052 -0.313810 0
M  V30 11 C 0.328762 3.572389 -0.862997 0
M  V30 12 C -0.674796 2.898741 0.000346 0
M  V30 13 C -1.432759 3.410314 1.030509 0
M  V30 14 C -2.310459 2.621764 1.742419 0
M  V30 15 C -2.486057 1.281118 1.471900 0
M  V30 16 C -1.739498 0.743463 0.444563 0
M  V30 17 N -1.938422 -0.640282 0.186566 0
M  V30 18 C -2.828717 -1.335755 -0.654270 0
M  V30 19 O -3.594655 -0.571272 -1.299067 0
M  V30 20 C -2.773732 -2.794558 -0.688701 0
M  V30 21 C -1.932683 -3.642490 0.002322 0
M  V30 22 C -2.056077 -5.002305 -0.181835 0
M  V30 23 C -2.993864 -5.533032 -1.034605 0
M  V30 24 N -3.119204 -6.937796 -1.224279 0
M  V30 25 C -4.140123 -7.466315 -2.127484 0
M  V30 26 C -3.495154 -8.635384 -2.849844 0
M  V30 27 O -3.290545 -9.603122 -1.843266 0
M  V30 28 C -2.157121 -9.204214 -1.151429 0
M  V30 29 C -2.239300 -7.852301 -0.527804 0
M  V30 30 N -3.797956 -4.692635 -1.693558 0
M  V30 31 C -3.710047 -3.343773 -1.541210 0
M  V30 32 C -0.865692 1.541974 -0.259063 0
M  V30 33 N 1.378666 4.408717 1.804608 0
M  V30 34 C 1.864614 4.776660 2.995705 0
M  V30 35 N 3.127258 4.480127 3.392028 0
M  V30 36 C 3.947749 3.779318 2.554949 0
M  V30 37 H 4.432604 3.783500 5.510973 0
M  V30 38 H 5.313493 5.610865 5.300406 0
M  V30 39 H 7.083678 2.530545 2.437236 0
M  V30 40 H 6.275843 1.826894 0.259369 0
M  V30 41 H 4.029083 2.362849 -0.429582 0
M  V30 42 H 2.236721 2.806685 -0.966447 0
M  V30 43 H 0.079799 4.664286 -0.872948 0
M  V30 44 H 0.225337 3.151440 -1.882779 0
M  V30 45 H -1.290495 4.463540 1.219882 0
M  V30 46 H -2.854731 3.141576 2.535817 0
M  V30 47 H -3.198707 0.750589 2.088247 0
M  V30 48 H -1.211576 -1.092029 0.814649 0
M  V30 49 H -1.233959 -3.130353 0.644470 0
M  V30 50 H -1.382429 -5.621800 0.374845 0
M  V30 51 H -4.913585 -7.916928 -1.449728 0
M  V30 52 H -4.551931 -6.706379 -2.790066 0
M  V30 53 H -4.143935 -9.023971 -3.660482 0
M  V30 54 H -2.488540 -8.333079 -3.192930 0
M  V30 55 H -1.271655 -9.303698 -1.810602 0
M  V30 56 H -1.999579 -9.949530 -0.334419 0
M  V30 57 H -1.197145 -7.418978 -0.577579 0
M  V30 58 H -2.550399 -7.947744 0.541844 0
M  V30 59 H -4.452188 -2.820256 -2.163337 0
M  V30 60 H -0.323737 1.034656 -1.045989 0
M  V30 61 H 1.213067 5.334583 3.663289 0
M  V30 END ATOM
M  V30 BEGIN BOND
M  V30 1 1 1 2
M  V30 2 2 2 3
M  V30 3 1 2 4
M  V30 4 2 4 5
M  V30 5 1 5 6
M  V30 6 2 6 7
M  V30 7 1 7 8
M  V30 8 2 8 9
M  V30 9 1 9 10
M  V30 10 1 10 11
M  V30 11 1 11 12
M  V30 12 2 12 13
M  V30 13 1 13 14
M  V30 14 2 14 15
M  V30 15 1 15 16
M  V30 16 1 16 17
M  V30 17 1 17 18
M  V30 18 2 18 19
M  V30 19 1 18 20
M  V30 20 2 20 21
M  V30 21 1 21 22
M  V30 22 2 22 23
M  V30 23 1 23 24
M  V30 24 1 24 25
M  V30 25 1 25 26
M  V30 26 1 26 27
M  V30 27 1 27 28
M  V30 28 1 28 29
M  V30 29 1 23 30
M  V30 30 2 30 31
M  V30 31 2 16 32
M  V30 32 1 9 33
M  V30 33 2 33 34
M  V30 34 1 34 35
M  V30 35 2 35 36
M  V30 36 1 36 4
M  V30 37 1 36 8
M  V30 38 1 32 12
M  V30 39 1 31 20
M  V30 40 1 29 24
M  V30 41 1 1 37
M  V30 42 1 1 38
M  V30 43 1 5 39
M  V30 44 1 6 40
M  V30 45 1 7 41
M  V30 46 1 10 42
M  V30 47 1 11 43
M  V30 48 1 11 44
M  V30 49 1 13 45
M  V30 50 1 14 46
M  V30 51 1 15 47
M  V30 52 1 17 48
M  V30 53 1 21 49
M  V30 54 1 22 50
M  V30 55 1 25 51
M  V30 56 1 25 52
M  V30 57 1 26 53
M  V30 58 1 26 54
M  V30 59 1 28 55
M  V30 60 1 28 56
M  V30 61 1 29 57
M  V30 62 1 29 58
M  V30 63 1 31 59
M  V30 64 1 32 60
M  V30 65 1 34 61
M  V30 END BOND
M  V30 END CTAB
M  END
>  <Dataset>  (949) 
ChEMBL_Kinases

>  <Ligand_Instance>  (949) 
nan

>  <PDB_ID>  (949) 
nan

>  <Standardized_SMILES>  (949) 
NC(=O)c1cccc2c(NCc3cccc(NC(=O)c4ccc(N5CCOCC5)nc4)c3)ncnc12

>  <Name>  (949) 
nan

>  <Pocket>  (949) 
nan

>  <ATP_Site>  (949) 
nan

>  <Peripheral>  (949) 
nan

>  <Num_H_Atoms_ProtBoundConf>  (949) 
nan

>  <Num_Resolved_Atoms>  (949) 
nan

>  <Num_Not_Resolved_Atoms>  (949) 
nan

$$$$
CHEMBL3680528
     RDKit          3D

  0  0  0  0  0  0  0  0  0  0999 V3000
M  V30 BEGIN CTAB
M  V30 COUNTS 60 63 0 0 0
M  V30 BEGIN ATOM
M  V30 1 C 4.427382 -2.209122 4.856836 0
M  V30 2 O 3.447849 -1.715208 4.012257 0
M  V30 3 C 3.843334 -0.750494 3.124658 0
M  V30 4 C 4.469907 0.450390 3.795287 0
M  V30 5 N 4.845153 1.441322 2.756378 0
M  V30 6 C 3.584352 1.686136 2.092330 0
M  V30 7 C 3.626927 1.574311 0.692852 0
M  V30 8 C 2.428959 1.773638 -0.011934 0
M  V30 9 C 1.267896 2.072073 0.726692 0
M  V30 10 C 0.020192 2.265274 -0.007845 0
M  V30 11 O -1.052289 2.077473 0.669779 0
M  V30 12 N -0.268899 2.627187 -1.336195 0
M  V30 13 C -1.715412 2.576412 -1.299636 0
M  V30 14 C -2.540696 3.554808 -0.814835 0
M  V30 15 C -3.900049 3.337981 -0.836715 0
M  V30 16 C -4.371217 2.149360 -1.344776 0
M  V30 17 C -3.584173 1.147532 -1.840078 0
M  V30 18 C -3.960725 -0.213599 -2.384819 0
M  V30 19 N -3.771132 -1.246838 -1.475585 0
M  V30 20 C -3.575971 -2.314204 -0.535341 0
M  V30 21 N -4.136022 -2.591669 0.622404 0
M  V30 22 C -3.725060 -3.640182 1.338478 0
M  V30 23 N -2.750597 -4.418768 0.898508 0
M  V30 24 C -2.138333 -4.202101 -0.257977 0
M  V30 25 C -1.122748 -5.046318 -0.649451 0
M  V30 26 C -0.727221 -6.168869 0.209448 0
M  V30 27 N 0.384643 -7.020285 -0.003140 0
M  V30 28 O -1.454038 -6.344096 1.192428 0
M  V30 29 C -0.449569 -4.853410 -1.845104 0
M  V30 30 C -0.816238 -3.795680 -2.640222 0
M  V30 31 C -1.831906 -2.976672 -2.215251 0
M  V30 32 C -2.537177 -3.107889 -1.046458 0
M  V30 33 C -2.194667 1.364474 -1.819836 0
M  V30 34 C 1.262425 2.177870 2.098651 0
M  V30 35 N 2.430777 1.981576 2.778596 0
M  V30 36 H 4.784071 -1.347247 5.508690 0
M  V30 37 H 4.037473 -2.979525 5.539027 0
M  V30 38 H 5.359231 -2.528991 4.317019 0
M  V30 39 H 4.542925 -1.245261 2.410442 0
M  V30 40 H 2.944318 -0.445818 2.542310 0
M  V30 41 H 5.402441 0.106478 4.292684 0
M  V30 42 H 3.735168 0.895943 4.486396 0
M  V30 43 H 5.811752 1.791145 2.646201 0
M  V30 44 H 4.549494 1.329826 0.154563 0
M  V30 45 H 2.393620 1.701756 -1.113016 0
M  V30 46 H 0.565640 2.814359 -1.924972 0
M  V30 47 H -2.074927 4.451862 -0.435172 0
M  V30 48 H -4.605042 4.064735 -0.465024 0
M  V30 49 H -5.422732 1.892791 -1.414419 0
M  V30 50 H -5.001477 -0.115509 -2.771724 0
M  V30 51 H -3.360478 -0.327078 -3.333338 0
M  V30 52 H -4.545025 -0.783152 -0.887282 0
M  V30 53 H -4.261032 -3.766580 2.280536 0
M  V30 54 H 1.055342 -6.542785 0.659944 0
M  V30 55 H -0.099983 -7.656612 -0.711441 0
M  V30 56 H 0.341506 -5.541022 -2.100829 0
M  V30 57 H -0.338080 -3.597870 -3.564553 0
M  V30 58 H -2.108840 -2.169531 -2.829001 0
M  V30 59 H -1.521315 0.589889 -2.205116 0
M  V30 60 H 0.356963 2.420819 2.682556 0
M  V30 END ATOM
M  V30 BEGIN BOND
M  V30 1 1 1 2
M  V30 2 1 2 3
M  V30 3 1 3 4
M  V30 4 1 4 5
M  V30 5 1 5 6
M  V30 6 2 6 7
M  V30 7 1 7 8
M  V30 8 2 8 9
M  V30 9 1 9 10
M  V30 10 2 10 11
M  V30 11 1 10 12
M  V30 12 1 12 13
M  V30 13 2 13 14
M  V30 14 1 14 15
M  V30 15 2 15 16
M  V30 16 1 16 17
M  V30 17 1 17 18
M  V30 18 1 18 19
M  V30 19 1 19 20
M  V30 20 2 20 21
M  V30 21 1 21 22
M  V30 22 2 22 23
M  V30 23 1 23 24
M  V30 24 2 24 25
M  V30 25 1 25 26
M  V30 26 1 26 27
M  V30 27 2 26 28
M  V30 28 1 25 29
M  V30 29 2 29 30
M  V30 30 1 30 31
M  V30 31 2 31 32
M  V30 32 2 17 33
M  V30 33 1 9 34
M  V30 34 2 34 35
M  V30 35 1 35 6
M  V30 36 1 33 13
M  V30 37 1 32 20
M  V30 38 1 32 24
M  V30 39 1 1 36
M  V30 40 1 1 37
M  V30 41 1 1 38
M  V30 42 1 3 39
M  V30 43 1 3 40
M  V30 44 1 4 41
M  V30 45 1 4 42
M  V30 46 1 5 43
M  V30 47 1 7 44
M  V30 48 1 8 45
M  V30 49 1 12 46
M  V30 50 1 14 47
M  V30 51 1 15 48
M  V30 52 1 16 49
M  V30 53 1 18 50
M  V30 54 1 18 51
M  V30 55 1 19 52
M  V30 56 1 22 53
M  V30 57 1 27 54
M  V30 58 1 27 55
M  V30 59 1 29 56
M  V30 60 1 30 57
M  V30 61 1 31 58
M  V30 62 1 33 59
M  V30 63 1 34 60
M  V30 END BOND
M  V30 END CTAB
M  END
>  <Dataset>  (950) 
ChEMBL_Kinases

>  <Ligand_Instance>  (950) 
nan

>  <PDB_ID>  (950) 
nan

>  <Standardized_SMILES>  (950) 
COCCNc1ccc(C(=O)Nc2cccc(CNc3ncnc4c(C(N)=O)cccc34)c2)cn1

>  <Name>  (950) 
nan

>  <Pocket>  (950) 
nan

>  <ATP_Site>  (950) 
nan

>  <Peripheral>  (950) 
nan

>  <Num_H_Atoms_ProtBoundConf>  (950) 
nan

>  <Num_Resolved_Atoms>  (950) 
nan

>  <Num_Not_Resolved_Atoms>  (950) 
nan

$$$$
CHEMBL3103881
     RDKit          3D

  0  0  0  0  0  0  0  0  0  0999 V3000
M  V30 BEGIN CTAB
M  V30 COUNTS 44 46 0 0 0
M  V30 BEGIN ATOM
M  V30 1 C 0.781592 -6.477214 1.148943 0
M  V30 2 C 1.434680 -5.170363 0.803527 0
M  V30 3 O 1.738295 -4.303067 1.691226 0
M  V30 4 N 1.759237 -4.803688 -0.509343 0
M  V30 5 C 2.374031 -3.489735 -0.496811 0
M  V30 6 N 1.773676 -2.405133 -0.596137 0
M  V30 7 C 2.418570 -1.246932 -0.574886 0
M  V30 8 C 1.717860 0.027114 -0.691140 0
M  V30 9 O 2.301243 1.139281 -0.674236 0
M  V30 10 N 0.307917 0.138155 -0.834976 0
M  V30 11 C -0.091651 1.496490 -0.924210 0
M  V30 12 C -0.185133 2.196992 -2.109637 0
M  V30 13 C -0.573428 3.502494 -2.164623 0
M  V30 14 C -0.885006 4.148554 -0.990071 0
M  V30 15 C -0.788513 3.436521 0.199638 0
M  V30 16 C -0.391472 2.095786 0.273078 0
M  V30 17 N -0.356910 1.543464 1.579486 0
M  V30 18 C 0.673294 0.968077 2.374759 0
M  V30 19 C 0.369534 -0.496674 2.583505 0
M  V30 20 C -1.109953 -0.641809 2.855799 0
M  V30 21 C -1.673575 0.661742 3.365987 0
M  V30 22 C -1.681949 1.610182 2.176717 0
M  V30 23 C 3.852005 -1.311353 -0.430596 0
M  V30 24 S 4.101609 -3.124165 -0.339210 0
M  V30 25 H 0.701122 -6.552813 2.239119 0
M  V30 26 H -0.275170 -6.412862 0.761522 0
M  V30 27 H 1.267631 -7.341515 0.688072 0
M  V30 28 H 1.549065 -5.449358 -1.306443 0
M  V30 29 H -0.248035 -0.769889 -0.856929 0
M  V30 30 H 0.071730 1.639505 -3.002361 0
M  V30 31 H -0.643271 4.043368 -3.103503 0
M  V30 32 H -1.198383 5.184455 -0.980116 0
M  V30 33 H -1.044786 3.990565 1.096806 0
M  V30 34 H 0.693831 1.422825 3.410389 0
M  V30 35 H 1.697764 1.141948 2.004212 0
M  V30 36 H 0.714248 -1.152386 1.766757 0
M  V30 37 H 0.890713 -0.892841 3.499079 0
M  V30 38 H -1.628275 -0.833760 1.882812 0
M  V30 39 H -1.337561 -1.488201 3.532844 0
M  V30 40 H -1.141707 1.085338 4.222872 0
M  V30 41 H -2.740048 0.537525 3.648390 0
M  V30 42 H -2.499140 1.390180 1.479564 0
M  V30 43 H -1.789327 2.657883 2.579772 0
M  V30 44 H 4.491532 -0.365509 -0.402060 0
M  V30 END ATOM
M  V30 BEGIN BOND
M  V30 1 1 1 2
M  V30 2 2 2 3
M  V30 3 1 2 4
M  V30 4 1 4 5
M  V30 5 2 5 6
M  V30 6 1 6 7
M  V30 7 1 7 8
M  V30 8 2 8 9
M  V30 9 1 8 10
M  V30 10 1 10 11
M  V30 11 2 11 12
M  V30 12 1 12 13
M  V30 13 2 13 14
M  V30 14 1 14 15
M  V30 15 2 15 16
M  V30 16 1 16 17
M  V30 17 1 17 18
M  V30 18 1 18 19
M  V30 19 1 19 20
M  V30 20 1 20 21
M  V30 21 1 21 22
M  V30 22 2 7 23
M  V30 23 1 23 24
M  V30 24 1 24 5
M  V30 25 1 16 11
M  V30 26 1 22 17
M  V30 27 1 1 25
M  V30 28 1 1 26
M  V30 29 1 1 27
M  V30 30 1 4 28
M  V30 31 1 10 29
M  V30 32 1 12 30
M  V30 33 1 13 31
M  V30 34 1 14 32
M  V30 35 1 15 33
M  V30 36 1 18 34
M  V30 37 1 18 35
M  V30 38 1 19 36
M  V30 39 1 19 37
M  V30 40 1 20 38
M  V30 41 1 20 39
M  V30 42 1 21 40
M  V30 43 1 21 41
M  V30 44 1 22 42
M  V30 45 1 22 43
M  V30 46 1 23 44
M  V30 END BOND
M  V30 END CTAB
M  END
>  <Dataset>  (951) 
ChEMBL_Kinases

>  <Ligand_Instance>  (951) 
nan

>  <PDB_ID>  (951) 
nan

>  <Standardized_SMILES>  (951) 
CC(=O)Nc1nc(C(=O)Nc2ccccc2N2CCCCC2)cs1

>  <Name>  (951) 
nan

>  <Pocket>  (951) 
nan

>  <ATP_Site>  (951) 
nan

>  <Peripheral>  (951) 
nan

>  <Num_H_Atoms_ProtBoundConf>  (951) 
nan

>  <Num_Resolved_Atoms>  (951) 
nan

>  <Num_Not_Resolved_Atoms>  (951) 
nan

$$$$
CHEMBL3680527
     RDKit          3D

  0  0  0  0  0  0  0  0  0  0999 V3000
M  V30 BEGIN CTAB
M  V30 COUNTS 54 57 0 0 0
M  V30 BEGIN ATOM
M  V30 1 C 1.717814 -3.657930 2.865052 0
M  V30 2 C 0.928236 -2.403128 2.548835 0 CFG=1
M  V30 3 N 1.203628 -1.360505 3.518975 0
M  V30 4 C 0.505457 -0.113108 3.333348 0
M  V30 5 N -0.344244 0.044835 2.315506 0
M  V30 6 C -1.015912 1.184588 2.112646 0
M  V30 7 N -0.856388 2.230217 2.940921 0
M  V30 8 C -0.005942 2.154178 4.007654 0
M  V30 9 C 0.142108 3.240561 4.839973 0
M  V30 10 C -0.614096 4.492093 4.617362 0
M  V30 11 N -1.537157 4.524460 3.534884 0
M  V30 12 O -0.430098 5.479799 5.373467 0
M  V30 13 C 1.012027 3.183330 5.937356 0
M  V30 14 C 1.659323 1.975139 6.068194 0
M  V30 15 C 1.532868 0.876140 5.257204 0
M  V30 16 C 0.683408 0.962258 4.202446 0
M  V30 17 C 1.203538 -1.956154 1.141802 0
M  V30 18 C 2.397549 -1.307613 0.932242 0
M  V30 19 C 2.616800 -0.908300 -0.372101 0
M  V30 20 C 1.743692 -1.109138 -1.452750 0
M  V30 21 C 0.583137 -1.777845 -1.073793 0
M  V30 22 N -0.353161 -2.017120 -2.120901 0
M  V30 23 C -0.550337 -3.075086 -3.042803 0
M  V30 24 O 0.155743 -4.123147 -3.104837 0
M  V30 25 N -1.615037 -2.976506 -3.979776 0
M  V30 26 C -1.881281 -4.024869 -4.950923 0
M  V30 27 C -2.099145 -3.178706 -6.189433 0
M  V30 28 C -2.939906 -2.045649 -5.642383 0
M  V30 29 F -2.691024 -0.888518 -6.338498 0
M  V30 30 F -4.290524 -2.319269 -5.791925 0
M  V30 31 C -2.587782 -1.911926 -4.171680 0
M  V30 32 C 0.259457 -2.218446 0.179019 0
M  V30 33 H 2.768871 -3.435641 3.132650 0
M  V30 34 H 1.240786 -4.119652 3.753405 0
M  V30 35 H 1.650872 -4.392410 2.039940 0
M  V30 36 H -0.154824 -2.641807 2.655949 0
M  V30 37 H 1.877809 -1.585062 4.275788 0
M  V30 38 H -1.694435 1.285622 1.278510 0
M  V30 39 H -2.429551 4.174726 3.168168 0
M  V30 40 H -1.291353 5.145245 2.709296 0
M  V30 41 H 1.115977 4.027926 6.569699 0
M  V30 42 H 2.342285 1.936967 6.933028 0
M  V30 43 H 2.091890 -0.001219 5.467265 0
M  V30 44 H 3.144717 -1.097135 1.680302 0
M  V30 45 H 3.547498 -0.382563 -0.631989 0
M  V30 46 H 1.969431 -0.777388 -2.440063 0
M  V30 47 H -1.002168 -1.210567 -2.164823 0
M  V30 48 H -2.837976 -4.565071 -4.756857 0
M  V30 49 H -1.027754 -4.717357 -5.067066 0
M  V30 50 H -2.616074 -3.729778 -6.997040 0
M  V30 51 H -1.132138 -2.723851 -6.537380 0
M  V30 52 H -3.477789 -2.017039 -3.522904 0
M  V30 53 H -2.054779 -0.944474 -3.984623 0
M  V30 54 H -0.673088 -2.727557 0.352363 0
M  V30 END ATOM
M  V30 BEGIN BOND
M  V30 1 1 1 2
M  V30 2 1 2 3
M  V30 3 1 3 4
M  V30 4 2 4 5
M  V30 5 1 5 6
M  V30 6 2 6 7
M  V30 7 1 7 8
M  V30 8 2 8 9
M  V30 9 1 9 10
M  V30 10 1 10 11
M  V30 11 2 10 12
M  V30 12 1 9 13
M  V30 13 2 13 14
M  V30 14 1 14 15
M  V30 15 2 15 16
M  V30 16 1 2 17
M  V30 17 2 17 18
M  V30 18 1 18 19
M  V30 19 2 19 20
M  V30 20 1 20 21
M  V30 21 1 21 22
M  V30 22 1 22 23
M  V30 23 2 23 24
M  V30 24 1 23 25
M  V30 25 1 25 26
M  V30 26 1 26 27
M  V30 27 1 27 28
M  V30 28 1 28 29
M  V30 29 1 28 30
M  V30 30 1 28 31
M  V30 31 2 21 32
M  V30 32 1 16 4
M  V30 33 1 32 17
M  V30 34 1 16 8
M  V30 35 1 31 25
M  V30 36 1 1 33
M  V30 37 1 1 34
M  V30 38 1 1 35
M  V30 39 1 2 36 CFG=3
M  V30 40 1 3 37
M  V30 41 1 6 38
M  V30 42 1 11 39
M  V30 43 1 11 40
M  V30 44 1 13 41
M  V30 45 1 14 42
M  V30 46 1 15 43
M  V30 47 1 18 44
M  V30 48 1 19 45
M  V30 49 1 20 46
M  V30 50 1 22 47
M  V30 51 1 26 48
M  V30 52 1 26 49
M  V30 53 1 27 50
M  V30 54 1 27 51
M  V30 55 1 31 52
M  V30 56 1 31 53
M  V30 57 1 32 54
M  V30 END BOND
M  V30 END CTAB
M  END
>  <Dataset>  (952) 
ChEMBL_Kinases

>  <Ligand_Instance>  (952) 
nan

>  <PDB_ID>  (952) 
nan

>  <Standardized_SMILES>  (952) 
C[C@@H](Nc1ncnc2c(C(N)=O)cccc12)c1cccc(NC(=O)N2CCC(F)(F)C2)c1

>  <Name>  (952) 
nan

>  <Pocket>  (952) 
nan

>  <ATP_Site>  (952) 
nan

>  <Peripheral>  (952) 
nan

>  <Num_H_Atoms_ProtBoundConf>  (952) 
nan

>  <Num_Resolved_Atoms>  (952) 
nan

>  <Num_Not_Resolved_Atoms>  (952) 
nan

$$$$
CHEMBL3103884
     RDKit          3D

  0  0  0  0  0  0  0  0  0  0999 V3000
M  V30 BEGIN CTAB
M  V30 COUNTS 42 44 0 0 0
M  V30 BEGIN ATOM
M  V30 1 N -0.935505 -3.896989 -1.807390 0
M  V30 2 C 0.418356 -3.957869 -1.378237 0
M  V30 3 C 0.978128 -5.221399 -1.352098 0
M  V30 4 C 2.302025 -5.386929 -0.945351 0
M  V30 5 C 3.035547 -4.279719 -0.573487 0
M  V30 6 N 2.470004 -3.048957 -0.605490 0
M  V30 7 C 1.192694 -2.889961 -0.998010 0
M  V30 8 C 0.570955 -1.571737 -1.037405 0
M  V30 9 O -0.623047 -1.472101 -1.410295 0
M  V30 10 N 1.350191 -0.436195 -0.647289 0
M  V30 11 C 1.062489 0.936026 -0.572318 0
M  V30 12 C 1.230791 1.856593 -1.584033 0
M  V30 13 C 0.910433 3.198742 -1.393063 0
M  V30 14 C 0.417141 3.620120 -0.176628 0
M  V30 15 C 0.249340 2.679230 0.845054 0
M  V30 16 C 0.577372 1.338864 0.630533 0
M  V30 17 N 0.313315 0.597424 1.826580 0
M  V30 18 C -0.598087 -0.502445 1.958841 0
M  V30 19 C -1.293550 -0.577615 3.281589 0
M  V30 20 C -1.270753 0.764801 3.931746 0
M  V30 21 C 0.126043 1.281717 4.173921 0
M  V30 22 C 1.042769 1.009941 3.009209 0
M  V30 23 H -1.805134 -3.491751 -1.362250 0
M  V30 24 H -1.802282 -3.489550 -1.356760 0
M  V30 25 H 0.449920 -6.130071 -1.633458 0
M  V30 26 H 2.763537 -6.358617 -0.915231 0
M  V30 27 H 4.076301 -4.345695 -0.245898 0
M  V30 28 H 2.351551 -0.562266 -0.339795 0
M  V30 29 H 1.627504 1.456412 -2.527880 0
M  V30 30 H 1.058139 3.888018 -2.214436 0
M  V30 31 H 0.183977 4.670833 -0.079107 0
M  V30 32 H -0.143835 3.142628 1.742990 0
M  V30 33 H -0.110491 -1.483971 1.773720 0
M  V30 34 H -1.364514 -0.359464 1.148499 0
M  V30 35 H -2.369396 -0.822147 3.096602 0
M  V30 36 H -0.901408 -1.385201 3.930802 0
M  V30 37 H -1.768791 0.682861 4.923625 0
M  V30 38 H -1.882139 1.455910 3.331553 0
M  V30 39 H 0.545242 0.789845 5.075505 0
M  V30 40 H 0.041173 2.363903 4.402869 0
M  V30 41 H 1.627764 1.939896 2.853720 0
M  V30 42 H 1.761121 0.204340 3.250261 0
M  V30 END ATOM
M  V30 BEGIN BOND
M  V30 1 1 1 2
M  V30 2 2 2 3
M  V30 3 1 3 4
M  V30 4 2 4 5
M  V30 5 1 5 6
M  V30 6 2 6 7
M  V30 7 1 7 8
M  V30 8 2 8 9
M  V30 9 1 8 10
M  V30 10 1 10 11
M  V30 11 2 11 12
M  V30 12 1 12 13
M  V30 13 2 13 14
M  V30 14 1 14 15
M  V30 15 2 15 16
M  V30 16 1 16 17
M  V30 17 1 17 18
M  V30 18 1 18 19
M  V30 19 1 19 20
M  V30 20 1 20 21
M  V30 21 1 21 22
M  V30 22 1 7 2
M  V30 23 1 16 11
M  V30 24 1 22 17
M  V30 25 1 1 23
M  V30 26 1 1 24
M  V30 27 1 3 25
M  V30 28 1 4 26
M  V30 29 1 5 27
M  V30 30 1 10 28
M  V30 31 1 12 29
M  V30 32 1 13 30
M  V30 33 1 14 31
M  V30 34 1 15 32
M  V30 35 1 18 33
M  V30 36 1 18 34
M  V30 37 1 19 35
M  V30 38 1 19 36
M  V30 39 1 20 37
M  V30 40 1 20 38
M  V30 41 1 21 39
M  V30 42 1 21 40
M  V30 43 1 22 41
M  V30 44 1 22 42
M  V30 END BOND
M  V30 END CTAB
M  END
>  <Dataset>  (953) 
ChEMBL_Kinases

>  <Ligand_Instance>  (953) 
nan

>  <PDB_ID>  (953) 
nan

>  <Standardized_SMILES>  (953) 
Nc1cccnc1C(=O)Nc1ccccc1N1CCCCC1

>  <Name>  (953) 
nan

>  <Pocket>  (953) 
nan

>  <ATP_Site>  (953) 
nan

>  <Peripheral>  (953) 
nan

>  <Num_H_Atoms_ProtBoundConf>  (953) 
nan

>  <Num_Resolved_Atoms>  (953) 
nan

>  <Num_Not_Resolved_Atoms>  (953) 
nan

$$$$
CHEMBL4591390
     RDKit          3D

  0  0  0  0  0  0  0  0  0  0999 V3000
M  V30 BEGIN CTAB
M  V30 COUNTS 49 52 0 0 0
M  V30 BEGIN ATOM
M  V30 1 C 0.437651 -3.132537 5.513399 0
M  V30 2 C 0.605744 -3.160404 4.017808 0
M  V30 3 O -0.473879 -3.432406 3.394937 0
M  V30 4 N 1.778936 -2.928831 3.243818 0
M  V30 5 C 1.402272 -3.074252 1.877277 0
M  V30 6 C 0.944961 -1.990263 1.115921 0
M  V30 7 C 0.595581 -2.222440 -0.220107 0
M  V30 8 C 0.148493 -0.988379 -0.852913 0
M  V30 9 N 0.866754 0.124822 -1.125040 0
M  V30 10 C 0.097451 1.031784 -1.710008 0
M  V30 11 S 0.684454 2.640575 -2.224840 0
M  V30 12 C 0.478177 3.846329 -0.867755 0
M  V30 13 C 1.368312 3.494959 0.276226 0
M  V30 14 C 2.666262 4.010947 0.342616 0
M  V30 15 C 3.482931 3.679194 1.407201 0
M  V30 16 C 3.013463 2.834323 2.408764 0
M  V30 17 C 1.737473 2.314691 2.362687 0
M  V30 18 C 0.946101 2.665523 1.285426 0
M  V30 19 N -1.133308 0.477070 -1.808572 0
M  V30 20 C -1.138473 -0.765951 -1.290965 0
M  V30 21 C -2.336392 -1.595690 -1.265420 0
M  V30 22 C -3.314032 -1.005311 -0.454464 0
M  V30 23 C -4.553192 -1.608032 -0.270615 0
M  V30 24 C -4.841743 -2.806491 -0.888872 0
M  V30 25 F -6.004970 -3.492234 -0.791365 0
M  V30 26 C -3.862898 -3.370584 -1.683826 0
M  V30 27 C -2.632606 -2.783462 -1.873493 0
M  V30 28 C 0.711962 -3.490681 -0.732853 0
M  V30 29 C 1.165065 -4.536063 0.042233 0
M  V30 30 N 1.497868 -4.300227 1.325483 0
M  V30 31 H -0.269764 -2.268794 5.684576 0
M  V30 32 H -0.074181 -4.024822 5.900229 0
M  V30 33 H 1.379479 -2.880051 5.993850 0
M  V30 34 H 2.609900 -2.714891 3.834874 0
M  V30 35 H 0.906227 -1.044036 1.658608 0
M  V30 36 H 1.884439 0.217074 -0.890709 0
M  V30 37 H -0.562288 3.792440 -0.448311 0
M  V30 38 H 0.607079 4.870391 -1.212408 0
M  V30 39 H 3.048823 4.671452 -0.429912 0
M  V30 40 H 4.499348 4.068541 1.482030 0
M  V30 41 H 3.649210 2.565589 3.254087 0
M  V30 42 H 1.352077 1.658970 3.125737 0
M  V30 43 H -0.069808 2.280903 1.203788 0
M  V30 44 H -3.225984 -0.056293 0.098519 0
M  V30 45 H -5.330654 -1.182509 0.347045 0
M  V30 46 H -3.975741 -4.308630 -2.219243 0
M  V30 47 H -1.813283 -3.144623 -2.471604 0
M  V30 48 H 0.424303 -3.556126 -1.751410 0
M  V30 49 H 1.215299 -5.488015 -0.466833 0
M  V30 END ATOM
M  V30 BEGIN BOND
M  V30 1 1 1 2
M  V30 2 2 2 3
M  V30 3 1 2 4
M  V30 4 1 4 5
M  V30 5 2 5 6
M  V30 6 1 6 7
M  V30 7 1 7 8
M  V30 8 1 8 9
M  V30 9 1 9 10
M  V30 10 1 10 11
M  V30 11 1 11 12
M  V30 12 1 12 13
M  V30 13 2 13 14
M  V30 14 1 14 15
M  V30 15 2 15 16
M  V30 16 1 16 17
M  V30 17 2 17 18
M  V30 18 2 10 19
M  V30 19 1 19 20
M  V30 20 1 20 21
M  V30 21 2 21 22
M  V30 22 1 22 23
M  V30 23 2 23 24
M  V30 24 1 24 25
M  V30 25 1 24 26
M  V30 26 2 26 27
M  V30 27 2 7 28
M  V30 28 1 28 29
M  V30 29 2 29 30
M  V30 30 1 30 5
M  V30 31 2 20 8
M  V30 32 1 27 21
M  V30 33 1 18 13
M  V30 34 1 1 31
M  V30 35 1 1 32
M  V30 36 1 1 33
M  V30 37 1 4 34
M  V30 38 1 6 35
M  V30 39 1 9 36
M  V30 40 1 12 37
M  V30 41 1 12 38
M  V30 42 1 14 39
M  V30 43 1 15 40
M  V30 44 1 16 41
M  V30 45 1 17 42
M  V30 46 1 18 43
M  V30 47 1 22 44
M  V30 48 1 23 45
M  V30 49 1 26 46
M  V30 50 1 27 47
M  V30 51 1 28 48
M  V30 52 1 29 49
M  V30 END BOND
M  V30 END CTAB
M  END
>  <Dataset>  (954) 
ChEMBL_Kinases

>  <Ligand_Instance>  (954) 
nan

>  <PDB_ID>  (954) 
nan

>  <Standardized_SMILES>  (954) 
CC(=O)Nc1cc(-c2[nH]c(SCc3ccccc3)nc2-c2ccc(F)cc2)ccn1

>  <Name>  (954) 
nan

>  <Pocket>  (954) 
nan

>  <ATP_Site>  (954) 
nan

>  <Peripheral>  (954) 
nan

>  <Num_H_Atoms_ProtBoundConf>  (954) 
nan

>  <Num_Resolved_Atoms>  (954) 
nan

>  <Num_Not_Resolved_Atoms>  (954) 
nan

$$$$
CHEMBL217537
     RDKit          3D

  0  0  0  0  0  0  0  0  0  0999 V3000
M  V30 BEGIN CTAB
M  V30 COUNTS 50 52 0 0 0
M  V30 BEGIN ATOM
M  V30 1 C 5.711984 -1.927229 1.962114 0
M  V30 2 O 4.880486 -1.387681 0.980782 0
M  V30 3 C 5.271248 -0.372654 0.152924 0
M  V30 4 C 6.543285 0.137194 0.294619 0
M  V30 5 C 6.972283 1.158307 -0.523586 0
M  V30 6 C 6.138104 1.680123 -1.489751 0
M  V30 7 C 4.883504 1.128599 -1.579523 0
M  V30 8 C 4.374736 0.092242 -0.786597 0
M  V30 9 C 3.013110 -0.368867 -0.987104 0
M  V30 10 O 2.836814 -0.587750 -2.228167 0
M  V30 11 C 1.894694 -0.608050 -0.091984 0
M  V30 12 C 1.878771 -0.345837 1.257697 0
M  V30 13 N 0.768085 -0.595850 2.012590 0
M  V30 14 C -0.344805 -1.114697 1.414565 0
M  V30 15 N -1.507079 -1.378149 2.193148 0
M  V30 16 C -2.705431 -1.939056 1.541889 0
M  V30 17 C -3.817450 -2.147724 2.494757 0
M  V30 18 C -5.192784 -1.858754 2.011506 0
M  V30 19 N -5.162086 -0.619096 1.281784 0
M  V30 20 C -5.808038 0.522893 1.796063 0
M  V30 21 C -5.837225 1.833732 1.130589 0
M  V30 22 O -6.354125 0.241755 2.912773 0
M  V30 23 C -4.417081 -0.794021 0.066803 0
M  V30 24 C -2.988764 -1.209507 0.287786 0
M  V30 25 N -0.321743 -1.367771 0.095685 0
M  V30 26 C 0.769834 -1.131448 -0.692522 0
M  V30 27 N 0.623525 -1.455310 -2.063792 0
M  V30 28 H 6.644386 -2.265800 1.425665 0
M  V30 29 H 5.977098 -1.132184 2.701969 0
M  V30 30 H 5.248899 -2.766216 2.515050 0
M  V30 31 H 7.204099 -0.284257 1.068399 0
M  V30 32 H 7.963201 1.582673 -0.440557 0
M  V30 33 H 6.397368 2.481806 -2.173249 0
M  V30 34 H 4.200953 1.530203 -2.344221 0
M  V30 35 H 2.746067 0.068639 1.725053 0
M  V30 36 H -1.496514 -1.170709 3.215072 0
M  V30 37 H -2.347778 -2.976612 1.256968 0
M  V30 38 H -3.642424 -1.519393 3.416241 0
M  V30 39 H -3.855978 -3.196064 2.918430 0
M  V30 40 H -5.549023 -2.689106 1.347435 0
M  V30 41 H -5.853635 -1.791373 2.906906 0
M  V30 42 H -6.743278 2.425465 1.400458 0
M  V30 43 H -4.905830 2.378023 1.359894 0
M  V30 44 H -5.898233 1.658952 0.028020 0
M  V30 45 H -4.480945 0.110160 -0.599442 0
M  V30 46 H -4.911621 -1.595526 -0.524916 0
M  V30 47 H -2.408944 -0.239233 0.308438 0
M  V30 48 H -2.566543 -1.738120 -0.599439 0
M  V30 49 H 1.145131 -2.208399 -2.586254 0
M  V30 50 H -0.068787 -0.889760 -2.601707 0
M  V30 END ATOM
M  V30 BEGIN BOND
M  V30 1 1 1 2
M  V30 2 1 2 3
M  V30 3 2 3 4
M  V30 4 1 4 5
M  V30 5 2 5 6
M  V30 6 1 6 7
M  V30 7 2 7 8
M  V30 8 1 8 9
M  V30 9 2 9 10
M  V30 10 1 9 11
M  V30 11 2 11 12
M  V30 12 1 12 13
M  V30 13 2 13 14
M  V30 14 1 14 15
M  V30 15 1 15 16
M  V30 16 1 16 17
M  V30 17 1 17 18
M  V30 18 1 18 19
M  V30 19 1 19 20
M  V30 20 1 20 21
M  V30 21 2 20 22
M  V30 22 1 19 23
M  V30 23 1 23 24
M  V30 24 1 14 25
M  V30 25 2 25 26
M  V30 26 1 26 27
M  V30 27 1 8 3
M  V30 28 1 26 11
M  V30 29 1 24 16
M  V30 30 1 1 28
M  V30 31 1 1 29
M  V30 32 1 1 30
M  V30 33 1 4 31
M  V30 34 1 5 32
M  V30 35 1 6 33
M  V30 36 1 7 34
M  V30 37 1 12 35
M  V30 38 1 15 36
M  V30 39 1 16 37
M  V30 40 1 17 38
M  V30 41 1 17 39
M  V30 42 1 18 40
M  V30 43 1 18 41
M  V30 44 1 21 42
M  V30 45 1 21 43
M  V30 46 1 21 44
M  V30 47 1 23 45
M  V30 48 1 23 46
M  V30 49 1 24 47
M  V30 50 1 24 48
M  V30 51 1 27 49
M  V30 52 1 27 50
M  V30 END BOND
M  V30 END CTAB
M  END
>  <Dataset>  (955) 
ChEMBL_Kinases

>  <Ligand_Instance>  (955) 
nan

>  <PDB_ID>  (955) 
nan

>  <Standardized_SMILES>  (955) 
COc1ccccc1C(=O)c1cnc(NC2CCN(C(C)=O)CC2)nc1N

>  <Name>  (955) 
nan

>  <Pocket>  (955) 
nan

>  <ATP_Site>  (955) 
nan

>  <Peripheral>  (955) 
nan

>  <Num_H_Atoms_ProtBoundConf>  (955) 
nan

>  <Num_Resolved_Atoms>  (955) 
nan

>  <Num_Not_Resolved_Atoms>  (955) 
nan

$$$$
CHEMBL3685283
     RDKit          3D

  0  0  0  0  0  0  0  0  0  0999 V3000
M  V30 BEGIN CTAB
M  V30 COUNTS 40 42 0 0 0
M  V30 BEGIN ATOM
M  V30 1 C 2.951285 -2.620563 1.006478 0
M  V30 2 C 1.739932 -2.433489 1.853143 0 CFG=1
M  V30 3 N 1.438554 -1.027542 2.087866 0
M  V30 4 C 1.137028 -0.205991 0.983053 0
M  V30 5 N 1.116479 -0.691840 -0.268165 0
M  V30 6 C 0.833772 0.034674 -1.363383 0
M  V30 7 N 0.543701 1.356317 -1.233826 0
M  V30 8 C 0.539308 1.940641 -0.004476 0
M  V30 9 C 0.247811 3.279271 0.148410 0
M  V30 10 C -0.063561 4.097919 -1.017620 0
M  V30 11 N -0.080066 3.565023 -2.332196 0
M  V30 12 O -0.333339 5.321936 -0.908868 0
M  V30 13 C 0.242504 3.873841 1.391211 0
M  V30 14 C 0.540059 3.085553 2.492499 0
M  V30 15 C 0.825327 1.750457 2.288394 0
M  V30 16 C 0.838312 1.135610 1.074164 0
M  V30 17 C 0.504940 -3.030804 1.257126 0
M  V30 18 C 0.398391 -3.867624 0.185183 0
M  V30 19 C -0.820900 -4.327510 -0.233308 0
M  V30 20 C -2.006887 -3.973001 0.401744 0
M  V30 21 C -1.894715 -3.123236 1.489666 0
M  V30 22 N -3.138900 -2.793565 2.100970 0
M  V30 23 C -0.659188 -2.657674 1.913158 0
M  V30 24 H 3.087934 -1.910803 0.186103 0
M  V30 25 H 3.052805 -3.664254 0.686802 0
M  V30 26 H 3.835287 -2.439965 1.689427 0
M  V30 27 H 1.908197 -3.002010 2.790484 0
M  V30 28 H 1.472328 -0.743228 3.072581 0
M  V30 29 H 0.832232 -0.414520 -2.354972 0
M  V30 30 H -0.532379 2.871966 -2.960831 0
M  V30 31 H 0.610596 3.972520 -3.028285 0
M  V30 32 H 0.005703 4.935145 1.458551 0
M  V30 33 H 0.538129 3.549126 3.482342 0
M  V30 34 H 1.044078 1.211374 3.185730 0
M  V30 35 H 1.325099 -4.122687 -0.282907 0
M  V30 36 H -0.874009 -4.988095 -1.084039 0
M  V30 37 H -2.954791 -4.361141 0.036607 0
M  V30 38 H -3.687854 -1.902376 2.017544 0
M  V30 39 H -3.595229 -3.519944 2.726418 0
M  V30 40 H -0.764493 -2.007955 2.773050 0
M  V30 END ATOM
M  V30 BEGIN BOND
M  V30 1 1 1 2
M  V30 2 1 2 3
M  V30 3 1 3 4
M  V30 4 2 4 5
M  V30 5 1 5 6
M  V30 6 2 6 7
M  V30 7 1 7 8
M  V30 8 2 8 9
M  V30 9 1 9 10
M  V30 10 1 10 11
M  V30 11 2 10 12
M  V30 12 1 9 13
M  V30 13 2 13 14
M  V30 14 1 14 15
M  V30 15 2 15 16
M  V30 16 1 2 17
M  V30 17 2 17 18
M  V30 18 1 18 19
M  V30 19 2 19 20
M  V30 20 1 20 21
M  V30 21 1 21 22
M  V30 22 2 21 23
M  V30 23 1 16 4
M  V30 24 1 23 17
M  V30 25 1 16 8
M  V30 26 1 1 24
M  V30 27 1 1 25
M  V30 28 1 1 26
M  V30 29 1 2 27 CFG=1
M  V30 30 1 3 28
M  V30 31 1 6 29
M  V30 32 1 11 30
M  V30 33 1 11 31
M  V30 34 1 13 32
M  V30 35 1 14 33
M  V30 36 1 15 34
M  V30 37 1 18 35
M  V30 38 1 19 36
M  V30 39 1 20 37
M  V30 40 1 22 38
M  V30 41 1 22 39
M  V30 42 1 23 40
M  V30 END BOND
M  V30 END CTAB
M  END
>  <Dataset>  (956) 
ChEMBL_Kinases

>  <Ligand_Instance>  (956) 
nan

>  <PDB_ID>  (956) 
nan

>  <Standardized_SMILES>  (956) 
C[C@@H](Nc1ncnc2c(C(N)=O)cccc12)c1cccc(N)c1

>  <Name>  (956) 
nan

>  <Pocket>  (956) 
nan

>  <ATP_Site>  (956) 
nan

>  <Peripheral>  (956) 
nan

>  <Num_H_Atoms_ProtBoundConf>  (956) 
nan

>  <Num_Resolved_Atoms>  (956) 
nan

>  <Num_Not_Resolved_Atoms>  (956) 
nan

$$$$
CHEMBL4291966
     RDKit          3D

  0  0  0  0  0  0  0  0  0  0999 V3000
M  V30 BEGIN CTAB
M  V30 COUNTS 43 47 0 0 0
M  V30 BEGIN ATOM
M  V30 1 N -0.030378 -6.958961 0.918966 0
M  V30 2 C -0.198127 -5.545357 0.869554 0
M  V30 3 N 0.892945 -4.743680 0.984131 0
M  V30 4 C 0.774719 -3.391484 0.941999 0
M  V30 5 O 1.863165 -2.631061 1.057097 0
M  V30 6 C 1.785528 -1.322038 1.020720 0
M  V30 7 C 2.946414 -0.587602 1.145051 0
M  V30 8 C 2.847799 0.788219 1.104766 0
M  V30 9 C 1.680685 1.507771 0.949655 0
M  V30 10 C 1.660344 2.963200 0.917551 0
M  V30 11 C 0.521421 3.615759 0.764326 0
M  V30 12 C 0.340650 5.087766 0.712023 0
M  V30 13 C 1.712798 5.654668 0.329824 0
M  V30 14 C 2.756790 5.117016 1.280418 0
M  V30 15 C 2.981114 3.652292 1.066887 0
M  V30 16 C 0.570515 0.700856 0.832910 0
M  V30 17 C 0.574862 -0.677584 0.861909 0
M  V30 18 C -0.597959 -1.411386 0.736121 0
M  V30 19 O -1.708073 -0.837894 0.590855 0
M  V30 20 C -0.458375 -2.792855 0.781438 0
M  V30 21 C -1.592486 -3.559599 0.660969 0
M  V30 22 C -1.425164 -4.930553 0.709385 0
M  V30 23 C -2.594574 -5.797709 0.586615 0
M  V30 24 N -2.593384 -7.143268 0.614413 0
M  V30 25 N -3.829952 -7.617630 0.475496 0
M  V30 26 N -4.632216 -6.556458 0.357233 0
M  V30 27 N -3.891137 -5.449357 0.423578 0
M  V30 28 H 0.703831 -7.298981 0.228699 0
M  V30 29 H -0.453431 -7.739709 1.468117 0
M  V30 30 H 3.891404 -1.096568 1.269133 0
M  V30 31 H 3.803027 1.296894 1.208568 0
M  V30 32 H -0.438476 3.148087 0.656269 0
M  V30 33 H -0.370036 5.440419 -0.032521 0
M  V30 34 H 0.158271 5.507433 1.744179 0
M  V30 35 H 1.733136 6.744508 0.307444 0
M  V30 36 H 1.925196 5.239615 -0.681479 0
M  V30 37 H 3.721824 5.642038 1.134269 0
M  V30 38 H 2.470223 5.315530 2.346582 0
M  V30 39 H 3.568591 3.462444 0.162777 0
M  V30 40 H 3.544582 3.187906 1.912454 0
M  V30 41 H -0.405888 1.143236 0.706458 0
M  V30 42 H -2.563712 -3.116764 0.535118 0
M  V30 43 H -5.671496 -6.388541 0.228834 0
M  V30 END ATOM
M  V30 BEGIN BOND
M  V30 1 1 1 2
M  V30 2 2 2 3
M  V30 3 1 3 4
M  V30 4 1 4 5
M  V30 5 1 5 6
M  V30 6 2 6 7
M  V30 7 1 7 8
M  V30 8 2 8 9
M  V30 9 1 9 10
M  V30 10 2 10 11
M  V30 11 1 11 12
M  V30 12 1 12 13
M  V30 13 1 13 14
M  V30 14 1 14 15
M  V30 15 1 9 16
M  V30 16 2 16 17
M  V30 17 1 17 18
M  V30 18 2 18 19
M  V30 19 1 18 20
M  V30 20 1 20 21
M  V30 21 2 21 22
M  V30 22 1 22 23
M  V30 23 1 23 24
M  V30 24 2 24 25
M  V30 25 1 25 26
M  V30 26 1 26 27
M  V30 27 1 22 2
M  V30 28 2 27 23
M  V30 29 2 20 4
M  V30 30 1 17 6
M  V30 31 1 15 10
M  V30 32 1 1 28
M  V30 33 1 1 29
M  V30 34 1 7 30
M  V30 35 1 8 31
M  V30 36 1 11 32
M  V30 37 1 12 33
M  V30 38 1 12 34
M  V30 39 1 13 35
M  V30 40 1 13 36
M  V30 41 1 14 37
M  V30 42 1 14 38
M  V30 43 1 15 39
M  V30 44 1 15 40
M  V30 45 1 16 41
M  V30 46 1 21 42
M  V30 47 1 26 43
M  V30 END BOND
M  V30 END CTAB
M  END
>  <Dataset>  (957) 
ChEMBL_Kinases

>  <Ligand_Instance>  (957) 
nan

>  <PDB_ID>  (957) 
nan

>  <Standardized_SMILES>  (957) 
Nc1nc2oc3ccc(C4=CCCCC4)cc3c(=O)c2cc1-c1nn[nH]n1

>  <Name>  (957) 
nan

>  <Pocket>  (957) 
nan

>  <ATP_Site>  (957) 
nan

>  <Peripheral>  (957) 
nan

>  <Num_H_Atoms_ProtBoundConf>  (957) 
nan

>  <Num_Resolved_Atoms>  (957) 
nan

>  <Num_Not_Resolved_Atoms>  (957) 
nan

$$$$
CHEMBL217443
     RDKit          3D

  0  0  0  0  0  0  0  0  0  0999 V3000
M  V30 BEGIN CTAB
M  V30 COUNTS 54 56 0 0 0
M  V30 BEGIN ATOM
M  V30 1 C 1.367616 -2.373982 7.253947 0
M  V30 2 C 2.574004 -1.822949 6.546157 0
M  V30 3 O 2.655310 -2.213565 5.187164 0
M  V30 4 C 3.753216 -1.734972 4.469671 0
M  V30 5 O 4.674766 -0.999544 4.890359 0
M  V30 6 N 3.860613 -2.112673 3.098298 0
M  V30 7 C 4.963939 -1.665579 2.270737 0
M  V30 8 C 4.484795 -0.712365 1.204642 0
M  V30 9 C 2.973684 -0.762278 1.117598 0
M  V30 10 N 2.501305 -0.146473 -0.110870 0
M  V30 11 C 1.138221 0.006708 -0.471322 0
M  V30 12 N 0.773958 0.579382 -1.623922 0
M  V30 13 C -0.491451 0.755280 -2.016510 0
M  V30 14 C -1.529644 0.339014 -1.222100 0
M  V30 15 C -2.947435 0.458483 -1.517966 0
M  V30 16 O -3.762698 -0.005261 -0.680395 0
M  V30 17 C -3.570784 1.058492 -2.684907 0
M  V30 18 C -3.265037 2.265376 -3.266707 0
M  V30 19 C -3.920526 2.753406 -4.376209 0
M  V30 20 C -4.944834 2.016455 -4.960440 0
M  V30 21 C -5.255923 0.807016 -4.382260 0
M  V30 22 C -4.602096 0.314187 -3.271108 0
M  V30 23 O -4.973325 -0.915923 -2.744401 0
M  V30 24 C -5.980149 -1.749441 -3.235076 0
M  V30 25 C -1.162317 -0.248471 -0.040063 0
M  V30 26 N -2.110762 -0.728356 0.885983 0
M  V30 27 N 0.125055 -0.403137 0.310884 0
M  V30 28 C 2.497473 -2.204175 1.127625 0
M  V30 29 C 2.948293 -2.949069 2.353396 0
M  V30 30 H 1.575417 -2.360286 8.354216 0
M  V30 31 H 1.122027 -3.402001 6.882041 0
M  V30 32 H 0.453604 -1.779069 7.041615 0
M  V30 33 H 3.481713 -2.098011 7.123524 0
M  V30 34 H 2.531609 -0.709811 6.578877 0
M  V30 35 H 5.417603 -2.590188 1.823532 0
M  V30 36 H 5.708698 -1.189597 2.949023 0
M  V30 37 H 4.734151 0.328176 1.551850 0
M  V30 38 H 4.958133 -0.832325 0.230331 0
M  V30 39 H 2.494648 -0.259083 1.981188 0
M  V30 40 H 3.224399 0.210144 -0.778357 0
M  V30 41 H -0.731351 1.220678 -2.957761 0
M  V30 42 H -2.472845 2.831946 -2.805383 0
M  V30 43 H -3.600727 3.721714 -4.759645 0
M  V30 44 H -5.437888 2.432661 -5.832583 0
M  V30 45 H -6.062018 0.284881 -4.886395 0
M  V30 46 H -6.396820 -2.285724 -2.332835 0
M  V30 47 H -6.815324 -1.219457 -3.733793 0
M  V30 48 H -5.579163 -2.586515 -3.868609 0
M  V30 49 H -2.456692 -1.717424 0.716390 0
M  V30 50 H -2.799753 -1.025433 1.590871 0
M  V30 51 H 2.844949 -2.755483 0.230317 0
M  V30 52 H 1.399181 -2.209163 1.123295 0
M  V30 53 H 3.439287 -3.923893 2.062021 0
M  V30 54 H 2.082854 -3.215776 3.012764 0
M  V30 END ATOM
M  V30 BEGIN BOND
M  V30 1 1 1 2
M  V30 2 1 2 3
M  V30 3 1 3 4
M  V30 4 2 4 5
M  V30 5 1 4 6
M  V30 6 1 6 7
M  V30 7 1 7 8
M  V30 8 1 8 9
M  V30 9 1 9 10
M  V30 10 1 10 11
M  V30 11 2 11 12
M  V30 12 1 12 13
M  V30 13 2 13 14
M  V30 14 1 14 15
M  V30 15 2 15 16
M  V30 16 1 15 17
M  V30 17 2 17 18
M  V30 18 1 18 19
M  V30 19 2 19 20
M  V30 20 1 20 21
M  V30 21 2 21 22
M  V30 22 1 22 23
M  V30 23 1 23 24
M  V30 24 1 14 25
M  V30 25 1 25 26
M  V30 26 2 25 27
M  V30 27 1 9 28
M  V30 28 1 28 29
M  V30 29 1 29 6
M  V30 30 1 27 11
M  V30 31 1 22 17
M  V30 32 1 1 30
M  V30 33 1 1 31
M  V30 34 1 1 32
M  V30 35 1 2 33
M  V30 36 1 2 34
M  V30 37 1 7 35
M  V30 38 1 7 36
M  V30 39 1 8 37
M  V30 40 1 8 38
M  V30 41 1 9 39
M  V30 42 1 10 40
M  V30 43 1 13 41
M  V30 44 1 18 42
M  V30 45 1 19 43
M  V30 46 1 20 44
M  V30 47 1 21 45
M  V30 48 1 24 46
M  V30 49 1 24 47
M  V30 50 1 24 48
M  V30 51 1 26 49
M  V30 52 1 26 50
M  V30 53 1 28 51
M  V30 54 1 28 52
M  V30 55 1 29 53
M  V30 56 1 29 54
M  V30 END BOND
M  V30 END CTAB
M  END
>  <Dataset>  (958) 
ChEMBL_Kinases

>  <Ligand_Instance>  (958) 
nan

>  <PDB_ID>  (958) 
nan

>  <Standardized_SMILES>  (958) 
CCOC(=O)N1CCC(Nc2ncc(C(=O)c3ccccc3OC)c(N)n2)CC1

>  <Name>  (958) 
nan

>  <Pocket>  (958) 
nan

>  <ATP_Site>  (958) 
nan

>  <Peripheral>  (958) 
nan

>  <Num_H_Atoms_ProtBoundConf>  (958) 
nan

>  <Num_Resolved_Atoms>  (958) 
nan

>  <Num_Not_Resolved_Atoms>  (958) 
nan

$$$$
CHEMBL3685280
     RDKit          3D

  0  0  0  0  0  0  0  0  0  0999 V3000
M  V30 BEGIN CTAB
M  V30 COUNTS 49 52 0 0 0
M  V30 BEGIN ATOM
M  V30 1 N 2.455671 -5.516695 3.274255 0
M  V30 2 C 3.767028 -5.041441 3.068715 0
M  V30 3 O 4.656094 -5.645996 3.712724 0
M  V30 4 C 4.127327 -3.937147 2.189200 0
M  V30 5 C 5.447276 -3.589794 2.093008 0
M  V30 6 C 5.785874 -2.538370 1.254921 0
M  V30 7 C 4.774784 -1.902567 0.566281 0
M  V30 8 C 3.435801 -2.218317 0.632904 0
M  V30 9 C 2.477945 -1.543358 -0.080807 0
M  V30 10 N 2.798801 -0.482900 -0.934238 0
M  V30 11 C 1.891315 0.303579 -1.732424 0
M  V30 12 C 0.960883 1.011595 -0.816952 0
M  V30 13 C 1.544675 2.213190 -0.402724 0
M  V30 14 C 0.873604 3.081998 0.461189 0
M  V30 15 C -0.393397 2.762905 0.925295 0
M  V30 16 C -0.939191 1.570430 0.496610 0
M  V30 17 N -2.231988 1.137205 0.906054 0
M  V30 18 C -3.373207 1.492350 0.151600 0
M  V30 19 O -3.004141 2.198199 -0.846114 0
M  V30 20 C -4.758327 1.139311 0.422216 0
M  V30 21 C -5.671235 1.642410 -0.513515 0
M  V30 22 C -7.020397 1.391631 -0.390930 0
M  V30 23 C -7.547623 0.645558 0.638236 0
M  V30 24 C -6.658137 0.156271 1.548593 0
M  V30 25 C -5.309212 0.402993 1.432104 0
M  V30 26 F -4.425679 -0.075122 2.324455 0
M  V30 27 C -0.297242 0.704148 -0.351007 0
M  V30 28 N 1.252156 -2.018700 0.137733 0
M  V30 29 C 0.937844 -3.032336 0.947528 0
M  V30 30 N 1.892231 -3.680681 1.638219 0
M  V30 31 C 3.157191 -3.266660 1.477368 0
M  V30 32 H 1.944005 -6.408038 3.169302 0
M  V30 33 H 1.537003 -5.146875 3.602552 0
M  V30 34 H 6.180439 -4.130174 2.659430 0
M  V30 35 H 6.819043 -2.273467 1.185543 0
M  V30 36 H 5.129152 -1.100764 -0.058411 0
M  V30 37 H 3.757015 -0.152400 -1.074898 0
M  V30 38 H 1.232690 -0.414125 -2.312080 0
M  V30 39 H 2.352372 0.958780 -2.468000 0
M  V30 40 H 2.516121 2.615582 -0.664622 0
M  V30 41 H 1.260410 4.018274 0.819100 0
M  V30 42 H -0.968336 3.385040 1.592843 0
M  V30 43 H -2.357252 0.562143 1.752236 0
M  V30 44 H -5.348127 2.250659 -1.372888 0
M  V30 45 H -7.691533 1.796323 -1.131618 0
M  V30 46 H -8.605431 0.454050 0.726605 0
M  V30 47 H -7.006336 -0.431053 2.371511 0
M  V30 48 H -0.646169 -0.227831 -0.735822 0
M  V30 49 H -0.118891 -3.227265 0.954316 0
M  V30 END ATOM
M  V30 BEGIN BOND
M  V30 1 1 1 2
M  V30 2 2 2 3
M  V30 3 1 2 4
M  V30 4 2 4 5
M  V30 5 1 5 6
M  V30 6 2 6 7
M  V30 7 1 7 8
M  V30 8 2 8 9
M  V30 9 1 9 10
M  V30 10 1 10 11
M  V30 11 1 11 12
M  V30 12 2 12 13
M  V30 13 1 13 14
M  V30 14 2 14 15
M  V30 15 1 15 16
M  V30 16 1 16 17
M  V30 17 1 17 18
M  V30 18 2 18 19
M  V30 19 1 18 20
M  V30 20 2 20 21
M  V30 21 1 21 22
M  V30 22 2 22 23
M  V30 23 1 23 24
M  V30 24 2 24 25
M  V30 25 1 25 26
M  V30 26 2 16 27
M  V30 27 1 9 28
M  V30 28 2 28 29
M  V30 29 1 29 30
M  V30 30 2 30 31
M  V30 31 1 31 4
M  V30 32 1 31 8
M  V30 33 1 27 12
M  V30 34 1 25 20
M  V30 35 1 1 32
M  V30 36 1 1 33
M  V30 37 1 5 34
M  V30 38 1 6 35
M  V30 39 1 7 36
M  V30 40 1 10 37
M  V30 41 1 11 38
M  V30 42 1 11 39
M  V30 43 1 13 40
M  V30 44 1 14 41
M  V30 45 1 15 42
M  V30 46 1 17 43
M  V30 47 1 21 44
M  V30 48 1 22 45
M  V30 49 1 23 46
M  V30 50 1 24 47
M  V30 51 1 27 48
M  V30 52 1 29 49
M  V30 END BOND
M  V30 END CTAB
M  END
>  <Dataset>  (959) 
ChEMBL_Kinases

>  <Ligand_Instance>  (959) 
nan

>  <PDB_ID>  (959) 
nan

>  <Standardized_SMILES>  (959) 
NC(=O)c1cccc2c(NCc3cccc(NC(=O)c4ccccc4F)c3)ncnc12

>  <Name>  (959) 
nan

>  <Pocket>  (959) 
nan

>  <ATP_Site>  (959) 
nan

>  <Peripheral>  (959) 
nan

>  <Num_H_Atoms_ProtBoundConf>  (959) 
nan

>  <Num_Resolved_Atoms>  (959) 
nan

>  <Num_Not_Resolved_Atoms>  (959) 
nan

$$$$
CHEMBL3685279
     RDKit          3D

  0  0  0  0  0  0  0  0  0  0999 V3000
M  V30 BEGIN CTAB
M  V30 COUNTS 57 60 0 0 0
M  V30 BEGIN ATOM
M  V30 1 C 1.818950 -3.419138 3.753442 0
M  V30 2 O 1.686841 -2.097619 3.305837 0
M  V30 3 C 2.544433 -1.052343 3.575239 0
M  V30 4 C 3.643577 -1.396442 4.379273 0
M  V30 5 C 4.574226 -0.437347 4.718041 0
M  V30 6 C 4.429660 0.860381 4.270257 0
M  V30 7 C 3.366374 1.179505 3.496830 0
M  V30 8 O 3.212523 2.456186 3.054375 0
M  V30 9 C 4.130229 3.467361 3.375711 0
M  V30 10 C 2.395083 0.263861 3.119337 0
M  V30 11 C 1.217313 0.509695 2.304841 0
M  V30 12 O 0.395885 -0.460771 2.233310 0
M  V30 13 N 0.818334 1.640287 1.571425 0
M  V30 14 C -0.320720 1.904011 0.778610 0
M  V30 15 C -0.385936 3.120420 0.106070 0
M  V30 16 C -1.434216 3.499676 -0.692459 0
M  V30 17 C -2.468484 2.600156 -0.814518 0
M  V30 18 C -2.486747 1.353672 -0.173429 0
M  V30 19 C -3.697246 0.582677 -0.459070 0
M  V30 20 N -3.636901 -0.271996 -1.624563 0
M  V30 21 C -2.928397 -1.523960 -1.666900 0
M  V30 22 N -2.324752 -1.896599 -0.528533 0
M  V30 23 C -1.630836 -3.032120 -0.393044 0
M  V30 24 N -1.538672 -3.838547 -1.463350 0
M  V30 25 C -2.113208 -3.518847 -2.604857 0
M  V30 26 C -2.053862 -4.315416 -3.732875 0
M  V30 27 C -1.310140 -5.571777 -3.639967 0
M  V30 28 N -0.662306 -5.961294 -2.410766 0
M  V30 29 O -1.054475 -6.512728 -4.435703 0
M  V30 30 C -2.646459 -4.025990 -4.957659 0
M  V30 31 C -3.332398 -2.830954 -4.974144 0
M  V30 32 C -3.467530 -1.955709 -3.935306 0
M  V30 33 C -2.843262 -2.347218 -2.785511 0
M  V30 34 C -1.381849 1.079212 0.602514 0
M  V30 35 H 2.592173 -3.952120 3.160850 0
M  V30 36 H 2.041577 -3.486863 4.832696 0
M  V30 37 H 0.799781 -3.891932 3.624180 0
M  V30 38 H 3.776321 -2.411894 4.743802 0
M  V30 39 H 5.401812 -0.764675 5.340275 0
M  V30 40 H 5.218765 1.501535 4.603731 0
M  V30 41 H 4.582752 3.364901 4.373145 0
M  V30 42 H 4.971641 3.535223 2.642152 0
M  V30 43 H 3.641334 4.473677 3.352386 0
M  V30 44 H 1.513335 2.406591 1.641188 0
M  V30 45 H 0.430249 3.858680 0.184629 0
M  V30 46 H -1.435437 4.455192 -1.191886 0
M  V30 47 H -3.284340 2.949187 -1.466759 0
M  V30 48 H -4.554682 1.264926 -0.571829 0
M  V30 49 H -3.949369 -0.016948 0.458968 0
M  V30 50 H -4.150748 0.082508 -2.454429 0
M  V30 51 H -1.141126 -3.356440 0.492829 0
M  V30 52 H -1.344982 -6.443740 -1.793016 0
M  V30 53 H 0.260538 -5.919232 -1.940575 0
M  V30 54 H -2.551002 -4.706146 -5.791065 0
M  V30 55 H -3.809289 -2.589260 -5.937219 0
M  V30 56 H -4.021303 -1.050837 -4.041433 0
M  V30 57 H -1.441022 0.133631 1.076012 0
M  V30 END ATOM
M  V30 BEGIN BOND
M  V30 1 1 1 2
M  V30 2 1 2 3
M  V30 3 2 3 4
M  V30 4 1 4 5
M  V30 5 2 5 6
M  V30 6 1 6 7
M  V30 7 1 7 8
M  V30 8 1 8 9
M  V30 9 2 7 10
M  V30 10 1 10 11
M  V30 11 2 11 12
M  V30 12 1 11 13
M  V30 13 1 13 14
M  V30 14 2 14 15
M  V30 15 1 15 16
M  V30 16 2 16 17
M  V30 17 1 17 18
M  V30 18 1 18 19
M  V30 19 1 19 20
M  V30 20 1 20 21
M  V30 21 2 21 22
M  V30 22 1 22 23
M  V30 23 2 23 24
M  V30 24 1 24 25
M  V30 25 2 25 26
M  V30 26 1 26 27
M  V30 27 1 27 28
M  V30 28 2 27 29
M  V30 29 1 26 30
M  V30 30 2 30 31
M  V30 31 1 31 32
M  V30 32 2 32 33
M  V30 33 2 18 34
M  V30 34 1 10 3
M  V30 35 1 34 14
M  V30 36 1 33 21
M  V30 37 1 33 25
M  V30 38 1 1 35
M  V30 39 1 1 36
M  V30 40 1 1 37
M  V30 41 1 4 38
M  V30 42 1 5 39
M  V30 43 1 6 40
M  V30 44 1 9 41
M  V30 45 1 9 42
M  V30 46 1 9 43
M  V30 47 1 13 44
M  V30 48 1 15 45
M  V30 49 1 16 46
M  V30 50 1 17 47
M  V30 51 1 19 48
M  V30 52 1 19 49
M  V30 53 1 20 50
M  V30 54 1 23 51
M  V30 55 1 28 52
M  V30 56 1 28 53
M  V30 57 1 30 54
M  V30 58 1 31 55
M  V30 59 1 32 56
M  V30 60 1 34 57
M  V30 END BOND
M  V30 END CTAB
M  END
>  <Dataset>  (960) 
ChEMBL_Kinases

>  <Ligand_Instance>  (960) 
nan

>  <PDB_ID>  (960) 
nan

>  <Standardized_SMILES>  (960) 
COc1cccc(OC)c1C(=O)Nc1cccc(CNc2ncnc3c(C(N)=O)cccc23)c1

>  <Name>  (960) 
nan

>  <Pocket>  (960) 
nan

>  <ATP_Site>  (960) 
nan

>  <Peripheral>  (960) 
nan

>  <Num_H_Atoms_ProtBoundConf>  (960) 
nan

>  <Num_Resolved_Atoms>  (960) 
nan

>  <Num_Not_Resolved_Atoms>  (960) 
nan

$$$$
CHEMBL4578343
     RDKit          3D

  0  0  0  0  0  0  0  0  0  0999 V3000
M  V30 BEGIN CTAB
M  V30 COUNTS 38 40 0 0 0
M  V30 BEGIN ATOM
M  V30 1 O 2.734907 -0.603314 2.931522 0
M  V30 2 C 1.704078 -1.351014 3.083694 0
M  V30 3 C 1.876862 -2.574667 3.843025 0
M  V30 4 C 1.075445 -3.685269 3.805973 0
M  V30 5 C 1.259247 -4.828988 4.546116 0
M  V30 6 C 2.346587 -4.875020 5.408108 0
M  V30 7 C 3.184592 -3.791700 5.487494 0
M  V30 8 Cl 4.575679 -3.782071 6.555695 0
M  V30 9 C 2.955408 -2.670064 4.724216 0
M  V30 10 C 0.485150 -0.854033 2.459108 0
M  V30 11 C -0.833988 -1.156521 2.702195 0
M  V30 12 N -1.669211 -0.486100 1.899634 0
M  V30 13 C -0.898097 0.277140 1.107434 0
M  V30 14 C -1.359262 1.193565 0.048138 0
M  V30 15 O -2.587937 1.303395 -0.235146 0
M  V30 16 N -0.430581 1.973668 -0.675588 0
M  V30 17 C -0.703206 2.912411 -1.735787 0
M  V30 18 C -0.979616 2.169779 -3.005410 0
M  V30 19 C 0.159754 1.896704 -3.778465 0
M  V30 20 C 0.124043 1.225799 -4.980391 0
M  V30 21 N -1.083221 0.821636 -5.413229 0
M  V30 22 C -2.171974 1.073433 -4.691389 0
M  V30 23 C -2.192076 1.741076 -3.481680 0
M  V30 24 C 0.403478 0.062883 1.436385 0
M  V30 25 H 0.240309 -3.685230 3.153490 0
M  V30 26 H 0.600759 -5.670317 4.478189 0
M  V30 27 H 2.588637 -5.716258 6.034538 0
M  V30 28 H 3.627544 -1.825749 4.800528 0
M  V30 29 H -1.213606 -1.842802 3.443471 0
M  V30 30 H -2.713620 -0.530636 1.874958 0
M  V30 31 H 0.562668 1.854582 -0.408831 0
M  V30 32 H 0.126860 3.594456 -1.905768 0
M  V30 33 H -1.614022 3.510479 -1.487886 0
M  V30 34 H 1.147147 2.210991 -3.454728 0
M  V30 35 H 1.043072 1.039443 -5.540679 0
M  V30 36 H -3.151020 0.739282 -5.052847 0
M  V30 37 H -3.024259 1.969768 -2.865333 0
M  V30 38 H 1.278188 0.538131 0.971425 0
M  V30 END ATOM
M  V30 BEGIN BOND
M  V30 1 2 1 2
M  V30 2 1 2 3
M  V30 3 2 3 4
M  V30 4 1 4 5
M  V30 5 2 5 6
M  V30 6 1 6 7
M  V30 7 1 7 8
M  V30 8 2 7 9
M  V30 9 1 2 10
M  V30 10 2 10 11
M  V30 11 1 11 12
M  V30 12 1 12 13
M  V30 13 1 13 14
M  V30 14 2 14 15
M  V30 15 1 14 16
M  V30 16 1 16 17
M  V30 17 1 17 18
M  V30 18 2 18 19
M  V30 19 1 19 20
M  V30 20 2 20 21
M  V30 21 1 21 22
M  V30 22 2 22 23
M  V30 23 2 13 24
M  V30 24 1 9 3
M  V30 25 1 24 10
M  V30 26 1 23 18
M  V30 27 1 4 25
M  V30 28 1 5 26
M  V30 29 1 6 27
M  V30 30 1 9 28
M  V30 31 1 11 29
M  V30 32 1 12 30
M  V30 33 1 16 31
M  V30 34 1 17 32
M  V30 35 1 17 33
M  V30 36 1 19 34
M  V30 37 1 20 35
M  V30 38 1 22 36
M  V30 39 1 23 37
M  V30 40 1 24 38
M  V30 END BOND
M  V30 END CTAB
M  END
>  <Dataset>  (961) 
ChEMBL_Kinases

>  <Ligand_Instance>  (961) 
nan

>  <PDB_ID>  (961) 
nan

>  <Standardized_SMILES>  (961) 
O=C(c1cccc(Cl)c1)c1c[nH]c(C(=O)NCc2ccncc2)c1

>  <Name>  (961) 
nan

>  <Pocket>  (961) 
nan

>  <ATP_Site>  (961) 
nan

>  <Peripheral>  (961) 
nan

>  <Num_H_Atoms_ProtBoundConf>  (961) 
nan

>  <Num_Resolved_Atoms>  (961) 
nan

>  <Num_Not_Resolved_Atoms>  (961) 
nan

$$$$
CHEMBL3685277
     RDKit          3D

  0  0  0  0  0  0  0  0  0  0999 V3000
M  V30 BEGIN CTAB
M  V30 COUNTS 53 57 0 0 0
M  V30 BEGIN ATOM
M  V30 1 N -7.484140 -4.424805 -2.575895 0
M  V30 2 C -6.506313 -4.224920 -1.554053 0
M  V30 3 O -6.286444 -5.327788 -0.998305 0
M  V30 4 C -5.952344 -2.895536 -1.320549 0
M  V30 5 C -6.377835 -1.834005 -2.091539 0
M  V30 6 C -5.824515 -0.600611 -1.831280 0
M  V30 7 C -4.884888 -0.473900 -0.830422 0
M  V30 8 C -4.437300 -1.497688 -0.045750 0
M  V30 9 C -3.493167 -1.296954 0.939066 0
M  V30 10 N -2.927106 -0.046177 1.211513 0
M  V30 11 C -1.947452 0.246118 2.207895 0
M  V30 12 C -0.652290 -0.484847 2.026240 0
M  V30 13 C -0.334382 -1.682022 2.627555 0
M  V30 14 C 0.883552 -2.276286 2.384124 0
M  V30 15 C 1.801376 -1.692472 1.542970 0
M  V30 16 C 1.542985 -0.497844 0.913369 0
M  V30 17 N 2.545438 0.032340 0.063838 0
M  V30 18 C 2.562336 1.221308 -0.703703 0
M  V30 19 O 1.553330 1.965564 -0.664533 0
M  V30 20 C 3.679357 1.641864 -1.541371 0
M  V30 21 C 3.669068 2.807057 -2.279893 0
M  V30 22 C 4.903641 2.853291 -2.938194 0
M  V30 23 C 5.448941 3.882056 -3.872303 0
M  V30 24 C 6.229810 3.458169 -5.055224 0
M  V30 25 C 6.901916 4.142448 -3.914442 0
M  V30 26 N 5.573830 1.740579 -2.569285 0
M  V30 27 N 4.845655 1.010587 -1.732447 0
M  V30 28 C 0.313037 0.048905 1.192973 0
M  V30 29 N -3.186940 -2.415963 1.594806 0
M  V30 30 C -3.707664 -3.630651 1.365237 0
M  V30 31 N -4.642050 -3.803001 0.383090 0
M  V30 32 C -5.010268 -2.717568 -0.331559 0
M  V30 33 H -7.359606 -4.123603 -3.566553 0
M  V30 34 H -7.119402 -4.035389 -3.475140 0
M  V30 35 H -7.113271 -2.037647 -2.845212 0
M  V30 36 H -6.176840 0.216875 -2.452306 0
M  V30 37 H -4.530448 0.532964 -0.725379 0
M  V30 38 H -3.207148 0.795183 0.667036 0
M  V30 39 H -1.686947 1.319631 2.244133 0
M  V30 40 H -2.304821 -0.017865 3.228060 0
M  V30 41 H -1.033978 -2.139341 3.286814 0
M  V30 42 H 1.144158 -3.214181 2.848960 0
M  V30 43 H 2.745041 -2.200913 1.384909 0
M  V30 44 H 3.442796 -0.494590 -0.057421 0
M  V30 45 H 2.919839 3.574605 -2.388197 0
M  V30 46 H 4.749039 4.723231 -4.052434 0
M  V30 47 H 6.329233 2.378897 -5.219364 0
M  V30 48 H 6.161137 4.048086 -5.995975 0
M  V30 49 H 7.248210 5.182670 -4.062491 0
M  V30 50 H 7.515016 3.543504 -3.191029 0
M  V30 51 H 5.053870 0.103575 -1.259511 0
M  V30 52 H 0.059790 0.986985 0.724372 0
M  V30 53 H -3.292070 -4.374470 2.035209 0
M  V30 END ATOM
M  V30 BEGIN BOND
M  V30 1 1 1 2
M  V30 2 2 2 3
M  V30 3 1 2 4
M  V30 4 2 4 5
M  V30 5 1 5 6
M  V30 6 2 6 7
M  V30 7 1 7 8
M  V30 8 2 8 9
M  V30 9 1 9 10
M  V30 10 1 10 11
M  V30 11 1 11 12
M  V30 12 2 12 13
M  V30 13 1 13 14
M  V30 14 2 14 15
M  V30 15 1 15 16
M  V30 16 1 16 17
M  V30 17 1 17 18
M  V30 18 2 18 19
M  V30 19 1 18 20
M  V30 20 2 20 21
M  V30 21 1 21 22
M  V30 22 1 22 23
M  V30 23 1 23 24
M  V30 24 1 24 25
M  V30 25 2 22 26
M  V30 26 1 26 27
M  V30 27 2 16 28
M  V30 28 1 9 29
M  V30 29 2 29 30
M  V30 30 1 30 31
M  V30 31 2 31 32
M  V30 32 1 32 4
M  V30 33 1 32 8
M  V30 34 1 28 12
M  V30 35 1 27 20
M  V30 36 1 25 23
M  V30 37 1 1 33
M  V30 38 1 1 34
M  V30 39 1 5 35
M  V30 40 1 6 36
M  V30 41 1 7 37
M  V30 42 1 10 38
M  V30 43 1 11 39
M  V30 44 1 11 40
M  V30 45 1 13 41
M  V30 46 1 14 42
M  V30 47 1 15 43
M  V30 48 1 17 44
M  V30 49 1 21 45
M  V30 50 1 23 46
M  V30 51 1 24 47
M  V30 52 1 24 48
M  V30 53 1 25 49
M  V30 54 1 25 50
M  V30 55 1 27 51
M  V30 56 1 28 52
M  V30 57 1 30 53
M  V30 END BOND
M  V30 END CTAB
M  END
>  <Dataset>  (962) 
ChEMBL_Kinases

>  <Ligand_Instance>  (962) 
nan

>  <PDB_ID>  (962) 
nan

>  <Standardized_SMILES>  (962) 
NC(=O)c1cccc2c(NCc3cccc(NC(=O)c4cc(C5CC5)n[nH]4)c3)ncnc12

>  <Name>  (962) 
nan

>  <Pocket>  (962) 
nan

>  <ATP_Site>  (962) 
nan

>  <Peripheral>  (962) 
nan

>  <Num_H_Atoms_ProtBoundConf>  (962) 
nan

>  <Num_Resolved_Atoms>  (962) 
nan

>  <Num_Not_Resolved_Atoms>  (962) 
nan

$$$$
CHEMBL3681218
     RDKit          3D

  0  0  0  0  0  0  0  0  0  0999 V3000
M  V30 BEGIN CTAB
M  V30 COUNTS 57 60 0 0 0
M  V30 BEGIN ATOM
M  V30 1 C 2.924998 -0.477049 5.369367 0
M  V30 2 C 2.047838 -1.603384 4.823246 0
M  V30 3 C 1.148763 -2.035483 5.960469 0
M  V30 4 O 2.880365 -2.610109 4.335358 0
M  V30 5 C 2.996417 -3.014281 3.018978 0
M  V30 6 C 2.329921 -2.530416 1.916806 0
M  V30 7 C 2.561629 -3.047936 0.637560 0
M  V30 8 C 1.726751 -2.361715 -0.364087 0
M  V30 9 C 1.520092 -1.000356 -0.444955 0
M  V30 10 C 0.674891 -0.774741 -1.527822 0
M  V30 11 C 0.317367 0.617899 -1.791069 0
M  V30 12 O 1.233393 1.329310 -2.281897 0
M  V30 13 N -1.012616 0.993760 -1.459125 0
M  V30 14 C -1.590561 2.284221 -1.616217 0
M  V30 15 C -2.865115 2.338121 -2.404652 0
M  V30 16 C -3.820116 1.312387 -1.866138 0
M  V30 17 C -4.115171 1.441755 -0.405247 0
M  V30 18 N -4.629447 0.156568 0.055295 0
M  V30 19 C -2.970007 1.867638 0.450385 0
M  V30 20 C -1.964268 2.755164 -0.201423 0
M  V30 21 C 0.392452 -2.008765 -2.074474 0
M  V30 22 C -0.416067 -2.217519 -3.172970 0
M  V30 23 N -1.055986 -1.163134 -3.873123 0
M  V30 24 N -0.581009 -3.494136 -3.573205 0
M  V30 25 C 0.068573 -4.453057 -2.853099 0
M  V30 26 N 0.864463 -4.209840 -1.766647 0
M  V30 27 N 1.035755 -2.949476 -1.358875 0
M  V30 28 C 3.471597 -4.063015 0.468169 0
M  V30 29 C 4.113686 -4.513887 1.605949 0
M  V30 30 N 3.878465 -4.004740 2.820337 0
M  V30 31 H 3.771614 -0.287079 4.677939 0
M  V30 32 H 2.335421 0.465023 5.385132 0
M  V30 33 H 3.204325 -0.733430 6.391655 0
M  V30 34 H 1.403696 -1.112397 4.065787 0
M  V30 35 H 1.754204 -2.559162 6.709755 0
M  V30 36 H 0.328968 -2.716337 5.619271 0
M  V30 37 H 0.708992 -1.092591 6.389359 0
M  V30 38 H 1.622061 -1.723164 2.147461 0
M  V30 39 H 1.992303 -0.311734 0.276935 0
M  V30 40 H -1.679255 0.300785 -1.058729 0
M  V30 41 H -0.915732 3.053210 -2.033869 0
M  V30 42 H -2.733085 2.155556 -3.473009 0
M  V30 43 H -3.297932 3.364079 -2.196611 0
M  V30 44 H -4.795031 1.488443 -2.407982 0
M  V30 45 H -3.496870 0.307980 -2.195379 0
M  V30 46 H -4.976904 2.155385 -0.263528 0
M  V30 47 H -4.085759 -0.248179 0.848349 0
M  V30 48 H -4.805927 -0.485896 -0.733878 0
M  V30 49 H -3.391573 2.452895 1.309772 0
M  V30 50 H -2.509333 0.975478 0.959680 0
M  V30 51 H -1.019230 2.669652 0.409579 0
M  V30 52 H -2.300335 3.798925 -0.240769 0
M  V30 53 H -1.943243 -1.138021 -3.336459 0
M  V30 54 H -0.590485 -0.677550 -4.672532 0
M  V30 55 H -0.078769 -5.485627 -3.201357 0
M  V30 56 H 3.567489 -4.377113 -0.541868 0
M  V30 57 H 4.825351 -5.316665 1.429495 0
M  V30 END ATOM
M  V30 BEGIN BOND
M  V30 1 1 1 2
M  V30 2 1 2 3
M  V30 3 1 2 4
M  V30 4 1 4 5
M  V30 5 2 5 6
M  V30 6 1 6 7
M  V30 7 1 7 8
M  V30 8 2 8 9
M  V30 9 1 9 10
M  V30 10 1 10 11
M  V30 11 2 11 12
M  V30 12 1 11 13
M  V30 13 1 13 14
M  V30 14 1 14 15
M  V30 15 1 15 16
M  V30 16 1 16 17
M  V30 17 1 17 18
M  V30 18 1 17 19
M  V30 19 1 19 20
M  V30 20 2 10 21
M  V30 21 1 21 22
M  V30 22 1 22 23
M  V30 23 2 22 24
M  V30 24 1 24 25
M  V30 25 2 25 26
M  V30 26 1 26 27
M  V30 27 2 7 28
M  V30 28 1 28 29
M  V30 29 2 29 30
M  V30 30 1 30 5
M  V30 31 1 27 8
M  V30 32 1 20 14
M  V30 33 1 27 21
M  V30 34 1 1 31
M  V30 35 1 1 32
M  V30 36 1 1 33
M  V30 37 1 2 34
M  V30 38 1 3 35
M  V30 39 1 3 36
M  V30 40 1 3 37
M  V30 41 1 6 38
M  V30 42 1 9 39
M  V30 43 1 13 40
M  V30 44 1 14 41
M  V30 45 1 15 42
M  V30 46 1 15 43
M  V30 47 1 16 44
M  V30 48 1 16 45
M  V30 49 1 17 46
M  V30 50 1 18 47
M  V30 51 1 18 48
M  V30 52 1 19 49
M  V30 53 1 19 50
M  V30 54 1 20 51
M  V30 55 1 20 52
M  V30 56 1 23 53
M  V30 57 1 23 54
M  V30 58 1 25 55
M  V30 59 1 28 56
M  V30 60 1 29 57
M  V30 END BOND
M  V30 END CTAB
M  END
>  <Dataset>  (963) 
ChEMBL_Kinases

>  <Ligand_Instance>  (963) 
nan

>  <PDB_ID>  (963) 
nan

>  <Standardized_SMILES>  (963) 
CC(C)Oc1cc(-c2cc(C(=O)NC3CCC(N)CC3)c3c(N)ncnn23)ccn1

>  <Name>  (963) 
nan

>  <Pocket>  (963) 
nan

>  <ATP_Site>  (963) 
nan

>  <Peripheral>  (963) 
nan

>  <Num_H_Atoms_ProtBoundConf>  (963) 
nan

>  <Num_Resolved_Atoms>  (963) 
nan

>  <Num_Not_Resolved_Atoms>  (963) 
nan

$$$$
CHEMBL4291572
     RDKit          3D

  0  0  0  0  0  0  0  0  0  0999 V3000
M  V30 BEGIN CTAB
M  V30 COUNTS 41 44 0 0 0
M  V30 BEGIN ATOM
M  V30 1 C 2.854352 -5.796025 1.013257 0
M  V30 2 N 3.601222 -4.549742 1.219293 0
M  V30 3 C 2.778238 -3.389657 1.020557 0
M  V30 4 N 2.098368 -2.863779 2.084593 0
M  V30 5 C 1.310922 -1.781190 1.961578 0
M  V30 6 C 1.235231 -1.244598 0.694733 0
M  V30 7 C 1.906205 -1.736776 -0.401742 0
M  V30 8 N 2.698437 -2.841969 -0.234645 0
M  V30 9 N 1.999726 -1.187719 -1.737463 0
M  V30 10 C 1.964844 0.257877 -1.886768 0
M  V30 11 N 2.698561 0.885143 -2.837103 0
M  V30 12 N 2.459116 2.200631 -2.686973 0
M  V30 13 C 1.597462 2.431263 -1.673645 0
M  V30 14 C 1.079756 3.719798 -1.184277 0
M  V30 15 C 1.264896 1.211680 -1.146751 0
M  V30 16 N 0.357910 0.888192 -0.104345 0
M  V30 17 C 0.299172 -0.136489 0.697155 0
M  V30 18 C -0.831646 -0.086745 1.592565 0
M  V30 19 C -1.531544 1.116834 1.655327 0
M  V30 20 C -2.685212 1.362134 2.362680 0
M  V30 21 C -3.240180 0.341622 3.098092 0
M  V30 22 C -4.481520 0.538752 3.884317 0
M  V30 23 C -2.624951 -0.888371 3.100532 0
M  V30 24 C -1.483039 -1.015989 2.358959 0
M  V30 25 H 1.987048 -5.736036 1.707231 0
M  V30 26 H 2.422495 -5.738927 -0.023487 0
M  V30 27 H 3.475021 -6.686161 1.157120 0
M  V30 28 H 4.612490 -4.610595 1.478738 0
M  V30 29 H 0.808550 -1.298842 2.785162 0
M  V30 30 H 2.111669 -1.844360 -2.523087 0
M  V30 31 H 2.920386 2.888459 -3.315354 0
M  V30 32 H 0.968032 4.400779 -2.059187 0
M  V30 33 H 1.757488 4.216270 -0.462900 0
M  V30 34 H 0.085330 3.613177 -0.703901 0
M  V30 35 H -1.198532 2.014889 1.115562 0
M  V30 36 H -3.191803 2.314632 2.380788 0
M  V30 37 H -4.557857 -0.265258 4.642982 0
M  V30 38 H -5.364055 0.388581 3.196887 0
M  V30 39 H -4.525739 1.546305 4.346254 0
M  V30 40 H -3.013767 -1.720842 3.656216 0
M  V30 41 H -1.070248 -2.012999 2.326135 0
M  V30 END ATOM
M  V30 BEGIN BOND
M  V30 1 1 1 2
M  V30 2 1 2 3
M  V30 3 2 3 4
M  V30 4 1 4 5
M  V30 5 2 5 6
M  V30 6 1 6 7
M  V30 7 2 7 8
M  V30 8 1 7 9
M  V30 9 1 9 10
M  V30 10 2 10 11
M  V30 11 1 11 12
M  V30 12 1 12 13
M  V30 13 1 13 14
M  V30 14 2 13 15
M  V30 15 1 15 16
M  V30 16 2 16 17
M  V30 17 1 17 18
M  V30 18 2 18 19
M  V30 19 1 19 20
M  V30 20 2 20 21
M  V30 21 1 21 22
M  V30 22 1 21 23
M  V30 23 2 23 24
M  V30 24 1 8 3
M  V30 25 1 15 10
M  V30 26 1 24 18
M  V30 27 1 17 6
M  V30 28 1 1 25
M  V30 29 1 1 26
M  V30 30 1 1 27
M  V30 31 1 2 28
M  V30 32 1 5 29
M  V30 33 1 9 30
M  V30 34 1 12 31
M  V30 35 1 14 32
M  V30 36 1 14 33
M  V30 37 1 14 34
M  V30 38 1 19 35
M  V30 39 1 20 36
M  V30 40 1 22 37
M  V30 41 1 22 38
M  V30 42 1 22 39
M  V30 43 1 23 40
M  V30 44 1 24 41
M  V30 END BOND
M  V30 END CTAB
M  END
>  <Dataset>  (964) 
ChEMBL_Kinases

>  <Ligand_Instance>  (964) 
nan

>  <PDB_ID>  (964) 
nan

>  <Standardized_SMILES>  (964) 
CNc1ncc2c(n1)Nc1n[nH]c(C)c1N=C2c1ccc(C)cc1

>  <Name>  (964) 
nan

>  <Pocket>  (964) 
nan

>  <ATP_Site>  (964) 
nan

>  <Peripheral>  (964) 
nan

>  <Num_H_Atoms_ProtBoundConf>  (964) 
nan

>  <Num_Resolved_Atoms>  (964) 
nan

>  <Num_Not_Resolved_Atoms>  (964) 
nan

$$$$
CHEMBL3685275
     RDKit          3D

  0  0  0  0  0  0  0  0  0  0999 V3000
M  V30 BEGIN CTAB
M  V30 COUNTS 53 57 0 0 0
M  V30 BEGIN ATOM
M  V30 1 N 2.119312 -1.042690 5.390590 0
M  V30 2 C 3.403599 -0.843614 4.816804 0
M  V30 3 O 3.714956 -1.288303 5.922718 0
M  V30 4 C 3.515163 -0.309806 3.469852 0
M  V30 5 C 4.843086 -0.087566 3.094030 0
M  V30 6 C 5.031487 0.434877 1.809167 0
M  V30 7 C 3.929842 0.676782 1.053476 0
M  V30 8 C 2.661235 0.434380 1.486871 0
M  V30 9 C 1.539569 0.681852 0.679622 0
M  V30 10 N 1.667604 1.269159 -0.604457 0
M  V30 11 C 0.616455 1.558665 -1.556030 0
M  V30 12 C -0.609384 2.120770 -0.958463 0
M  V30 13 C -0.897433 3.426980 -0.618302 0
M  V30 14 C -2.138070 3.761408 -0.095654 0
M  V30 15 C -3.138932 2.816496 0.110179 0
M  V30 16 C -2.920859 1.489654 -0.207433 0
M  V30 17 N -3.879104 0.437062 -0.035386 0
M  V30 18 C -3.524292 -0.851864 -0.546908 0
M  V30 19 N -3.797223 -1.593536 -1.651311 0
M  V30 20 C -3.122178 -2.755275 -1.582565 0
M  V30 21 C -3.029183 -3.847388 -2.419683 0
M  V30 22 C -2.238158 -4.929837 -2.111107 0
M  V30 23 C -1.508215 -4.931284 -0.924167 0
M  V30 24 C -0.636327 -6.080193 -0.568360 0
M  V30 25 F -1.218863 -6.823506 0.425562 0
M  V30 26 F -0.507049 -6.917099 -1.682395 0
M  V30 27 F 0.637416 -5.658594 -0.227721 0
M  V30 28 C -1.608008 -3.849883 -0.106166 0
M  V30 29 C -2.396129 -2.750220 -0.393618 0
M  V30 30 N -2.676220 -1.573056 0.197241 0
M  V30 31 C -1.652656 1.225546 -0.727764 0
M  V30 32 N 0.308507 0.407119 1.165420 0
M  V30 33 C 0.117093 -0.102345 2.417061 0
M  V30 34 N 1.173470 -0.346264 3.208911 0
M  V30 35 C 2.377158 -0.080878 2.738115 0
M  V30 36 H 1.142943 -1.419957 5.419466 0
M  V30 37 H 1.194057 -1.161518 5.848873 0
M  V30 38 H 5.643822 -0.314580 3.770514 0
M  V30 39 H 6.026699 0.625127 1.466822 0
M  V30 40 H 4.127856 1.075607 0.073052 0
M  V30 41 H 2.597212 1.555017 -0.979862 0
M  V30 42 H 0.354325 0.610689 -2.095639 0
M  V30 43 H 0.995915 2.238075 -2.384654 0
M  V30 44 H -0.088729 4.119909 -0.796082 0
M  V30 45 H -2.315215 4.812642 0.159571 0
M  V30 46 H -4.103008 3.081402 0.516256 0
M  V30 47 H -4.760751 0.668177 0.443016 0
M  V30 48 H -3.598412 -3.829438 -3.327347 0
M  V30 49 H -2.142751 -5.799410 -2.736506 0
M  V30 50 H -1.039959 -3.839682 0.826991 0
M  V30 51 H -2.217169 -1.390696 1.111637 0
M  V30 52 H -1.486081 0.178961 -0.975718 0
M  V30 53 H -0.902357 -0.301858 2.759084 0
M  V30 END ATOM
M  V30 BEGIN BOND
M  V30 1 1 1 2
M  V30 2 2 2 3
M  V30 3 1 2 4
M  V30 4 2 4 5
M  V30 5 1 5 6
M  V30 6 2 6 7
M  V30 7 1 7 8
M  V30 8 2 8 9
M  V30 9 1 9 10
M  V30 10 1 10 11
M  V30 11 1 11 12
M  V30 12 2 12 13
M  V30 13 1 13 14
M  V30 14 2 14 15
M  V30 15 1 15 16
M  V30 16 1 16 17
M  V30 17 1 17 18
M  V30 18 2 18 19
M  V30 19 1 19 20
M  V30 20 2 20 21
M  V30 21 1 21 22
M  V30 22 2 22 23
M  V30 23 1 23 24
M  V30 24 1 24 25
M  V30 25 1 24 26
M  V30 26 1 24 27
M  V30 27 1 23 28
M  V30 28 2 28 29
M  V30 29 1 29 30
M  V30 30 2 16 31
M  V30 31 1 9 32
M  V30 32 2 32 33
M  V30 33 1 33 34
M  V30 34 2 34 35
M  V30 35 1 35 4
M  V30 36 1 35 8
M  V30 37 1 31 12
M  V30 38 1 30 18
M  V30 39 1 29 20
M  V30 40 1 1 36
M  V30 41 1 1 37
M  V30 42 1 5 38
M  V30 43 1 6 39
M  V30 44 1 7 40
M  V30 45 1 10 41
M  V30 46 1 11 42
M  V30 47 1 11 43
M  V30 48 1 13 44
M  V30 49 1 14 45
M  V30 50 1 15 46
M  V30 51 1 17 47
M  V30 52 1 21 48
M  V30 53 1 22 49
M  V30 54 1 28 50
M  V30 55 1 30 51
M  V30 56 1 31 52
M  V30 57 1 33 53
M  V30 END BOND
M  V30 END CTAB
M  END
>  <Dataset>  (965) 
ChEMBL_Kinases

>  <Ligand_Instance>  (965) 
nan

>  <PDB_ID>  (965) 
nan

>  <Standardized_SMILES>  (965) 
NC(=O)c1cccc2c(NCc3cccc(Nc4nc5ccc(C(F)(F)F)cc5[nH]4)c3)ncnc12

>  <Name>  (965) 
nan

>  <Pocket>  (965) 
nan

>  <ATP_Site>  (965) 
nan

>  <Peripheral>  (965) 
nan

>  <Num_H_Atoms_ProtBoundConf>  (965) 
nan

>  <Num_Resolved_Atoms>  (965) 
nan

>  <Num_Not_Resolved_Atoms>  (965) 
nan

$$$$
CHEMBL2172315
     RDKit          3D

  0  0  0  0  0  0  0  0  0  0999 V3000
M  V30 BEGIN CTAB
M  V30 COUNTS 86 90 0 0 0
M  V30 BEGIN ATOM
M  V30 1 C -0.830365 -8.137878 -1.205531 0
M  V30 2 C -1.835508 -7.208997 -1.904213 0
M  V30 3 C -3.186525 -7.879741 -1.851499 0
M  V30 4 N -1.945109 -5.962534 -1.182004 0
M  V30 5 C -1.551531 -4.738432 -1.755161 0
M  V30 6 O -1.083406 -4.660014 -2.931862 0
M  V30 7 C -1.728366 -3.534587 -0.859315 0 CFG=1
M  V30 8 C -1.161050 -2.381202 -1.650279 0
M  V30 9 C -1.588735 -1.026486 -1.151273 0
M  V30 10 C -2.328925 -1.243515 0.157123 0 CFG=1
M  V30 11 N -2.427656 -0.054942 0.929682 0
M  V30 12 C -3.360613 0.863345 1.183946 0
M  V30 13 N -4.541564 0.768071 0.663297 0
M  V30 14 C -5.448348 1.831930 1.023654 0
M  V30 15 O -6.485827 1.501168 1.670441 0
M  V30 16 C -5.164787 3.212525 0.652825 0
M  V30 17 C -4.303826 3.491071 -0.397063 0
M  V30 18 C -4.002807 4.797225 -0.783964 0
M  V30 19 F -3.178762 5.086960 -1.793223 0
M  V30 20 C -4.570752 5.856777 -0.111534 0
M  V30 21 C -5.442959 5.596274 0.952153 0
M  V30 22 F -5.969741 6.669377 1.576864 0
M  V30 23 C -5.724213 4.278012 1.314579 0
M  V30 24 N -2.917597 1.830086 2.000778 0
M  V30 25 C -1.642083 1.532447 2.293099 0
M  V30 26 C -0.690852 2.155535 3.071008 0
M  V30 27 C 0.580947 1.653278 3.220504 0
M  V30 28 C 0.922635 0.482513 2.571046 0
M  V30 29 C 2.267640 -0.161343 2.657131 0
M  V30 30 N 3.113419 0.386629 1.678987 0
M  V30 31 C 2.784173 0.264734 0.308864 0
M  V30 32 C 3.381962 1.508819 -0.370811 0
M  V30 33 C 4.853796 1.641032 -0.139979 0
M  V30 34 C 5.668247 0.908348 -1.165658 0
M  V30 35 C 5.322563 1.484320 -2.533729 0
M  V30 36 C 7.137893 1.201823 -0.870342 0
M  V30 37 O 5.473577 -0.447233 -1.209679 0
M  V30 38 C 5.240277 1.349717 1.276354 0
M  V30 39 C 4.523895 0.136178 1.858023 0
M  V30 40 C -0.043881 -0.122180 1.800592 0
M  V30 41 C -1.331554 0.367045 1.634604 0
M  V30 42 C -3.582661 -1.967369 -0.164276 0
M  V30 43 C -3.189366 -3.379991 -0.586970 0
M  V30 44 H -0.301592 -7.616343 -0.377251 0
M  V30 45 H -1.339697 -9.015496 -0.757583 0
M  V30 46 H -0.091828 -8.553944 -1.916686 0
M  V30 47 H -1.440709 -7.040312 -2.908656 0
M  V30 48 H -3.939841 -7.263449 -1.310733 0
M  V30 49 H -3.500136 -8.101673 -2.885447 0
M  V30 50 H -3.139309 -8.848650 -1.288367 0
M  V30 51 H -2.329390 -6.044126 -0.216984 0
M  V30 52 H -1.142160 -3.781239 0.057010 0
M  V30 53 H -0.051678 -2.423240 -1.665084 0
M  V30 54 H -1.525211 -2.497665 -2.704151 0
M  V30 55 H -2.285913 -0.503633 -1.833282 0
M  V30 56 H -0.719120 -0.348116 -0.983433 0
M  V30 57 H -1.677790 -1.975637 0.723582 0
M  V30 58 H -3.829142 2.681663 -0.959256 0
M  V30 59 H -4.347947 6.883922 -0.399263 0
M  V30 60 H -6.406117 4.124570 2.144816 0
M  V30 61 H -3.419100 2.667627 2.367149 0
M  V30 62 H -0.982825 3.067641 3.566566 0
M  V30 63 H 1.343534 2.127547 3.822905 0
M  V30 64 H 2.136418 -1.260884 2.534130 0
M  V30 65 H 2.740106 -0.017866 3.648797 0
M  V30 66 H 1.727594 0.246045 0.036005 0
M  V30 67 H 3.329795 -0.591611 -0.191385 0
M  V30 68 H 3.132122 1.518332 -1.442206 0
M  V30 69 H 2.879171 2.358824 0.145904 0
M  V30 70 H 5.097495 2.735376 -0.298688 0
M  V30 71 H 5.298377 2.582287 -2.520720 0
M  V30 72 H 6.157260 1.163508 -3.213335 0
M  V30 73 H 4.416437 1.014219 -2.941945 0
M  V30 74 H 7.297765 2.280088 -0.676859 0
M  V30 75 H 7.444701 0.541353 -0.036408 0
M  V30 76 H 7.713981 0.842869 -1.772541 0
M  V30 77 H 6.196762 -0.895436 -0.717157 0
M  V30 78 H 4.833060 2.214495 1.884140 0
M  V30 79 H 6.315436 1.348437 1.439121 0
M  V30 80 H 4.821986 -0.791533 1.308754 0
M  V30 81 H 4.824717 0.060544 2.914227 0
M  V30 82 H 0.229868 -1.060980 1.293957 0
M  V30 83 H -4.011086 -1.498794 -1.096509 0
M  V30 84 H -4.364201 -1.968935 0.608298 0
M  V30 85 H -3.446315 -4.091106 0.244098 0
M  V30 86 H -3.769655 -3.745475 -1.455342 0
M  V30 END ATOM
M  V30 BEGIN BOND
M  V30 1 1 1 2
M  V30 2 1 2 3
M  V30 3 1 2 4
M  V30 4 1 4 5
M  V30 5 2 5 6
M  V30 6 1 5 7
M  V30 7 1 7 8
M  V30 8 1 8 9
M  V30 9 1 9 10
M  V30 10 1 10 11
M  V30 11 1 11 12
M  V30 12 2 12 13
M  V30 13 1 13 14
M  V30 14 2 14 15
M  V30 15 1 14 16
M  V30 16 2 16 17
M  V30 17 1 17 18
M  V30 18 1 18 19
M  V30 19 2 18 20
M  V30 20 1 20 21
M  V30 21 1 21 22
M  V30 22 2 21 23
M  V30 23 1 12 24
M  V30 24 1 24 25
M  V30 25 2 25 26
M  V30 26 1 26 27
M  V30 27 2 27 28
M  V30 28 1 28 29
M  V30 29 1 29 30
M  V30 30 1 30 31
M  V30 31 1 31 32
M  V30 32 1 32 33
M  V30 33 1 33 34
M  V30 34 1 34 35
M  V30 35 1 34 36
M  V30 36 1 34 37
M  V30 37 1 33 38
M  V30 38 1 38 39
M  V30 39 1 28 40
M  V30 40 2 40 41
M  V30 41 1 10 42
M  V30 42 1 42 43
M  V30 43 1 43 7
M  V30 44 1 41 11
M  V30 45 1 23 16
M  V30 46 1 41 25
M  V30 47 1 39 30
M  V30 48 1 1 44
M  V30 49 1 1 45
M  V30 50 1 1 46
M  V30 51 1 2 47
M  V30 52 1 3 48
M  V30 53 1 3 49
M  V30 54 1 3 50
M  V30 55 1 4 51
M  V30 56 1 7 52 CFG=1
M  V30 57 1 8 53
M  V30 58 1 8 54
M  V30 59 1 9 55
M  V30 60 1 9 56
M  V30 61 1 10 57 CFG=1
M  V30 62 1 17 58
M  V30 63 1 20 59
M  V30 64 1 23 60
M  V30 65 1 24 61
M  V30 66 1 26 62
M  V30 67 1 27 63
M  V30 68 1 29 64
M  V30 69 1 29 65
M  V30 70 1 31 66
M  V30 71 1 31 67
M  V30 72 1 32 68
M  V30 73 1 32 69
M  V30 74 1 33 70
M  V30 75 1 35 71
M  V30 76 1 35 72
M  V30 77 1 35 73
M  V30 78 1 36 74
M  V30 79 1 36 75
M  V30 80 1 36 76
M  V30 81 1 37 77
M  V30 82 1 38 78
M  V30 83 1 38 79
M  V30 84 1 39 80
M  V30 85 1 39 81
M  V30 86 1 40 82
M  V30 87 1 42 83
M  V30 88 1 42 84
M  V30 89 1 43 85
M  V30 90 1 43 86
M  V30 END BOND
M  V30 END CTAB
M  END
>  <Dataset>  (966) 
ChEMBL_Kinases

>  <Ligand_Instance>  (966) 
nan

>  <PDB_ID>  (966) 
nan

>  <Standardized_SMILES>  (966) 
CC(C)NC(=O)[C@H]1CC[C@@H](n2/c(=N/C(=O)c3cc(F)cc(F)c3)[nH]c3ccc(CN4CCC(C(C)(C)O)CC4)cc32)CC1

>  <Name>  (966) 
nan

>  <Pocket>  (966) 
nan

>  <ATP_Site>  (966) 
nan

>  <Peripheral>  (966) 
nan

>  <Num_H_Atoms_ProtBoundConf>  (966) 
nan

>  <Num_Resolved_Atoms>  (966) 
nan

>  <Num_Not_Resolved_Atoms>  (966) 
nan

$$$$
CHEMBL3685273
     RDKit          3D

  0  0  0  0  0  0  0  0  0  0999 V3000
M  V30 BEGIN CTAB
M  V30 COUNTS 66 70 0 0 0
M  V30 BEGIN ATOM
M  V30 1 C 6.150977 2.224733 6.812760 0
M  V30 2 N 6.154392 2.143509 5.370564 0
M  V30 3 C 5.627697 0.884647 4.904961 0
M  V30 4 C 4.127671 0.858430 5.125149 0
M  V30 5 N 3.464392 1.870589 4.334658 0
M  V30 6 C 2.582985 1.695176 3.240338 0
M  V30 7 C 2.336719 0.441601 2.737263 0
M  V30 8 C 1.472087 0.260513 1.661579 0
M  V30 9 C 0.854395 1.356424 1.093928 0
M  V30 10 C -0.037046 1.123384 -0.031808 0
M  V30 11 O -0.199503 -0.044915 -0.466688 0
M  V30 12 N -0.778537 2.097387 -0.729833 0
M  V30 13 C -1.526054 1.436126 -1.772723 0
M  V30 14 C -0.770432 1.408073 -2.932305 0
M  V30 15 C -1.314151 0.806242 -4.072464 0
M  V30 16 C -2.577818 0.272447 -3.975858 0
M  V30 17 C -3.336445 0.294725 -2.829009 0
M  V30 18 C -4.696334 -0.255852 -2.602994 0
M  V30 19 N -4.683947 -1.606323 -2.058883 0
M  V30 20 C -4.129610 -2.748381 -2.684190 0
M  V30 21 N -3.537470 -2.735939 -3.884001 0
M  V30 22 C -3.005713 -3.788521 -4.509818 0
M  V30 23 N -3.048021 -5.005056 -3.907641 0
M  V30 24 C -3.628757 -5.097685 -2.696710 0
M  V30 25 C -3.643902 -6.338638 -2.137950 0
M  V30 26 C -3.070153 -7.503229 -2.800792 0
M  V30 27 N -2.446803 -7.471300 -4.073440 0
M  V30 28 O -3.073441 -8.652299 -2.304956 0
M  V30 29 C -4.216792 -6.551298 -0.891464 0
M  V30 30 C -4.758047 -5.440487 -0.271870 0
M  V30 31 C -4.719733 -4.203009 -0.875663 0
M  V30 32 C -4.162402 -3.975885 -2.096781 0
M  V30 33 C -2.790845 0.890342 -1.712683 0
M  V30 34 C 1.104725 2.612652 1.602744 0
M  V30 35 C 1.966005 2.785141 2.672737 0
M  V30 36 C 3.922516 3.109101 4.922382 0
M  V30 37 C 5.425893 3.251646 4.836134 0
M  V30 38 H 7.226059 2.260314 7.117971 0
M  V30 39 H 5.621965 1.342627 7.262162 0
M  V30 40 H 5.591489 3.110744 7.200537 0
M  V30 41 H 6.135050 0.059287 5.400325 0
M  V30 42 H 5.843417 0.785847 3.821094 0
M  V30 43 H 3.884170 0.923433 6.217584 0
M  V30 44 H 3.756743 -0.135492 4.815461 0
M  V30 45 H 2.771156 -0.472275 3.112027 0
M  V30 46 H 1.278042 -0.738202 1.264287 0
M  V30 47 H -0.681055 3.103517 -0.403905 0
M  V30 48 H 0.220278 1.799106 -3.094735 0
M  V30 49 H -0.803999 0.732207 -5.033473 0
M  V30 50 H -3.047727 -0.195250 -4.826648 0
M  V30 51 H -5.280192 0.454310 -1.990140 0
M  V30 52 H -5.214154 -0.262172 -3.607268 0
M  V30 53 H -5.138853 -1.649257 -1.129641 0
M  V30 54 H -2.555197 -3.648893 -5.479884 0
M  V30 55 H -1.522198 -7.134556 -3.697530 0
M  V30 56 H -2.816900 -7.707807 -5.018345 0
M  V30 57 H -4.223265 -7.535223 -0.458599 0
M  V30 58 H -5.200342 -5.606778 0.690711 0
M  V30 59 H -5.164434 -3.425391 -0.309453 0
M  V30 60 H -3.230683 1.003648 -0.730642 0
M  V30 61 H 0.603775 3.445477 1.132724 0
M  V30 62 H 2.081051 3.802914 2.979885 0
M  V30 63 H 3.412696 3.974273 4.450929 0
M  V30 64 H 3.596570 3.149788 6.003653 0
M  V30 65 H 5.672882 3.439147 3.772877 0
M  V30 66 H 5.701941 4.146287 5.460599 0
M  V30 END ATOM
M  V30 BEGIN BOND
M  V30 1 1 1 2
M  V30 2 1 2 3
M  V30 3 1 3 4
M  V30 4 1 4 5
M  V30 5 1 5 6
M  V30 6 2 6 7
M  V30 7 1 7 8
M  V30 8 2 8 9
M  V30 9 1 9 10
M  V30 10 2 10 11
M  V30 11 1 10 12
M  V30 12 1 12 13
M  V30 13 2 13 14
M  V30 14 1 14 15
M  V30 15 2 15 16
M  V30 16 1 16 17
M  V30 17 1 17 18
M  V30 18 1 18 19
M  V30 19 1 19 20
M  V30 20 2 20 21
M  V30 21 1 21 22
M  V30 22 2 22 23
M  V30 23 1 23 24
M  V30 24 2 24 25
M  V30 25 1 25 26
M  V30 26 1 26 27
M  V30 27 2 26 28
M  V30 28 1 25 29
M  V30 29 2 29 30
M  V30 30 1 30 31
M  V30 31 2 31 32
M  V30 32 2 17 33
M  V30 33 1 9 34
M  V30 34 2 34 35
M  V30 35 1 5 36
M  V30 36 1 36 37
M  V30 37 1 37 2
M  V30 38 1 35 6
M  V30 39 1 33 13
M  V30 40 1 32 20
M  V30 41 1 32 24
M  V30 42 1 1 38
M  V30 43 1 1 39
M  V30 44 1 1 40
M  V30 45 1 3 41
M  V30 46 1 3 42
M  V30 47 1 4 43
M  V30 48 1 4 44
M  V30 49 1 7 45
M  V30 50 1 8 46
M  V30 51 1 12 47
M  V30 52 1 14 48
M  V30 53 1 15 49
M  V30 54 1 16 50
M  V30 55 1 18 51
M  V30 56 1 18 52
M  V30 57 1 19 53
M  V30 58 1 22 54
M  V30 59 1 27 55
M  V30 60 1 27 56
M  V30 61 1 29 57
M  V30 62 1 30 58
M  V30 63 1 31 59
M  V30 64 1 33 60
M  V30 65 1 34 61
M  V30 66 1 35 62
M  V30 67 1 36 63
M  V30 68 1 36 64
M  V30 69 1 37 65
M  V30 70 1 37 66
M  V30 END BOND
M  V30 END CTAB
M  END
>  <Dataset>  (967) 
ChEMBL_Kinases

>  <Ligand_Instance>  (967) 
nan

>  <PDB_ID>  (967) 
nan

>  <Standardized_SMILES>  (967) 
CN1CCN(c2ccc(C(=O)Nc3cccc(CNc4ncnc5c(C(N)=O)cccc45)c3)cc2)CC1

>  <Name>  (967) 
nan

>  <Pocket>  (967) 
nan

>  <ATP_Site>  (967) 
nan

>  <Peripheral>  (967) 
nan

>  <Num_H_Atoms_ProtBoundConf>  (967) 
nan

>  <Num_Resolved_Atoms>  (967) 
nan

>  <Num_Not_Resolved_Atoms>  (967) 
nan

$$$$
CHEMBL3685272
     RDKit          3D

  0  0  0  0  0  0  0  0  0  0999 V3000
M  V30 BEGIN CTAB
M  V30 COUNTS 52 55 0 0 0
M  V30 BEGIN ATOM
M  V30 1 N 7.360763 -0.849993 4.567849 0
M  V30 2 C 6.139434 -1.049117 3.900014 0
M  V30 3 O 5.355822 -2.026430 4.155696 0
M  V30 4 C 5.719134 -0.096848 2.847937 0
M  V30 5 C 6.537072 0.982955 2.541552 0
M  V30 6 C 6.122279 1.872195 1.543794 0
M  V30 7 C 4.925195 1.641333 0.909123 0
M  V30 8 C 4.098810 0.588251 1.188199 0
M  V30 9 C 2.919399 0.455768 0.486106 0
M  V30 10 N 2.470120 1.336746 -0.529952 0
M  V30 11 C 1.257146 1.178748 -1.233214 0
M  V30 12 C -0.017447 1.197776 -0.584745 0
M  V30 13 C -0.567501 2.484307 -0.434169 0
M  V30 14 C -1.792760 2.708551 0.161010 0
M  V30 15 C -2.522616 1.643637 0.633357 0
M  V30 16 C -2.031458 0.358716 0.512035 0
M  V30 17 N -2.726726 -0.806978 0.976819 0
M  V30 18 C -3.549640 -1.260793 -0.110337 0
M  V30 19 O -3.421181 -0.515089 -1.134419 0
M  V30 20 C -4.427454 -2.447373 -0.027358 0
M  V30 21 C -4.589353 -3.286321 1.068417 0
M  V30 22 C -5.471551 -4.339272 0.910595 0
M  V30 23 C -6.162728 -4.577491 -0.235138 0
M  V30 24 Cl -7.237617 -5.945488 -0.279132 0
M  V30 25 C -6.000591 -3.743857 -1.321193 0
M  V30 26 C -6.757717 -4.016900 -2.554782 0
M  V30 27 F -6.478194 -3.080441 -3.554500 0
M  V30 28 F -8.119300 -3.937422 -2.297699 0
M  V30 29 F -6.481632 -5.252865 -3.100230 0
M  V30 30 C -5.135805 -2.698429 -1.189533 0
M  V30 31 C -0.801849 0.205417 -0.092402 0
M  V30 32 N 2.157045 -0.599766 0.810308 0
M  V30 33 C 2.550100 -1.454033 1.765113 0
M  V30 34 N 3.713123 -1.318334 2.453454 0
M  V30 35 C 4.530392 -0.268835 2.171681 0
M  V30 36 H 7.909578 -1.479360 3.934296 0
M  V30 37 H 6.974120 -0.196383 5.287250 0
M  V30 38 H 7.472474 1.121830 3.070675 0
M  V30 39 H 6.800656 2.691788 1.350810 0
M  V30 40 H 4.712201 2.380278 0.170418 0
M  V30 41 H 3.040301 2.170560 -0.807443 0
M  V30 42 H 1.321307 0.150328 -1.720341 0
M  V30 43 H 1.230616 1.849031 -2.114713 0
M  V30 44 H -0.063451 3.401952 -0.778320 0
M  V30 45 H -2.201549 3.703342 0.269111 0
M  V30 46 H -3.493771 1.718617 1.115327 0
M  V30 47 H -2.754957 -1.348896 1.869966 0
M  V30 48 H -4.004631 -3.018331 1.921887 0
M  V30 49 H -5.566963 -4.968823 1.791672 0
M  V30 50 H -5.047851 -2.069957 -2.085631 0
M  V30 51 H -0.410034 -0.789256 -0.198749 0
M  V30 52 H 1.883579 -2.295586 1.983218 0
M  V30 END ATOM
M  V30 BEGIN BOND
M  V30 1 1 1 2
M  V30 2 2 2 3
M  V30 3 1 2 4
M  V30 4 2 4 5
M  V30 5 1 5 6
M  V30 6 2 6 7
M  V30 7 1 7 8
M  V30 8 2 8 9
M  V30 9 1 9 10
M  V30 10 1 10 11
M  V30 11 1 11 12
M  V30 12 2 12 13
M  V30 13 1 13 14
M  V30 14 2 14 15
M  V30 15 1 15 16
M  V30 16 1 16 17
M  V30 17 1 17 18
M  V30 18 2 18 19
M  V30 19 1 18 20
M  V30 20 2 20 21
M  V30 21 1 21 22
M  V30 22 2 22 23
M  V30 23 1 23 24
M  V30 24 1 23 25
M  V30 25 1 25 26
M  V30 26 1 26 27
M  V30 27 1 26 28
M  V30 28 1 26 29
M  V30 29 2 25 30
M  V30 30 2 16 31
M  V30 31 1 9 32
M  V30 32 2 32 33
M  V30 33 1 33 34
M  V30 34 2 34 35
M  V30 35 1 35 4
M  V30 36 1 35 8
M  V30 37 1 31 12
M  V30 38 1 30 20
M  V30 39 1 1 36
M  V30 40 1 1 37
M  V30 41 1 5 38
M  V30 42 1 6 39
M  V30 43 1 7 40
M  V30 44 1 10 41
M  V30 45 1 11 42
M  V30 46 1 11 43
M  V30 47 1 13 44
M  V30 48 1 14 45
M  V30 49 1 15 46
M  V30 50 1 17 47
M  V30 51 1 21 48
M  V30 52 1 22 49
M  V30 53 1 30 50
M  V30 54 1 31 51
M  V30 55 1 33 52
M  V30 END BOND
M  V30 END CTAB
M  END
>  <Dataset>  (968) 
ChEMBL_Kinases

>  <Ligand_Instance>  (968) 
nan

>  <PDB_ID>  (968) 
nan

>  <Standardized_SMILES>  (968) 
NC(=O)c1cccc2c(NCc3cccc(NC(=O)c4ccc(Cl)c(C(F)(F)F)c4)c3)ncnc12

>  <Name>  (968) 
nan

>  <Pocket>  (968) 
nan

>  <ATP_Site>  (968) 
nan

>  <Peripheral>  (968) 
nan

>  <Num_H_Atoms_ProtBoundConf>  (968) 
nan

>  <Num_Resolved_Atoms>  (968) 
nan

>  <Num_Not_Resolved_Atoms>  (968) 
nan

$$$$
CHEMBL2172308
     RDKit          3D

  0  0  0  0  0  0  0  0  0  0999 V3000
M  V30 BEGIN CTAB
M  V30 COUNTS 86 90 0 0 0
M  V30 BEGIN ATOM
M  V30 1 C 0.756402 -5.958998 0.364456 0
M  V30 2 C -0.735782 -6.142130 0.172938 0
M  V30 3 C -1.301432 -6.470947 1.535033 0
M  V30 4 N -1.259261 -4.891563 -0.341514 0
M  V30 5 C -2.036129 -4.741687 -1.524642 0
M  V30 6 O -2.252412 -5.830077 -2.132005 0
M  V30 7 C -2.496231 -3.414272 -1.920096 0 CFG=1
M  V30 8 C -3.331889 -2.907132 -0.783159 0
M  V30 9 C -3.914061 -1.595810 -1.197923 0
M  V30 10 C -2.909772 -0.553245 -1.596399 0 CFG=1
M  V30 11 N -2.633701 0.365060 -0.502891 0
M  V30 12 C -3.191174 1.588476 -0.252688 0
M  V30 13 N -4.092464 2.093857 -1.022548 0
M  V30 14 C -4.655811 3.369227 -0.738581 0
M  V30 15 O -5.901461 3.171065 -0.679549 0
M  V30 16 C -3.887812 4.596897 -0.566836 0
M  V30 17 C -2.728134 4.797498 -1.284507 0
M  V30 18 C -2.037064 5.977899 -1.084704 0
M  V30 19 C -2.489383 6.934226 -0.193222 0
M  V30 20 F -1.805682 8.103822 0.004282 0
M  V30 21 C -3.662551 6.698810 0.512884 0
M  V30 22 C -4.390913 5.526072 0.344973 0
M  V30 23 N -2.700500 2.163711 0.846989 0
M  V30 24 C -1.796033 1.330209 1.361499 0
M  V30 25 C -0.994070 1.425570 2.483582 0
M  V30 26 C -0.116360 0.380470 2.792317 0
M  V30 27 C -0.052979 -0.749345 1.971466 0
M  V30 28 C 0.900887 -1.800911 2.385100 0
M  V30 29 N 2.179929 -1.583461 1.850118 0
M  V30 30 C 2.339028 -1.525639 0.437577 0
M  V30 31 C 2.469380 -0.073931 0.020277 0
M  V30 32 C 3.834001 0.379016 0.459397 0
M  V30 33 C 4.839495 0.419580 -0.636898 0
M  V30 34 C 5.092264 -0.902105 -1.317853 0
M  V30 35 C 6.198987 0.908407 -0.155592 0
M  V30 36 O 4.460535 1.316697 -1.639496 0
M  V30 37 C 4.306995 -0.405459 1.670004 0
M  V30 38 C 3.090555 -0.743889 2.519963 0
M  V30 39 C -0.888032 -0.777337 0.861229 0
M  V30 40 C -1.759186 0.230126 0.530615 0
M  V30 41 C -1.713088 -1.045966 -2.314763 0
M  V30 42 C -1.473465 -2.488595 -2.451161 0
M  V30 43 H 1.248496 -5.518159 -0.537463 0
M  V30 44 H 1.265476 -6.880889 0.687857 0
M  V30 45 H 0.867017 -5.168909 1.161016 0
M  V30 46 H -1.003045 -6.981463 -0.484059 0
M  V30 47 H -2.060681 -7.292665 1.478964 0
M  V30 48 H -0.516116 -6.868233 2.212715 0
M  V30 49 H -1.770777 -5.613035 2.046119 0
M  V30 50 H -1.015950 -4.062448 0.243081 0
M  V30 51 H -3.235206 -3.599601 -2.757627 0
M  V30 52 H -2.866551 -2.919356 0.197126 0
M  V30 53 H -4.202891 -3.616790 -0.712171 0
M  V30 54 H -4.634904 -1.828764 -2.017755 0
M  V30 55 H -4.555686 -1.126411 -0.395898 0
M  V30 56 H -3.504128 0.076506 -2.331323 0
M  V30 57 H -2.400717 4.023805 -1.978138 0
M  V30 58 H -1.128403 6.126618 -1.654325 0
M  V30 59 H -4.005801 7.453466 1.207498 0
M  V30 60 H -5.304718 5.315709 0.877317 0
M  V30 61 H -3.009383 3.099628 1.191325 0
M  V30 62 H -1.087937 2.322962 3.080811 0
M  V30 63 H 0.443398 0.581203 3.686527 0
M  V30 64 H 0.907423 -1.935861 3.495845 0
M  V30 65 H 0.475743 -2.786222 2.019371 0
M  V30 66 H 1.495263 -2.027674 -0.086821 0
M  V30 67 H 3.259025 -2.054747 0.078339 0
M  V30 68 H 2.320180 0.005468 -1.072838 0
M  V30 69 H 1.662781 0.506757 0.508764 0
M  V30 70 H 3.701476 1.439800 0.805996 0
M  V30 71 H 4.221093 -1.196150 -1.937763 0
M  V30 72 H 5.901738 -0.690907 -2.080008 0
M  V30 73 H 5.501427 -1.682806 -0.676030 0
M  V30 74 H 6.798973 1.108920 -1.068835 0
M  V30 75 H 6.110567 1.872635 0.393166 0
M  V30 76 H 6.712698 0.143380 0.433502 0
M  V30 77 H 5.199859 1.404079 -2.299040 0
M  V30 78 H 4.888491 -1.312382 1.404714 0
M  V30 79 H 4.951759 0.274849 2.262354 0
M  V30 80 H 2.612240 0.222102 2.765535 0
M  V30 81 H 3.454969 -1.177496 3.475382 0
M  V30 82 H -0.826067 -1.661363 0.244042 0
M  V30 83 H -1.655478 -0.624642 -3.366160 0
M  V30 84 H -0.833037 -0.500276 -1.850751 0
M  V30 85 H -0.512259 -2.724093 -1.905535 0
M  V30 86 H -1.244503 -2.828739 -3.485127 0
M  V30 END ATOM
M  V30 BEGIN BOND
M  V30 1 1 1 2
M  V30 2 1 2 3
M  V30 3 1 2 4
M  V30 4 1 4 5
M  V30 5 2 5 6
M  V30 6 1 5 7
M  V30 7 1 7 8
M  V30 8 1 8 9
M  V30 9 1 9 10
M  V30 10 1 10 11
M  V30 11 1 11 12
M  V30 12 2 12 13
M  V30 13 1 13 14
M  V30 14 2 14 15
M  V30 15 1 14 16
M  V30 16 2 16 17
M  V30 17 1 17 18
M  V30 18 2 18 19
M  V30 19 1 19 20
M  V30 20 1 19 21
M  V30 21 2 21 22
M  V30 22 1 12 23
M  V30 23 1 23 24
M  V30 24 2 24 25
M  V30 25 1 25 26
M  V30 26 2 26 27
M  V30 27 1 27 28
M  V30 28 1 28 29
M  V30 29 1 29 30
M  V30 30 1 30 31
M  V30 31 1 31 32
M  V30 32 1 32 33
M  V30 33 1 33 34
M  V30 34 1 33 35
M  V30 35 1 33 36
M  V30 36 1 32 37
M  V30 37 1 37 38
M  V30 38 1 27 39
M  V30 39 2 39 40
M  V30 40 1 10 41
M  V30 41 1 41 42
M  V30 42 1 42 7
M  V30 43 1 40 11
M  V30 44 1 22 16
M  V30 45 1 40 24
M  V30 46 1 38 29
M  V30 47 1 1 43
M  V30 48 1 1 44
M  V30 49 1 1 45
M  V30 50 1 2 46
M  V30 51 1 3 47
M  V30 52 1 3 48
M  V30 53 1 3 49
M  V30 54 1 4 50
M  V30 55 1 7 51 CFG=3
M  V30 56 1 8 52
M  V30 57 1 8 53
M  V30 58 1 9 54
M  V30 59 1 9 55
M  V30 60 1 10 56 CFG=3
M  V30 61 1 17 57
M  V30 62 1 18 58
M  V30 63 1 21 59
M  V30 64 1 22 60
M  V30 65 1 23 61
M  V30 66 1 25 62
M  V30 67 1 26 63
M  V30 68 1 28 64
M  V30 69 1 28 65
M  V30 70 1 30 66
M  V30 71 1 30 67
M  V30 72 1 31 68
M  V30 73 1 31 69
M  V30 74 1 32 70
M  V30 75 1 34 71
M  V30 76 1 34 72
M  V30 77 1 34 73
M  V30 78 1 35 74
M  V30 79 1 35 75
M  V30 80 1 35 76
M  V30 81 1 36 77
M  V30 82 1 37 78
M  V30 83 1 37 79
M  V30 84 1 38 80
M  V30 85 1 38 81
M  V30 86 1 39 82
M  V30 87 1 41 83
M  V30 88 1 41 84
M  V30 89 1 42 85
M  V30 90 1 42 86
M  V30 END BOND
M  V30 END CTAB
M  END
>  <Dataset>  (969) 
ChEMBL_Kinases

>  <Ligand_Instance>  (969) 
nan

>  <PDB_ID>  (969) 
nan

>  <Standardized_SMILES>  (969) 
CC(C)NC(=O)[C@H]1CC[C@@H](n2/c(=N/C(=O)c3ccc(F)cc3)[nH]c3ccc(CN4CCC(C(C)(C)O)CC4)cc32)CC1

>  <Name>  (969) 
nan

>  <Pocket>  (969) 
nan

>  <ATP_Site>  (969) 
nan

>  <Peripheral>  (969) 
nan

>  <Num_H_Atoms_ProtBoundConf>  (969) 
nan

>  <Num_Resolved_Atoms>  (969) 
nan

>  <Num_Not_Resolved_Atoms>  (969) 
nan

$$$$
CHEMBL3685269
     RDKit          3D

  0  0  0  0  0  0  0  0  0  0999 V3000
M  V30 BEGIN CTAB
M  V30 COUNTS 50 53 0 0 0
M  V30 BEGIN ATOM
M  V30 1 N 4.441276 -2.364594 -1.458287 0
M  V30 2 C 5.185180 -1.881516 -0.719185 0
M  V30 3 C 6.113968 -1.270406 0.209632 0
M  V30 4 C 7.224123 -2.030293 0.514691 0
M  V30 5 C 8.133398 -1.483479 1.395438 0
M  V30 6 C 7.953236 -0.225882 1.957879 0
M  V30 7 C 6.830327 0.530945 1.642936 0
M  V30 8 C 5.913628 -0.005374 0.763253 0
M  V30 9 C 4.684757 0.622501 0.315302 0
M  V30 10 O 5.008849 1.144125 -0.804511 0
M  V30 11 N 3.383241 0.733223 0.832924 0
M  V30 12 C 2.281969 1.397345 0.244811 0
M  V30 13 C 2.270729 2.156702 -0.869332 0
M  V30 14 C 1.146980 2.755989 -1.421012 0
M  V30 15 C -0.063686 2.547083 -0.757772 0
M  V30 16 C -0.071242 1.773567 0.383072 0
M  V30 17 C -1.358860 1.497211 1.116587 0
M  V30 18 N -1.971770 0.255032 0.611944 0
M  V30 19 C -3.214467 -0.213413 1.142183 0
M  V30 20 N -3.832108 0.490908 2.103163 0
M  V30 21 C -5.015792 0.091809 2.636127 0
M  V30 22 N -5.617776 -1.036772 2.214106 0
M  V30 23 C -5.002818 -1.757926 1.242263 0
M  V30 24 C -5.594611 -2.911968 0.796291 0
M  V30 25 C -6.862970 -3.315578 1.384336 0
M  V30 26 N -7.512991 -4.511328 0.956323 0
M  V30 27 O -7.429751 -2.650181 2.270992 0
M  V30 28 C -5.030814 -3.715853 -0.198972 0
M  V30 29 C -3.828012 -3.292710 -0.726872 0
M  V30 30 C -3.214789 -2.135205 -0.293550 0
M  V30 31 C -3.786671 -1.376038 0.673777 0
M  V30 32 C 1.088655 1.191776 0.899693 0
M  V30 33 H 7.432990 -3.015231 0.117471 0
M  V30 34 H 9.021250 -2.045480 1.665380 0
M  V30 35 H 8.636968 0.239356 2.650907 0
M  V30 36 H 6.578581 1.517872 2.013838 0
M  V30 37 H 3.361967 0.236844 1.739246 0
M  V30 38 H 3.176486 2.337935 -1.398005 0
M  V30 39 H 1.209055 3.354113 -2.318832 0
M  V30 40 H -0.992915 2.995144 -1.143670 0
M  V30 41 H -2.021895 2.372225 0.943341 0
M  V30 42 H -1.152201 1.442012 2.199428 0
M  V30 43 H -1.426276 -0.214217 -0.132855 0
M  V30 44 H -5.492994 0.687797 3.416982 0
M  V30 45 H -7.748465 -5.438584 1.382663 0
M  V30 46 H -7.784864 -4.320767 -0.038307 0
M  V30 47 H -5.491926 -4.626339 -0.553955 0
M  V30 48 H -3.360783 -3.888599 -1.499826 0
M  V30 49 H -2.293039 -1.875370 -0.746201 0
M  V30 50 H 0.998394 0.590149 1.813428 0
M  V30 END ATOM
M  V30 BEGIN BOND
M  V30 1 3 1 2
M  V30 2 1 2 3
M  V30 3 2 3 4
M  V30 4 1 4 5
M  V30 5 2 5 6
M  V30 6 1 6 7
M  V30 7 2 7 8
M  V30 8 1 8 9
M  V30 9 2 9 10
M  V30 10 1 9 11
M  V30 11 1 11 12
M  V30 12 2 12 13
M  V30 13 1 13 14
M  V30 14 2 14 15
M  V30 15 1 15 16
M  V30 16 1 16 17
M  V30 17 1 17 18
M  V30 18 1 18 19
M  V30 19 2 19 20
M  V30 20 1 20 21
M  V30 21 2 21 22
M  V30 22 1 22 23
M  V30 23 2 23 24
M  V30 24 1 24 25
M  V30 25 1 25 26
M  V30 26 2 25 27
M  V30 27 1 24 28
M  V30 28 2 28 29
M  V30 29 1 29 30
M  V30 30 2 30 31
M  V30 31 2 16 32
M  V30 32 1 8 3
M  V30 33 1 32 12
M  V30 34 1 31 19
M  V30 35 1 31 23
M  V30 36 1 4 33
M  V30 37 1 5 34
M  V30 38 1 6 35
M  V30 39 1 7 36
M  V30 40 1 11 37
M  V30 41 1 13 38
M  V30 42 1 14 39
M  V30 43 1 15 40
M  V30 44 1 17 41
M  V30 45 1 17 42
M  V30 46 1 18 43
M  V30 47 1 21 44
M  V30 48 1 26 45
M  V30 49 1 26 46
M  V30 50 1 28 47
M  V30 51 1 29 48
M  V30 52 1 30 49
M  V30 53 1 32 50
M  V30 END BOND
M  V30 END CTAB
M  END
>  <Dataset>  (970) 
ChEMBL_Kinases

>  <Ligand_Instance>  (970) 
nan

>  <PDB_ID>  (970) 
nan

>  <Standardized_SMILES>  (970) 
N#Cc1ccccc1C(=O)Nc1cccc(CNc2ncnc3c(C(N)=O)cccc23)c1

>  <Name>  (970) 
nan

>  <Pocket>  (970) 
nan

>  <ATP_Site>  (970) 
nan

>  <Peripheral>  (970) 
nan

>  <Num_H_Atoms_ProtBoundConf>  (970) 
nan

>  <Num_Resolved_Atoms>  (970) 
nan

>  <Num_Not_Resolved_Atoms>  (970) 
nan

$$$$
CHEMBL4578881
     RDKit          3D

  0  0  0  0  0  0  0  0  0  0999 V3000
M  V30 BEGIN CTAB
M  V30 COUNTS 39 42 0 0 0
M  V30 BEGIN ATOM
M  V30 1 C 1.066153 -4.555273 0.362070 0
M  V30 2 C 1.722697 -3.308089 0.838932 0
M  V30 3 C 2.950720 -3.336603 1.468475 0
M  V30 4 Br 3.839140 -5.000908 1.743362 0
M  V30 5 C 3.593883 -2.203129 1.925186 0
M  V30 6 Br 5.273505 -2.165226 2.794727 0
M  V30 7 C 2.983125 -0.977290 1.745949 0
M  V30 8 C 1.758940 -0.966206 1.117157 0
M  V30 9 C 1.109861 -2.089388 0.658230 0
M  V30 10 N -0.068362 -1.688458 0.091326 0
M  V30 11 C -0.132555 -0.327052 0.206834 0
M  V30 12 N -1.266734 0.333531 -0.310484 0
M  V30 13 C -2.353435 -0.499993 -0.853543 0
M  V30 14 C -3.512513 -0.304934 0.102068 0
M  V30 15 N -3.979977 1.039190 -0.048481 0
M  V30 16 C -2.958880 2.026896 0.212668 0
M  V30 17 C -1.647897 1.688563 -0.459199 0
M  V30 18 N 0.977844 0.086078 0.828500 0
M  V30 19 C 1.448699 1.381149 1.235737 0
M  V30 20 C 2.287763 1.197909 2.518628 0
M  V30 21 C 3.486538 0.363161 2.142041 0
M  V30 22 H 1.660704 -5.424492 0.687115 0
M  V30 23 H 0.881181 -4.518449 -0.721869 0
M  V30 24 H 0.058233 -4.666878 0.846615 0
M  V30 25 H -2.624278 -0.146090 -1.846712 0
M  V30 26 H -2.032344 -1.575200 -0.877804 0
M  V30 27 H -3.090026 -0.490088 1.130636 0
M  V30 28 H -4.335737 -1.004430 -0.087484 0
M  V30 29 H -4.792004 1.248095 0.559628 0
M  V30 30 H -2.846321 2.204418 1.301417 0
M  V30 31 H -3.307484 2.987089 -0.228410 0
M  V30 32 H -1.811269 1.853374 -1.573383 0
M  V30 33 H -0.891066 2.442499 -0.198599 0
M  V30 34 H 2.149159 1.831512 0.503489 0
M  V30 35 H 0.630300 2.085848 1.509216 0
M  V30 36 H 1.630381 0.541515 3.157028 0
M  V30 37 H 2.520145 2.154542 2.992943 0
M  V30 38 H 4.016776 0.847873 1.271325 0
M  V30 39 H 4.192099 0.294131 3.000780 0
M  V30 END ATOM
M  V30 BEGIN BOND
M  V30 1 1 1 2
M  V30 2 2 2 3
M  V30 3 1 3 4
M  V30 4 1 3 5
M  V30 5 1 5 6
M  V30 6 2 5 7
M  V30 7 1 7 8
M  V30 8 2 8 9
M  V30 9 1 9 10
M  V30 10 2 10 11
M  V30 11 1 11 12
M  V30 12 1 12 13
M  V30 13 1 13 14
M  V30 14 1 14 15
M  V30 15 1 15 16
M  V30 16 1 16 17
M  V30 17 1 11 18
M  V30 18 1 18 19
M  V30 19 1 19 20
M  V30 20 1 20 21
M  V30 21 1 9 2
M  V30 22 1 17 12
M  V30 23 1 21 7
M  V30 24 1 18 8
M  V30 25 1 1 22
M  V30 26 1 1 23
M  V30 27 1 1 24
M  V30 28 1 13 25
M  V30 29 1 13 26
M  V30 30 1 14 27
M  V30 31 1 14 28
M  V30 32 1 15 29
M  V30 33 1 16 30
M  V30 34 1 16 31
M  V30 35 1 17 32
M  V30 36 1 17 33
M  V30 37 1 19 34
M  V30 38 1 19 35
M  V30 39 1 20 36
M  V30 40 1 20 37
M  V30 41 1 21 38
M  V30 42 1 21 39
M  V30 END BOND
M  V30 END CTAB
M  END
>  <Dataset>  (971) 
ChEMBL_Kinases

>  <Ligand_Instance>  (971) 
nan

>  <PDB_ID>  (971) 
nan

>  <Standardized_SMILES>  (971) 
Cc1c(Br)c(Br)c2c3c1nc(N1CCNCC1)n3CCC2

>  <Name>  (971) 
SEL-120

>  <Pocket>  (971) 
nan

>  <ATP_Site>  (971) 
nan

>  <Peripheral>  (971) 
nan

>  <Num_H_Atoms_ProtBoundConf>  (971) 
nan

>  <Num_Resolved_Atoms>  (971) 
nan

>  <Num_Not_Resolved_Atoms>  (971) 
nan

$$$$
CHEMBL3701762
     RDKit          3D

  0  0  0  0  0  0  0  0  0  0999 V3000
M  V30 BEGIN CTAB
M  V30 COUNTS 64 70 0 0 0
M  V30 BEGIN ATOM
M  V30 1 C 5.528255 2.245359 4.556408 0
M  V30 2 C 5.441712 1.633957 3.168010 0
M  V30 3 O 6.663453 1.474483 2.541673 0
M  V30 4 C 4.370681 2.301290 2.300368 0
M  V30 5 C 3.400453 1.329106 2.940970 0
M  V30 6 N 3.016162 1.897655 4.236553 0
M  V30 7 C 2.284986 0.898918 2.097732 0
M  V30 8 C 1.134978 1.662781 2.152561 0
M  V30 9 C 0.018406 1.353968 1.401544 0
M  V30 10 C 0.033482 0.254980 0.566945 0
M  V30 11 C -0.995046 -0.279817 -0.321150 0
M  V30 12 N -1.521649 -1.507004 -0.040971 0
M  V30 13 C -2.449459 -1.851748 -0.945102 0
M  V30 14 N -2.524779 -0.835078 -1.821877 0
M  V30 15 C -1.653799 0.124748 -1.462528 0
M  V30 16 C -1.333053 1.418071 -2.053656 0
M  V30 17 C -0.755681 1.244982 -3.317996 0
M  V30 18 C -0.361653 2.317315 -4.090518 0
M  V30 19 C -0.536336 3.598144 -3.614791 0
M  V30 20 C -1.109039 3.764013 -2.361269 0
M  V30 21 C -1.500470 2.700258 -1.593808 0
M  V30 22 C -3.421192 -0.838791 -2.948596 0
M  V30 23 O -4.196333 -1.993241 -3.038139 0
M  V30 24 C -4.171686 -3.071136 -2.178005 0
M  V30 25 C -4.958693 -4.197216 -2.303875 0
M  V30 26 C -4.848340 -5.230218 -1.370258 0
M  V30 27 C -3.961691 -5.147522 -0.316328 0
M  V30 28 C -3.880362 -6.251872 0.635986 0
M  V30 29 C -3.032224 -6.293787 1.737328 0
M  V30 30 C -3.247576 -7.496282 2.391512 0
M  V30 31 N -4.198672 -8.133755 1.683385 0
M  V30 32 N -4.572131 -7.383006 0.634755 0
M  V30 33 C -3.167195 -4.034684 -0.170827 0
M  V30 34 C -3.299295 -3.028885 -1.110905 0
M  V30 35 C 1.208113 -0.508931 0.523459 0
M  V30 36 C 2.328676 -0.207037 1.271093 0
M  V30 37 C 4.539576 0.392954 3.157804 0
M  V30 38 H 5.120366 1.572333 5.339067 0
M  V30 39 H 6.612478 2.382580 4.797794 0
M  V30 40 H 5.073891 3.245352 4.576025 0
M  V30 41 H 7.159363 0.739420 2.989683 0
M  V30 42 H 4.213643 3.364650 2.571350 0
M  V30 43 H 4.614630 2.115078 1.242063 0
M  V30 44 H 2.624655 2.856271 4.128935 0
M  V30 45 H 2.410509 1.262973 4.791074 0
M  V30 46 H 0.959282 2.560312 2.758887 0
M  V30 47 H -0.925557 1.874019 1.367209 0
M  V30 48 H -0.552912 0.295643 -3.829706 0
M  V30 49 H 0.085609 2.253111 -5.064712 0
M  V30 50 H -0.270624 4.533533 -4.119354 0
M  V30 51 H -1.286559 4.731222 -1.903057 0
M  V30 52 H -1.953361 2.712547 -0.616643 0
M  V30 53 H -2.881221 -0.623590 -3.896349 0
M  V30 54 H -4.107841 0.043641 -2.805292 0
M  V30 55 H -5.648146 -4.242299 -3.138251 0
M  V30 56 H -5.481349 -6.077865 -1.516171 0
M  V30 57 H -2.333632 -5.511039 2.015378 0
M  V30 58 H -2.711338 -7.773467 3.280691 0
M  V30 59 H -5.290863 -7.693134 -0.032630 0
M  V30 60 H -2.466859 -3.949729 0.646515 0
M  V30 61 H 1.346706 -1.404193 -0.098199 0
M  V30 62 H 3.234276 -0.784850 1.246088 0
M  V30 63 H 4.522006 -0.141100 4.125589 0
M  V30 64 H 4.870738 -0.249770 2.340243 0
M  V30 END ATOM
M  V30 BEGIN BOND
M  V30 1 1 1 2
M  V30 2 1 2 3
M  V30 3 1 2 4
M  V30 4 1 4 5
M  V30 5 1 5 6
M  V30 6 1 5 7
M  V30 7 2 7 8
M  V30 8 1 8 9
M  V30 9 2 9 10
M  V30 10 1 10 11
M  V30 11 1 11 12
M  V30 12 2 12 13
M  V30 13 1 13 14
M  V30 14 1 14 15
M  V30 15 1 15 16
M  V30 16 2 16 17
M  V30 17 1 17 18
M  V30 18 2 18 19
M  V30 19 1 19 20
M  V30 20 2 20 21
M  V30 21 1 14 22
M  V30 22 1 22 23
M  V30 23 1 23 24
M  V30 24 2 24 25
M  V30 25 1 25 26
M  V30 26 2 26 27
M  V30 27 1 27 28
M  V30 28 2 28 29
M  V30 29 1 29 30
M  V30 30 2 30 31
M  V30 31 1 31 32
M  V30 32 1 27 33
M  V30 33 2 33 34
M  V30 34 1 10 35
M  V30 35 2 35 36
M  V30 36 1 5 37
M  V30 37 1 37 2
M  V30 38 1 36 7
M  V30 39 2 15 11
M  V30 40 1 21 16
M  V30 41 1 34 24
M  V30 42 1 34 13
M  V30 43 1 32 28
M  V30 44 1 1 38
M  V30 45 1 1 39
M  V30 46 1 1 40
M  V30 47 1 3 41
M  V30 48 1 4 42
M  V30 49 1 4 43
M  V30 50 1 6 44
M  V30 51 1 6 45
M  V30 52 1 8 46
M  V30 53 1 9 47
M  V30 54 1 17 48
M  V30 55 1 18 49
M  V30 56 1 19 50
M  V30 57 1 20 51
M  V30 58 1 21 52
M  V30 59 1 22 53
M  V30 60 1 22 54
M  V30 61 1 25 55
M  V30 62 1 26 56
M  V30 63 1 29 57
M  V30 64 1 30 58
M  V30 65 1 32 59
M  V30 66 1 33 60
M  V30 67 1 35 61
M  V30 68 1 36 62
M  V30 69 1 37 63
M  V30 70 1 37 64
M  V30 END BOND
M  V30 END CTAB
M  END
>  <Dataset>  (972) 
ChEMBL_Kinases

>  <Ligand_Instance>  (972) 
nan

>  <PDB_ID>  (972) 
nan

>  <Standardized_SMILES>  (972) 
CC1(O)CC(N)(c2ccc(-c3nc4n(c3-c3ccccc3)COc3ccc(-c5ccn[nH]5)cc3-4)cc2)C1

>  <Name>  (972) 
nan

>  <Pocket>  (972) 
nan

>  <ATP_Site>  (972) 
nan

>  <Peripheral>  (972) 
nan

>  <Num_H_Atoms_ProtBoundConf>  (972) 
nan

>  <Num_Resolved_Atoms>  (972) 
nan

>  <Num_Not_Resolved_Atoms>  (972) 
nan

$$$$
CHEMBL295316
     RDKit          3D

  0  0  0  0  0  0  0  0  0  0999 V3000
M  V30 BEGIN CTAB
M  V30 COUNTS 22 23 0 0 0
M  V30 BEGIN ATOM
M  V30 1 C 0.537245 0.474699 4.399872 0
M  V30 2 C 0.534681 0.123652 2.937542 0
M  V30 3 C 0.758121 -1.156940 2.595236 0
M  V30 4 C 0.761690 -1.530002 1.176416 0
M  V30 5 O 0.968014 -2.722438 0.820423 0
M  V30 6 C 0.518694 -0.473371 0.201796 0
M  V30 7 C 0.522927 -0.833415 -1.150557 0
M  V30 8 O 0.753654 -2.154841 -1.500360 0
M  V30 9 C 0.293795 0.162226 -2.072536 0
M  V30 10 C 0.059930 1.486886 -1.777129 0
M  V30 11 C 0.060652 1.820113 -0.426009 0
M  V30 12 C 0.287150 0.845716 0.524561 0
M  V30 13 C 0.290733 1.181702 1.947977 0
M  V30 14 O 0.089334 2.360204 2.353293 0
M  V30 15 H -0.519931 0.326619 4.764808 0
M  V30 16 H 1.211308 -0.171647 4.990421 0
M  V30 17 H 0.731313 1.553439 4.480981 0
M  V30 18 H 0.935130 -1.917447 3.342461 0
M  V30 19 H 0.026648 -2.846266 -1.324954 0
M  V30 20 H 0.295108 -0.106340 -3.121380 0
M  V30 21 H -0.114928 2.231567 -2.541659 0
M  V30 22 H -0.114746 2.838301 -0.104947 0
M  V30 END ATOM
M  V30 BEGIN BOND
M  V30 1 1 1 2
M  V30 2 2 2 3
M  V30 3 1 3 4
M  V30 4 2 4 5
M  V30 5 1 4 6
M  V30 6 2 6 7
M  V30 7 1 7 8
M  V30 8 1 7 9
M  V30 9 2 9 10
M  V30 10 1 10 11
M  V30 11 2 11 12
M  V30 12 1 12 13
M  V30 13 2 13 14
M  V30 14 1 13 2
M  V30 15 1 12 6
M  V30 16 1 1 15
M  V30 17 1 1 16
M  V30 18 1 1 17
M  V30 19 1 3 18
M  V30 20 1 8 19
M  V30 21 1 9 20
M  V30 22 1 10 21
M  V30 23 1 11 22
M  V30 END BOND
M  V30 END CTAB
M  END
>  <Dataset>  (973) 
ChEMBL_Kinases

>  <Ligand_Instance>  (973) 
nan

>  <PDB_ID>  (973) 
nan

>  <Standardized_SMILES>  (973) 
CC1=CC(=O)c2c(O)cccc2C1=O

>  <Name>  (973) 
PLUMBAGIN

>  <Pocket>  (973) 
nan

>  <ATP_Site>  (973) 
nan

>  <Peripheral>  (973) 
nan

>  <Num_H_Atoms_ProtBoundConf>  (973) 
nan

>  <Num_Resolved_Atoms>  (973) 
nan

>  <Num_Not_Resolved_Atoms>  (973) 
nan

$$$$
CHEMBL4292474
     RDKit          3D

  0  0  0  0  0  0  0  0  0  0999 V3000
M  V30 BEGIN CTAB
M  V30 COUNTS 42 45 0 0 0
M  V30 BEGIN ATOM
M  V30 1 C 1.298636 -5.647677 2.576454 0
M  V30 2 O 0.757458 -4.425017 2.111461 0
M  V30 3 C 1.378232 -3.614590 1.198777 0
M  V30 4 C 2.598545 -3.819833 0.580604 0
M  V30 5 C 3.098338 -2.899188 -0.329492 0
M  V30 6 C 2.396056 -1.753908 -0.645332 0
M  V30 7 C 1.180086 -1.546601 -0.031232 0
M  V30 8 C 0.471328 -0.383685 -0.355539 0
M  V30 9 N 0.973753 0.567351 -1.285987 0
M  V30 10 C 1.790846 1.680450 -0.883413 0
M  V30 11 C 2.344500 2.670981 -1.690356 0
M  V30 12 C 3.063779 3.555993 -0.892964 0
M  V30 13 C 3.823701 4.770395 -1.336421 0
M  V30 14 N 2.930453 3.086884 0.360483 0
M  V30 15 N 2.188053 1.990794 0.376085 0
M  V30 16 N -0.734540 -0.174503 0.250199 0
M  V30 17 C -1.229985 -1.059774 1.134487 0
M  V30 18 C -2.516570 -0.849183 1.788779 0
M  V30 19 C -3.275696 0.268981 1.526061 0
M  V30 20 C -4.487275 0.435100 2.163430 0
M  V30 21 C -4.970296 -0.499478 3.070925 0
M  V30 22 C -4.228941 -1.635628 3.356321 0
M  V30 23 C -3.025644 -1.756495 2.694501 0
M  V30 24 N -0.538014 -2.173476 1.437032 0
M  V30 25 C 0.657054 -2.460920 0.889094 0
M  V30 26 H 0.736502 -6.072132 3.411375 0
M  V30 27 H 1.276591 -6.371208 1.732354 0
M  V30 28 H 2.382031 -5.550808 2.856009 0
M  V30 29 H 3.071456 -4.741959 0.891884 0
M  V30 30 H 4.068050 -3.156901 -0.758804 0
M  V30 31 H 2.820920 -1.071747 -1.353222 0
M  V30 32 H 0.765210 0.489908 -2.302480 0
M  V30 33 H 2.243205 2.753896 -2.756672 0
M  V30 34 H 4.579834 4.986687 -0.547745 0
M  V30 35 H 3.165648 5.643635 -1.500219 0
M  V30 36 H 4.398922 4.555378 -2.274683 0
M  V30 37 H 3.360040 3.533594 1.213469 0
M  V30 38 H -2.954240 1.029577 0.831937 0
M  V30 39 H -5.122956 1.289175 1.997065 0
M  V30 40 H -5.913269 -0.408169 3.591833 0
M  V30 41 H -4.560293 -2.394633 4.055883 0
M  V30 42 H -2.396614 -2.633810 2.879771 0
M  V30 END ATOM
M  V30 BEGIN BOND
M  V30 1 1 1 2
M  V30 2 1 2 3
M  V30 3 2 3 4
M  V30 4 1 4 5
M  V30 5 2 5 6
M  V30 6 1 6 7
M  V30 7 2 7 8
M  V30 8 1 8 9
M  V30 9 1 9 10
M  V30 10 1 10 11
M  V30 11 2 11 12
M  V30 12 1 12 13
M  V30 13 1 12 14
M  V30 14 1 14 15
M  V30 15 1 8 16
M  V30 16 2 16 17
M  V30 17 1 17 18
M  V30 18 2 18 19
M  V30 19 1 19 20
M  V30 20 2 20 21
M  V30 21 1 21 22
M  V30 22 2 22 23
M  V30 23 1 17 24
M  V30 24 2 24 25
M  V30 25 1 25 3
M  V30 26 1 25 7
M  V30 27 2 15 10
M  V30 28 1 23 18
M  V30 29 1 1 26
M  V30 30 1 1 27
M  V30 31 1 1 28
M  V30 32 1 4 29
M  V30 33 1 5 30
M  V30 34 1 6 31
M  V30 35 1 9 32
M  V30 36 1 11 33
M  V30 37 1 13 34
M  V30 38 1 13 35
M  V30 39 1 13 36
M  V30 40 1 14 37
M  V30 41 1 19 38
M  V30 42 1 20 39
M  V30 43 1 21 40
M  V30 44 1 22 41
M  V30 45 1 23 42
M  V30 END BOND
M  V30 END CTAB
M  END
>  <Dataset>  (974) 
ChEMBL_Kinases

>  <Ligand_Instance>  (974) 
nan

>  <PDB_ID>  (974) 
nan

>  <Standardized_SMILES>  (974) 
COc1cccc2c(Nc3cc(C)[nH]n3)nc(-c3ccccc3)nc12

>  <Name>  (974) 
nan

>  <Pocket>  (974) 
nan

>  <ATP_Site>  (974) 
nan

>  <Peripheral>  (974) 
nan

>  <Num_H_Atoms_ProtBoundConf>  (974) 
nan

>  <Num_Resolved_Atoms>  (974) 
nan

>  <Num_Not_Resolved_Atoms>  (974) 
nan

$$$$
CHEMBL4292442
     RDKit          3D

  0  0  0  0  0  0  0  0  0  0999 V3000
M  V30 BEGIN CTAB
M  V30 COUNTS 39 42 0 0 0
M  V30 BEGIN ATOM
M  V30 1 C 1.434504 -5.202032 5.930343 0
M  V30 2 N 1.197041 -3.995135 5.145321 0
M  V30 3 C 2.193606 -3.400604 4.475070 0
M  V30 4 C 1.619454 -2.309976 3.855655 0
M  V30 5 C 2.275634 -1.326705 2.999233 0
M  V30 6 C 3.687219 -0.934679 3.195233 0
M  V30 7 S 3.942171 0.329001 1.807962 0
M  V30 8 C 2.346035 0.192748 1.220324 0
M  V30 9 C 1.889416 1.006212 0.032478 0
M  V30 10 C 2.805812 1.851368 -0.547015 0
M  V30 11 N 2.323526 2.552093 -1.615699 0
M  V30 12 C 1.065683 2.427420 -2.062012 0
M  V30 13 C 0.145480 1.584348 -1.486770 0
M  V30 14 N -1.157799 1.531100 -2.042043 0
M  V30 15 C -2.270702 0.755499 -1.634441 0
M  V30 16 O -2.154445 -0.013373 -0.649485 0
M  V30 17 C -3.584764 0.769226 -2.277134 0
M  V30 18 C -4.056034 1.804834 -3.199114 0
M  V30 19 C -3.542390 0.569726 -3.814621 0
M  V30 20 C 0.616778 0.872098 -0.409379 0
M  V30 21 C 1.690427 -0.678177 1.950847 0
M  V30 22 C 0.264598 -2.264007 4.167512 0
M  V30 23 N 0.080610 -3.344238 4.972303 0
M  V30 24 H 1.892047 -4.967913 6.925412 0
M  V30 25 H 0.463378 -5.697167 6.125000 0
M  V30 26 H 2.159199 -5.871190 5.393601 0
M  V30 27 H 3.250951 -3.624795 4.363991 0
M  V30 28 H 4.262678 -1.490229 4.129056 0
M  V30 29 H 3.814497 1.985046 -0.229447 0
M  V30 30 H 0.886166 3.071785 -2.920325 0
M  V30 31 H -1.388662 2.116126 -2.858649 0
M  V30 32 H -4.326755 0.074156 -1.789486 0
M  V30 33 H -3.466483 2.743473 -3.292221 0
M  V30 34 H -5.166288 1.993317 -3.189814 0
M  V30 35 H -4.208175 -0.167498 -4.267246 0
M  V30 36 H -2.549211 0.621568 -4.294038 0
M  V30 37 H -0.021496 0.198436 0.095964 0
M  V30 38 H 0.657680 -0.871101 1.695879 0
M  V30 39 H -0.484423 -1.531562 3.843867 0
M  V30 END ATOM
M  V30 BEGIN BOND
M  V30 1 1 1 2
M  V30 2 1 2 3
M  V30 3 2 3 4
M  V30 4 1 4 5
M  V30 5 2 5 6
M  V30 6 1 6 7
M  V30 7 1 7 8
M  V30 8 1 8 9
M  V30 9 2 9 10
M  V30 10 1 10 11
M  V30 11 2 11 12
M  V30 12 1 12 13
M  V30 13 1 13 14
M  V30 14 1 14 15
M  V30 15 2 15 16
M  V30 16 1 15 17
M  V30 17 1 17 18
M  V30 18 1 18 19
M  V30 19 2 13 20
M  V30 20 2 8 21
M  V30 21 1 4 22
M  V30 22 2 22 23
M  V30 23 1 23 2
M  V30 24 1 21 5
M  V30 25 1 20 9
M  V30 26 1 19 17
M  V30 27 1 1 24
M  V30 28 1 1 25
M  V30 29 1 1 26
M  V30 30 1 3 27
M  V30 31 1 6 28
M  V30 32 1 10 29
M  V30 33 1 12 30
M  V30 34 1 14 31
M  V30 35 1 17 32
M  V30 36 1 18 33
M  V30 37 1 18 34
M  V30 38 1 19 35
M  V30 39 1 19 36
M  V30 40 1 20 37
M  V30 41 1 21 38
M  V30 42 1 22 39
M  V30 END BOND
M  V30 END CTAB
M  END
>  <Dataset>  (975) 
ChEMBL_Kinases

>  <Ligand_Instance>  (975) 
nan

>  <PDB_ID>  (975) 
nan

>  <Standardized_SMILES>  (975) 
Cn1cc(-c2csc(-c3cncc(NC(=O)C4CC4)c3)c2)cn1

>  <Name>  (975) 
nan

>  <Pocket>  (975) 
nan

>  <ATP_Site>  (975) 
nan

>  <Peripheral>  (975) 
nan

>  <Num_H_Atoms_ProtBoundConf>  (975) 
nan

>  <Num_Resolved_Atoms>  (975) 
nan

>  <Num_Not_Resolved_Atoms>  (975) 
nan

$$$$
CHEMBL3685292
     RDKit          3D

  0  0  0  0  0  0  0  0  0  0999 V3000
M  V30 BEGIN CTAB
M  V30 COUNTS 58 61 0 0 0
M  V30 BEGIN ATOM
M  V30 1 C 5.935575 -2.074411 5.572562 0
M  V30 2 O 6.279244 -1.461020 4.352951 0
M  V30 3 C 5.395742 -0.913514 3.456317 0
M  V30 4 C 4.044179 -0.920435 3.689549 0
M  V30 5 C 3.179907 -0.361311 2.768132 0
M  V30 6 C 3.589867 0.221831 1.593441 0
M  V30 7 C 2.702847 0.818654 0.605040 0
M  V30 8 O 3.251262 1.301309 -0.436554 0
M  V30 9 N 1.313923 0.899124 0.714681 0
M  V30 10 C 0.360038 1.450934 -0.173341 0
M  V30 11 C 0.600550 2.044160 -1.375001 0
M  V30 12 C -0.368435 2.565087 -2.197475 0
M  V30 13 C -1.684779 2.509964 -1.831233 0
M  V30 14 C -1.975227 1.911515 -0.609579 0
M  V30 15 C -3.356599 1.801398 -0.121340 0
M  V30 16 C -4.417775 2.059011 -1.137182 0
M  V30 17 N -3.530094 0.438355 0.400442 0
M  V30 18 C -3.486104 -0.657477 -0.484935 0
M  V30 19 N -3.912471 -0.531413 -1.705224 0
M  V30 20 C -3.814525 -1.728278 -2.509099 0
M  V30 21 N -3.377241 -2.886975 -2.209169 0
M  V30 22 C -2.872103 -3.193267 -0.900206 0
M  V30 23 C -1.542874 -3.808429 -0.868761 0
M  V30 24 C -0.708791 -4.249280 -1.980620 0
M  V30 25 N -1.029735 -4.167702 -3.360840 0
M  V30 26 O 0.407514 -4.753793 -1.712271 0
M  V30 27 C -1.080724 -3.963922 0.350422 0
M  V30 28 C -1.983889 -3.493175 1.436155 0
M  V30 29 Cl -1.118132 -3.408580 2.991647 0
M  V30 30 C -2.492710 -2.102388 1.155537 0
M  V30 31 C -2.961391 -1.957590 -0.080032 0
M  V30 32 C -0.970376 1.402979 0.182311 0
M  V30 33 C 4.952798 0.201243 1.410894 0
M  V30 34 C 5.871275 -0.336186 2.282410 0
M  V30 35 F 7.199126 -0.328603 2.051548 0
M  V30 36 H 5.054433 -2.726724 5.485187 0
M  V30 37 H 5.713791 -1.333473 6.366611 0
M  V30 38 H 6.804393 -2.720785 5.882956 0
M  V30 39 H 3.689590 -1.365663 4.593491 0
M  V30 40 H 2.128336 -0.399385 3.009266 0
M  V30 41 H 0.985822 0.473749 1.604914 0
M  V30 42 H 1.595686 2.130818 -1.740413 0
M  V30 43 H -0.124384 3.030236 -3.150741 0
M  V30 44 H -2.446109 2.915721 -2.468667 0
M  V30 45 H -3.450827 2.459291 0.768851 0
M  V30 46 H -5.378598 1.562579 -0.848542 0
M  V30 47 H -4.638314 3.154347 -1.156479 0
M  V30 48 H -4.110039 1.791701 -2.163641 0
M  V30 49 H -3.691272 0.215020 1.428713 0
M  V30 50 H -4.164348 -1.661591 -3.547461 0
M  V30 51 H -3.651262 -3.876579 -0.442748 0
M  V30 52 H -1.832601 -3.856141 -3.910157 0
M  V30 53 H -1.901168 -3.824713 -3.818269 0
M  V30 54 H -0.116411 -4.398696 0.602479 0
M  V30 55 H -2.818732 -4.193989 1.529683 0
M  V30 56 H -2.468450 -1.318372 1.897061 0
M  V30 57 H -1.244271 0.941180 1.134365 0
M  V30 58 H 5.409469 0.635802 0.509626 0
M  V30 END ATOM
M  V30 BEGIN BOND
M  V30 1 1 1 2
M  V30 2 1 2 3
M  V30 3 2 3 4
M  V30 4 1 4 5
M  V30 5 2 5 6
M  V30 6 1 6 7
M  V30 7 2 7 8
M  V30 8 1 7 9
M  V30 9 1 9 10
M  V30 10 2 10 11
M  V30 11 1 11 12
M  V30 12 2 12 13
M  V30 13 1 13 14
M  V30 14 1 14 15
M  V30 15 1 15 16
M  V30 16 1 15 17
M  V30 17 1 17 18
M  V30 18 2 18 19
M  V30 19 1 19 20
M  V30 20 2 20 21
M  V30 21 1 21 22
M  V30 22 1 22 23
M  V30 23 1 23 24
M  V30 24 1 24 25
M  V30 25 2 24 26
M  V30 26 2 23 27
M  V30 27 1 27 28
M  V30 28 1 28 29
M  V30 29 1 28 30
M  V30 30 2 30 31
M  V30 31 2 14 32
M  V30 32 1 6 33
M  V30 33 2 33 34
M  V30 34 1 34 35
M  V30 35 1 34 3
M  V30 36 1 32 10
M  V30 37 1 31 18
M  V30 38 1 31 22
M  V30 39 1 1 36
M  V30 40 1 1 37
M  V30 41 1 1 38
M  V30 42 1 4 39
M  V30 43 1 5 40
M  V30 44 1 9 41
M  V30 45 1 11 42
M  V30 46 1 12 43
M  V30 47 1 13 44
M  V30 48 1 15 45
M  V30 49 1 16 46
M  V30 50 1 16 47
M  V30 51 1 16 48
M  V30 52 1 17 49
M  V30 53 1 20 50
M  V30 54 1 22 51
M  V30 55 1 25 52
M  V30 56 1 25 53
M  V30 57 1 27 54
M  V30 58 1 28 55
M  V30 59 1 30 56
M  V30 60 1 32 57
M  V30 61 1 33 58
M  V30 END BOND
M  V30 END CTAB
M  END
>  <Dataset>  (976) 
ChEMBL_Kinases

>  <Ligand_Instance>  (976) 
nan

>  <PDB_ID>  (976) 
nan

>  <Standardized_SMILES>  (976) 
COc1ccc(C(=O)Nc2cccc(C(C)NC3=NC=NC4C(C(N)=O)=CC(Cl)C=C34)c2)cc1F

>  <Name>  (976) 
nan

>  <Pocket>  (976) 
nan

>  <ATP_Site>  (976) 
nan

>  <Peripheral>  (976) 
nan

>  <Num_H_Atoms_ProtBoundConf>  (976) 
nan

>  <Num_Resolved_Atoms>  (976) 
nan

>  <Num_Not_Resolved_Atoms>  (976) 
nan

$$$$
CHEMBL4292344
     RDKit          3D

  0  0  0  0  0  0  0  0  0  0999 V3000
M  V30 BEGIN CTAB
M  V30 COUNTS 34 36 0 0 0
M  V30 BEGIN ATOM
M  V30 1 C -2.214828 -3.907554 4.446156 0
M  V30 2 C -1.258538 -3.575674 3.593151 0
M  V30 3 C -0.118819 -4.522663 3.562971 0
M  V30 4 C -1.228604 -2.408777 2.717350 0
M  V30 5 C -0.214613 -2.123003 1.859567 0
M  V30 6 C -0.271716 -0.998450 1.071184 0
M  V30 7 C 0.757099 -0.731176 0.217558 0
M  V30 8 O 1.749654 -1.523229 0.164053 0
M  V30 9 C 0.699556 0.397192 -0.573261 0
M  V30 10 C 1.763241 0.627264 -1.421872 0
M  V30 11 C 1.662097 1.770830 -2.195965 0
M  V30 12 C 2.766895 2.080143 -3.128789 0
M  V30 13 O 2.704214 3.111309 -3.844882 0
M  V30 14 O 3.870545 1.247240 -3.223296 0
M  V30 15 C 0.596085 2.646890 -2.157173 0
M  V30 16 N 0.532847 3.810969 -2.970567 0
M  V30 17 N -0.421367 2.356579 -1.293925 0
M  V30 18 C -0.395203 1.263012 -0.508582 0
M  V30 19 O -1.369187 0.970298 0.328633 0
M  V30 20 C -1.323633 -0.106943 1.089652 0
M  V30 21 C -2.372321 -0.394257 1.970719 0
M  V30 22 C -2.322827 -1.537535 2.777699 0
M  V30 23 F -3.409335 -1.709728 3.598517 0
M  V30 24 H -3.158599 -3.623710 4.838775 0
M  V30 25 H -3.173191 -3.622111 4.846892 0
M  V30 26 H -0.167119 -5.211937 2.670655 0
M  V30 27 H -0.048510 -5.185735 4.433498 0
M  V30 28 H 0.867515 -3.975906 3.533141 0
M  V30 29 H 0.582476 -2.832555 1.870378 0
M  V30 30 H 2.625100 -0.032782 -1.488695 0
M  V30 31 H 4.759796 1.545730 -3.642593 0
M  V30 32 H 1.070971 4.690176 -3.113466 0
M  V30 33 H -0.329957 3.669819 -3.572397 0
M  V30 34 H -3.211332 0.292787 2.003158 0
M  V30 END ATOM
M  V30 BEGIN BOND
M  V30 1 2 1 2
M  V30 2 1 2 3
M  V30 3 1 2 4
M  V30 4 2 4 5
M  V30 5 1 5 6
M  V30 6 1 6 7
M  V30 7 2 7 8
M  V30 8 1 7 9
M  V30 9 2 9 10
M  V30 10 1 10 11
M  V30 11 1 11 12
M  V30 12 2 12 13
M  V30 13 1 12 14
M  V30 14 2 11 15
M  V30 15 1 15 16
M  V30 16 1 15 17
M  V30 17 2 17 18
M  V30 18 1 18 19
M  V30 19 1 19 20
M  V30 20 1 20 21
M  V30 21 2 21 22
M  V30 22 1 22 23
M  V30 23 1 22 4
M  V30 24 2 20 6
M  V30 25 1 18 9
M  V30 26 1 1 24
M  V30 27 1 1 25
M  V30 28 1 3 26
M  V30 29 1 3 27
M  V30 30 1 3 28
M  V30 31 1 5 29
M  V30 32 1 10 30
M  V30 33 1 14 31
M  V30 34 1 16 32
M  V30 35 1 16 33
M  V30 36 1 21 34
M  V30 END BOND
M  V30 END CTAB
M  END
>  <Dataset>  (977) 
ChEMBL_Kinases

>  <Ligand_Instance>  (977) 
nan

>  <PDB_ID>  (977) 
nan

>  <Standardized_SMILES>  (977) 
C=C(C)c1cc2c(=O)c3cc(C(=O)O)c(N)nc3oc2cc1F

>  <Name>  (977) 
nan

>  <Pocket>  (977) 
nan

>  <ATP_Site>  (977) 
nan

>  <Peripheral>  (977) 
nan

>  <Num_H_Atoms_ProtBoundConf>  (977) 
nan

>  <Num_Resolved_Atoms>  (977) 
nan

>  <Num_Not_Resolved_Atoms>  (977) 
nan

$$$$
CHEMBL288064
     RDKit          3D

  0  0  0  0  0  0  0  0  0  0999 V3000
M  V30 BEGIN CTAB
M  V30 COUNTS 30 32 0 0 0
M  V30 BEGIN ATOM
M  V30 1 I -3.914977 -5.105001 2.864410 0
M  V30 2 C -2.165852 -3.995964 2.464315 0
M  V30 3 C -1.846782 -2.942926 3.307453 0
M  V30 4 C -0.699216 -2.206898 3.054441 0
M  V30 5 C 0.081061 -2.568451 1.954334 0
M  V30 6 C -0.205290 -3.607216 1.096791 0
M  V30 7 C 0.702417 -3.895200 -0.041358 0
M  V30 8 S 0.258092 -3.023416 -1.539752 0
M  V30 9 C 0.461345 -1.259362 -1.376111 0
M  V30 10 N 0.139640 -0.540462 -2.484584 0
M  V30 11 N 0.356650 0.743798 -2.164380 0
M  V30 12 C 0.797813 0.812240 -0.898826 0
M  V30 13 C 1.146038 2.032718 -0.180918 0
M  V30 14 C 1.035298 3.264453 -0.809719 0
M  V30 15 C 1.371837 4.399711 -0.102926 0
M  V30 16 N 1.805563 4.372620 1.176313 0
M  V30 17 C 1.922513 3.171567 1.815511 0
M  V30 18 C 1.589003 2.002091 1.125980 0
M  V30 19 O 0.847470 -0.421623 -0.456638 0
M  V30 20 C -1.367639 -4.334582 1.372542 0
M  V30 21 H -2.445845 -2.658417 4.160496 0
M  V30 22 H -0.411804 -1.372187 3.692779 0
M  V30 23 H 0.956557 -1.958534 1.814958 0
M  V30 24 H 0.712380 -4.986312 -0.287246 0
M  V30 25 H 1.765318 -3.691113 0.275526 0
M  V30 26 H 0.693379 3.323877 -1.825315 0
M  V30 27 H 1.272100 5.338390 -0.626809 0
M  V30 28 H 2.273424 3.185733 2.839648 0
M  V30 29 H 1.688058 1.062569 1.651253 0
M  V30 30 H -1.615676 -5.159244 0.710736 0
M  V30 END ATOM
M  V30 BEGIN BOND
M  V30 1 1 1 2
M  V30 2 2 2 3
M  V30 3 1 3 4
M  V30 4 2 4 5
M  V30 5 1 5 6
M  V30 6 1 6 7
M  V30 7 1 7 8
M  V30 8 1 8 9
M  V30 9 2 9 10
M  V30 10 1 10 11
M  V30 11 2 11 12
M  V30 12 1 12 13
M  V30 13 2 13 14
M  V30 14 1 14 15
M  V30 15 2 15 16
M  V30 16 1 16 17
M  V30 17 2 17 18
M  V30 18 1 12 19
M  V30 19 2 6 20
M  V30 20 1 20 2
M  V30 21 1 19 9
M  V30 22 1 18 13
M  V30 23 1 3 21
M  V30 24 1 4 22
M  V30 25 1 5 23
M  V30 26 1 7 24
M  V30 27 1 7 25
M  V30 28 1 14 26
M  V30 29 1 15 27
M  V30 30 1 17 28
M  V30 31 1 18 29
M  V30 32 1 20 30
M  V30 END BOND
M  V30 END CTAB
M  END
>  <Dataset>  (978) 
ChEMBL_Kinases

>  <Ligand_Instance>  (978) 
nan

>  <PDB_ID>  (978) 
nan

>  <Standardized_SMILES>  (978) 
Ic1cccc(CSc2nnc(-c3ccncc3)o2)c1

>  <Name>  (978) 
nan

>  <Pocket>  (978) 
nan

>  <ATP_Site>  (978) 
nan

>  <Peripheral>  (978) 
nan

>  <Num_H_Atoms_ProtBoundConf>  (978) 
nan

>  <Num_Resolved_Atoms>  (978) 
nan

>  <Num_Not_Resolved_Atoms>  (978) 
nan

$$$$
CHEMBL3685291
     RDKit          3D

  0  0  0  0  0  0  0  0  0  0999 V3000
M  V30 BEGIN CTAB
M  V30 COUNTS 71 75 0 0 0
M  V30 BEGIN ATOM
M  V30 1 C 5.515078 2.773165 7.694536 0
M  V30 2 O 4.118885 2.636537 7.572997 0
M  V30 3 C 3.447954 2.591129 6.359369 0
M  V30 4 C 3.998730 2.667634 5.098956 0
M  V30 5 C 3.211677 2.609375 3.968820 0
M  V30 6 C 1.850201 2.472322 4.092804 0
M  V30 7 C 0.925875 2.401366 2.961404 0
M  V30 8 O -0.320951 2.274591 3.084664 0
M  V30 9 N 1.328404 2.467400 1.595110 0
M  V30 10 C 0.180287 2.369060 0.755495 0
M  V30 11 C -0.405738 3.579583 0.445045 0
M  V30 12 C -1.520291 3.570344 -0.362020 0
M  V30 13 C -2.075309 2.419486 -0.871298 0
M  V30 14 C -1.487695 1.217568 -0.558698 0
M  V30 15 C -1.821156 -0.225325 -0.927286 0 CFG=1
M  V30 16 C -2.933257 -0.128276 -1.910561 0
M  V30 17 C -3.499421 -1.381496 -2.458729 0
M  V30 18 N -4.077761 -2.238904 -1.420442 0
M  V30 19 C -4.584289 -3.415249 -2.115565 0
M  V30 20 C -5.465593 -4.025128 -1.047340 0
M  V30 21 C -6.153494 -2.776113 -0.504506 0
M  V30 22 C -5.298189 -1.597240 -0.977444 0
M  V30 23 N -0.635425 -0.904464 -1.377771 0
M  V30 24 C -0.245381 -2.239370 -1.666557 0
M  V30 25 N -1.119954 -3.232983 -1.486193 0
M  V30 26 C -0.877727 -4.526109 -1.699934 0
M  V30 27 N 0.337631 -4.868856 -2.130629 0
M  V30 28 C 1.248534 -3.928432 -2.328480 0
M  V30 29 C 2.517249 -4.222214 -2.772100 0
M  V30 30 C 2.790564 -5.626734 -3.007173 0
M  V30 31 N 1.975163 -6.778374 -2.857835 0
M  V30 32 O 3.574568 -6.522034 -3.357892 0
M  V30 33 C 3.546911 -3.341769 -3.015468 0
M  V30 34 C 3.218303 -2.004155 -2.769036 0
M  V30 35 C 1.958685 -1.655939 -2.322639 0
M  V30 36 C 1.009263 -2.595849 -2.111595 0
M  V30 37 C -0.356678 1.181411 0.255900 0
M  V30 38 C 1.283735 2.394343 5.348492 0
M  V30 39 C 2.093009 2.454776 6.481099 0
M  V30 40 H 5.861309 3.400404 6.835140 0
M  V30 41 H 5.817159 3.248990 8.643034 0
M  V30 42 H 6.059082 1.808850 7.621466 0
M  V30 43 H 5.074003 2.774670 5.062173 0
M  V30 44 H 3.644603 2.669013 2.986320 0
M  V30 45 H 2.362944 2.574035 1.385366 0
M  V30 46 H -0.080678 4.560256 0.771724 0
M  V30 47 H -2.080612 4.463582 -0.683665 0
M  V30 48 H -2.926686 2.275402 -1.504462 0
M  V30 49 H -2.187883 -0.744249 -0.021821 0
M  V30 50 H -3.782314 0.476021 -1.456057 0
M  V30 51 H -2.609683 0.518546 -2.768421 0
M  V30 52 H -2.848513 -1.899960 -3.157850 0
M  V30 53 H -4.415698 -1.068314 -3.058987 0
M  V30 54 H -5.215672 -3.114526 -2.983168 0
M  V30 55 H -3.808318 -4.078838 -2.499760 0
M  V30 56 H -6.192989 -4.731391 -1.481679 0
M  V30 57 H -4.847887 -4.499887 -0.267541 0
M  V30 58 H -6.118914 -2.801480 0.603282 0
M  V30 59 H -7.151574 -2.632067 -0.929122 0
M  V30 60 H -5.750272 -1.122898 -1.883937 0
M  V30 61 H -5.154461 -0.884446 -0.145137 0
M  V30 62 H 0.115238 -0.210464 -1.524580 0
M  V30 63 H -1.687380 -5.231944 -1.510537 0
M  V30 64 H 0.986559 -7.075621 -2.717092 0
M  V30 65 H 0.981806 -7.083884 -2.716160 0
M  V30 66 H 4.502759 -3.704320 -3.364554 0
M  V30 67 H 4.007482 -1.273961 -2.949703 0
M  V30 68 H 1.840338 -0.597235 -2.174010 0
M  V30 69 H 0.231485 0.341157 0.602082 0
M  V30 70 H 0.198984 2.284672 5.463297 0
M  V30 71 H 1.560659 2.385379 7.436462 0
M  V30 END ATOM
M  V30 BEGIN BOND
M  V30 1 1 1 2
M  V30 2 1 2 3
M  V30 3 2 3 4
M  V30 4 1 4 5
M  V30 5 2 5 6
M  V30 6 1 6 7
M  V30 7 2 7 8
M  V30 8 1 7 9
M  V30 9 1 9 10
M  V30 10 2 10 11
M  V30 11 1 11 12
M  V30 12 2 12 13
M  V30 13 1 13 14
M  V30 14 1 14 15
M  V30 15 1 15 16
M  V30 16 1 16 17
M  V30 17 1 17 18
M  V30 18 1 18 19
M  V30 19 1 19 20
M  V30 20 1 20 21
M  V30 21 1 21 22
M  V30 22 1 15 23
M  V30 23 1 23 24
M  V30 24 2 24 25
M  V30 25 1 25 26
M  V30 26 2 26 27
M  V30 27 1 27 28
M  V30 28 2 28 29
M  V30 29 1 29 30
M  V30 30 1 30 31
M  V30 31 2 30 32
M  V30 32 1 29 33
M  V30 33 2 33 34
M  V30 34 1 34 35
M  V30 35 2 35 36
M  V30 36 2 14 37
M  V30 37 1 6 38
M  V30 38 2 38 39
M  V30 39 1 39 3
M  V30 40 1 37 10
M  V30 41 1 22 18
M  V30 42 1 36 24
M  V30 43 1 36 28
M  V30 44 1 1 40
M  V30 45 1 1 41
M  V30 46 1 1 42
M  V30 47 1 4 43
M  V30 48 1 5 44
M  V30 49 1 9 45
M  V30 50 1 11 46
M  V30 51 1 12 47
M  V30 52 1 13 48
M  V30 53 1 15 49 CFG=1
M  V30 54 1 16 50
M  V30 55 1 16 51
M  V30 56 1 17 52
M  V30 57 1 17 53
M  V30 58 1 19 54
M  V30 59 1 19 55
M  V30 60 1 20 56
M  V30 61 1 20 57
M  V30 62 1 21 58
M  V30 63 1 21 59
M  V30 64 1 22 60
M  V30 65 1 22 61
M  V30 66 1 23 62
M  V30 67 1 26 63
M  V30 68 1 31 64
M  V30 69 1 31 65
M  V30 70 1 33 66
M  V30 71 1 34 67
M  V30 72 1 35 68
M  V30 73 1 37 69
M  V30 74 1 38 70
M  V30 75 1 39 71
M  V30 END BOND
M  V30 END CTAB
M  END
>  <Dataset>  (979) 
ChEMBL_Kinases

>  <Ligand_Instance>  (979) 
nan

>  <PDB_ID>  (979) 
nan

>  <Standardized_SMILES>  (979) 
COc1ccc(C(=O)Nc2cccc([C@@H](CCN3CCCC3)Nc3ncnc4c(C(N)=O)cccc34)c2)cc1

>  <Name>  (979) 
nan

>  <Pocket>  (979) 
nan

>  <ATP_Site>  (979) 
nan

>  <Peripheral>  (979) 
nan

>  <Num_H_Atoms_ProtBoundConf>  (979) 
nan

>  <Num_Resolved_Atoms>  (979) 
nan

>  <Num_Not_Resolved_Atoms>  (979) 
nan

$$$$
CHEMBL3685290
     RDKit          3D

  0  0  0  0  0  0  0  0  0  0999 V3000
M  V30 BEGIN CTAB
M  V30 COUNTS 56 59 0 0 0
M  V30 BEGIN ATOM
M  V30 1 C 6.910603 -2.744714 4.159491 0
M  V30 2 O 5.891267 -3.342867 3.389322 0
M  V30 3 C 5.005668 -2.520849 2.708190 0
M  V30 4 C 5.029278 -1.148638 2.714371 0
M  V30 5 C 4.115630 -0.387640 2.012287 0
M  V30 6 C 3.116131 -1.004187 1.256713 0
M  V30 7 C 2.097701 -0.311842 0.475376 0
M  V30 8 O 1.237262 -0.949603 -0.180482 0
M  V30 9 N 2.042953 1.096375 0.428452 0
M  V30 10 C 0.966538 1.566324 -0.397070 0
M  V30 11 C 1.382929 1.730615 -1.725097 0
M  V30 12 C 0.406127 2.186264 -2.619550 0
M  V30 13 C -0.877421 2.466744 -2.277706 0
M  V30 14 C -1.228256 2.288748 -0.970458 0
M  V30 15 C -2.591404 2.556005 -0.467554 0
M  V30 16 C -3.624914 2.767868 -1.501679 0
M  V30 17 N -2.931059 1.413665 0.380580 0
M  V30 18 C -2.928100 0.125441 -0.239066 0
M  V30 19 N -2.630321 -0.013050 -1.517708 0
M  V30 20 C -2.617331 -1.207295 -2.129910 0
M  V30 21 N -2.902977 -2.364992 -1.507554 0
M  V30 22 C -3.212559 -2.263209 -0.198209 0
M  V30 23 C -3.526241 -3.367213 0.562256 0
M  V30 24 C -3.501587 -4.648059 -0.130780 0
M  V30 25 N -3.176108 -4.798632 -1.507320 0
M  V30 26 O -3.697213 -5.845987 0.098972 0
M  V30 27 C -3.855328 -3.370452 1.900580 0
M  V30 28 C -3.863985 -2.116705 2.522399 0
M  V30 29 F -4.181002 -2.052551 3.841988 0
M  V30 30 C -3.550697 -0.985986 1.776472 0
M  V30 31 C -3.228772 -1.041973 0.439556 0
M  V30 32 C -0.334179 1.843850 -0.018724 0
M  V30 33 C 3.131474 -2.387687 1.280310 0
M  V30 34 C 4.038902 -3.175631 1.977899 0
M  V30 35 F 3.932970 -4.516556 1.908727 0
M  V30 36 H 6.453873 -2.003698 4.822685 0
M  V30 37 H 7.440565 -3.499591 4.786673 0
M  V30 38 H 7.635317 -2.183443 3.523997 0
M  V30 39 H 5.800358 -0.662113 3.297195 0
M  V30 40 H 4.123196 0.683503 2.008894 0
M  V30 41 H 2.717129 1.705781 0.942171 0
M  V30 42 H 2.373371 1.536991 -2.097781 0
M  V30 43 H 0.703781 2.324567 -3.668152 0
M  V30 44 H -1.588820 2.815898 -3.011348 0
M  V30 45 H -2.523636 3.442734 0.183446 0
M  V30 46 H -4.578525 2.316266 -1.095924 0
M  V30 47 H -3.482035 2.285833 -2.468172 0
M  V30 48 H -3.896778 3.858925 -1.591460 0
M  V30 49 H -3.154700 1.601935 1.380294 0
M  V30 50 H -2.351440 -1.165278 -3.194959 0
M  V30 51 H -3.678969 -4.823359 -2.436124 0
M  V30 52 H -2.382524 -4.938912 -2.170374 0
M  V30 53 H -4.081185 -4.287766 2.390139 0
M  V30 54 H -3.582806 -0.067735 2.337216 0
M  V30 55 H -0.529347 1.674712 1.041568 0
M  V30 56 H 2.360702 -2.896696 0.697787 0
M  V30 END ATOM
M  V30 BEGIN BOND
M  V30 1 1 1 2
M  V30 2 1 2 3
M  V30 3 2 3 4
M  V30 4 1 4 5
M  V30 5 2 5 6
M  V30 6 1 6 7
M  V30 7 2 7 8
M  V30 8 1 7 9
M  V30 9 1 9 10
M  V30 10 2 10 11
M  V30 11 1 11 12
M  V30 12 2 12 13
M  V30 13 1 13 14
M  V30 14 1 14 15
M  V30 15 1 15 16
M  V30 16 1 15 17
M  V30 17 1 17 18
M  V30 18 2 18 19
M  V30 19 1 19 20
M  V30 20 2 20 21
M  V30 21 1 21 22
M  V30 22 2 22 23
M  V30 23 1 23 24
M  V30 24 1 24 25
M  V30 25 2 24 26
M  V30 26 1 23 27
M  V30 27 2 27 28
M  V30 28 1 28 29
M  V30 29 1 28 30
M  V30 30 2 30 31
M  V30 31 2 14 32
M  V30 32 1 6 33
M  V30 33 2 33 34
M  V30 34 1 34 35
M  V30 35 1 34 3
M  V30 36 1 32 10
M  V30 37 1 31 18
M  V30 38 1 31 22
M  V30 39 1 1 36
M  V30 40 1 1 37
M  V30 41 1 1 38
M  V30 42 1 4 39
M  V30 43 1 5 40
M  V30 44 1 9 41
M  V30 45 1 11 42
M  V30 46 1 12 43
M  V30 47 1 13 44
M  V30 48 1 15 45
M  V30 49 1 16 46
M  V30 50 1 16 47
M  V30 51 1 16 48
M  V30 52 1 17 49
M  V30 53 1 20 50
M  V30 54 1 25 51
M  V30 55 1 25 52
M  V30 56 1 27 53
M  V30 57 1 30 54
M  V30 58 1 32 55
M  V30 59 1 33 56
M  V30 END BOND
M  V30 END CTAB
M  END
>  <Dataset>  (980) 
ChEMBL_Kinases

>  <Ligand_Instance>  (980) 
nan

>  <PDB_ID>  (980) 
nan

>  <Standardized_SMILES>  (980) 
COc1ccc(C(=O)Nc2cccc(C(C)Nc3ncnc4c(C(N)=O)cc(F)cc34)c2)cc1F

>  <Name>  (980) 
nan

>  <Pocket>  (980) 
nan

>  <ATP_Site>  (980) 
nan

>  <Peripheral>  (980) 
nan

>  <Num_H_Atoms_ProtBoundConf>  (980) 
nan

>  <Num_Resolved_Atoms>  (980) 
nan

>  <Num_Not_Resolved_Atoms>  (980) 
nan

$$$$
CHEMBL289277
     RDKit          3D

  0  0  0  0  0  0  0  0  0  0999 V3000
M  V30 BEGIN CTAB
M  V30 COUNTS 30 32 0 0 0
M  V30 BEGIN ATOM
M  V30 1 C 1.651233 -3.626918 4.211451 0
M  V30 2 C 0.935681 -2.911640 3.119017 0
M  V30 3 C -0.276282 -3.425540 2.679597 0
M  V30 4 C -0.936949 -2.760674 1.667324 0
M  V30 5 O -2.154522 -3.194946 1.158808 0
M  V30 6 C -0.375974 -1.606032 1.121061 0
M  V30 7 C 0.840737 -1.142050 1.604668 0
M  V30 8 C 1.530792 -1.775236 2.611880 0
M  V30 9 C 1.438998 0.065307 1.041740 0
M  V30 10 O 2.544766 0.481754 1.485530 0
M  V30 11 C 0.752877 0.788872 -0.036593 0
M  V30 12 C 1.370054 1.918971 -0.522937 0
M  V30 13 C 0.719072 2.608902 -1.548864 0
M  V30 14 O 1.324007 3.750376 -2.053192 0
M  V30 15 C -0.505489 2.122227 -2.019486 0
M  V30 16 C -1.086233 0.982630 -1.499529 0
M  V30 17 O -2.304420 0.600948 -2.051487 0
M  V30 18 C -0.453631 0.294891 -0.488434 0
M  V30 19 C -1.079225 -0.907341 0.050915 0
M  V30 20 O -2.179832 -1.289262 -0.417441 0
M  V30 21 H 2.744726 -3.628228 3.928884 0
M  V30 22 H 1.375070 -4.689844 4.247731 0
M  V30 23 H 1.553436 -3.092256 5.175700 0
M  V30 24 H -0.696353 -4.321945 3.114619 0
M  V30 25 H -2.161400 -3.976390 0.513291 0
M  V30 26 H 2.482671 -1.421112 2.997472 0
M  V30 27 H 2.311136 2.264025 -0.137564 0
M  V30 28 H 1.248570 4.614473 -1.503370 0
M  V30 29 H -0.965434 2.706747 -2.823714 0
M  V30 30 H -2.445207 0.552151 -3.044171 0
M  V30 END ATOM
M  V30 BEGIN BOND
M  V30 1 1 1 2
M  V30 2 2 2 3
M  V30 3 1 3 4
M  V30 4 1 4 5
M  V30 5 2 4 6
M  V30 6 1 6 7
M  V30 7 2 7 8
M  V30 8 1 7 9
M  V30 9 2 9 10
M  V30 10 1 9 11
M  V30 11 2 11 12
M  V30 12 1 12 13
M  V30 13 1 13 14
M  V30 14 2 13 15
M  V30 15 1 15 16
M  V30 16 1 16 17
M  V30 17 2 16 18
M  V30 18 1 18 19
M  V30 19 2 19 20
M  V30 20 1 8 2
M  V30 21 1 18 11
M  V30 22 1 19 6
M  V30 23 1 1 21
M  V30 24 1 1 22
M  V30 25 1 1 23
M  V30 26 1 3 24
M  V30 27 1 5 25
M  V30 28 1 8 26
M  V30 29 1 12 27
M  V30 30 1 14 28
M  V30 31 1 15 29
M  V30 32 1 17 30
M  V30 END BOND
M  V30 END CTAB
M  END
>  <Dataset>  (981) 
ChEMBL_Kinases

>  <Ligand_Instance>  (981) 
nan

>  <PDB_ID>  (981) 
nan

>  <Standardized_SMILES>  (981) 
Cc1cc(O)c2c(c1)C(=O)c1cc(O)cc(O)c1C2=O

>  <Name>  (981) 
EMODIN

>  <Pocket>  (981) 
nan

>  <ATP_Site>  (981) 
nan

>  <Peripheral>  (981) 
nan

>  <Num_H_Atoms_ProtBoundConf>  (981) 
nan

>  <Num_Resolved_Atoms>  (981) 
nan

>  <Num_Not_Resolved_Atoms>  (981) 
nan

$$$$
CHEMBL3685284
     RDKit          3D

  0  0  0  0  0  0  0  0  0  0999 V3000
M  V30 BEGIN CTAB
M  V30 COUNTS 56 59 0 0 0
M  V30 BEGIN ATOM
M  V30 1 C 1.022590 -1.844645 5.293119 0
M  V30 2 C -0.052871 -2.017049 4.244887 0 CFG=1
M  V30 3 N -0.501828 -0.743982 3.717164 0
M  V30 4 C 0.463707 0.101993 3.070643 0
M  V30 5 N 1.740730 -0.304557 2.973787 0
M  V30 6 C 2.645061 0.459592 2.382208 0
M  V30 7 N 2.397135 1.666994 1.840026 0
M  V30 8 C 1.119785 2.116603 1.915554 0
M  V30 9 C 0.818924 3.333304 1.381130 0
M  V30 10 C 1.854054 4.148010 0.733739 0
M  V30 11 N 1.530145 5.415039 0.179702 0
M  V30 12 O 3.036174 3.723570 0.667951 0
M  V30 13 C -0.471792 3.801163 1.450713 0
M  V30 14 C -1.466142 3.032998 2.065377 0
M  V30 15 C -1.098882 1.810211 2.587279 0
M  V30 16 C 0.170364 1.330532 2.528595 0
M  V30 17 C 0.435868 -2.919845 3.174033 0
M  V30 18 C 1.591613 -3.637465 3.284971 0
M  V30 19 C 2.025161 -4.479172 2.258635 0
M  V30 20 C 1.279588 -4.592745 1.111668 0
M  V30 21 C 0.114660 -3.862495 1.012791 0
M  V30 22 N -0.743610 -3.906825 -0.146552 0
M  V30 23 C -0.300608 -2.877033 -1.053490 0
M  V30 24 O 0.685865 -2.251256 -0.580307 0
M  V30 25 C -0.951581 -2.630036 -2.352396 0
M  V30 26 C -2.031066 -3.310263 -2.877627 0
M  V30 27 C -2.505589 -2.934824 -4.116392 0
M  V30 28 C -1.921660 -1.909323 -4.814901 0
M  V30 29 O -2.389660 -1.521688 -6.062608 0
M  V30 30 C -3.394116 -0.519532 -6.111570 0
M  V30 31 F -4.511279 -0.972889 -5.416971 0
M  V30 32 F -2.998480 0.666288 -5.550432 0
M  V30 33 F -3.791858 -0.328807 -7.437716 0
M  V30 34 C -0.838704 -1.211245 -4.311386 0
M  V30 35 F -0.249866 -0.186232 -5.002142 0
M  V30 36 C -0.369317 -1.592303 -3.071550 0
M  V30 37 C -0.336304 -3.020089 2.018582 0
M  V30 38 H 0.706532 -1.059331 6.011546 0
M  V30 39 H 1.075585 -2.805476 5.859998 0
M  V30 40 H 2.023868 -1.675212 4.898933 0
M  V30 41 H -0.892462 -2.526341 4.750918 0
M  V30 42 H -1.505332 -0.507631 3.834351 0
M  V30 43 H 3.681541 0.135453 2.300704 0
M  V30 44 H 1.957914 5.771867 -0.710284 0
M  V30 45 H 1.990457 5.730037 -0.722887 0
M  V30 46 H -0.674161 4.783951 1.009509 0
M  V30 47 H -2.439682 3.478139 2.071992 0
M  V30 48 H -1.892120 1.270792 3.041149 0
M  V30 49 H 2.198965 -3.576745 4.159996 0
M  V30 50 H 2.926539 -5.052706 2.319278 0
M  V30 51 H 1.567095 -5.238186 0.268272 0
M  V30 52 H -1.573236 -4.505639 -0.436055 0
M  V30 53 H -2.423117 -4.105945 -2.248528 0
M  V30 54 H -3.356905 -3.487291 -4.506663 0
M  V30 55 H 0.490635 -1.015740 -2.704946 0
M  V30 56 H -1.244822 -2.451861 1.939047 0
M  V30 END ATOM
M  V30 BEGIN BOND
M  V30 1 1 1 2
M  V30 2 1 2 3
M  V30 3 1 3 4
M  V30 4 2 4 5
M  V30 5 1 5 6
M  V30 6 2 6 7
M  V30 7 1 7 8
M  V30 8 2 8 9
M  V30 9 1 9 10
M  V30 10 1 10 11
M  V30 11 2 10 12
M  V30 12 1 9 13
M  V30 13 2 13 14
M  V30 14 1 14 15
M  V30 15 2 15 16
M  V30 16 1 2 17
M  V30 17 2 17 18
M  V30 18 1 18 19
M  V30 19 2 19 20
M  V30 20 1 20 21
M  V30 21 1 21 22
M  V30 22 1 22 23
M  V30 23 2 23 24
M  V30 24 1 23 25
M  V30 25 2 25 26
M  V30 26 1 26 27
M  V30 27 2 27 28
M  V30 28 1 28 29
M  V30 29 1 29 30
M  V30 30 1 30 31
M  V30 31 1 30 32
M  V30 32 1 30 33
M  V30 33 1 28 34
M  V30 34 1 34 35
M  V30 35 2 34 36
M  V30 36 2 21 37
M  V30 37 1 16 4
M  V30 38 1 37 17
M  V30 39 1 16 8
M  V30 40 1 36 25
M  V30 41 1 1 38
M  V30 42 1 1 39
M  V30 43 1 1 40
M  V30 44 1 2 41 CFG=1
M  V30 45 1 3 42
M  V30 46 1 6 43
M  V30 47 1 11 44
M  V30 48 1 11 45
M  V30 49 1 13 46
M  V30 50 1 14 47
M  V30 51 1 15 48
M  V30 52 1 18 49
M  V30 53 1 19 50
M  V30 54 1 20 51
M  V30 55 1 22 52
M  V30 56 1 26 53
M  V30 57 1 27 54
M  V30 58 1 36 55
M  V30 59 1 37 56
M  V30 END BOND
M  V30 END CTAB
M  END
>  <Dataset>  (982) 
ChEMBL_Kinases

>  <Ligand_Instance>  (982) 
nan

>  <PDB_ID>  (982) 
nan

>  <Standardized_SMILES>  (982) 
C[C@@H](Nc1ncnc2c(C(N)=O)cccc12)c1cccc(NC(=O)c2ccc(OC(F)(F)F)c(F)c2)c1

>  <Name>  (982) 
nan

>  <Pocket>  (982) 
nan

>  <ATP_Site>  (982) 
nan

>  <Peripheral>  (982) 
nan

>  <Num_H_Atoms_ProtBoundConf>  (982) 
nan

>  <Num_Resolved_Atoms>  (982) 
nan

>  <Num_Not_Resolved_Atoms>  (982) 
nan

$$$$
CHEMBL29197
     RDKit          3D

  0  0  0  0  0  0  0  0  0  0999 V3000
M  V30 BEGIN CTAB
M  V30 COUNTS 36 38 0 0 0
M  V30 BEGIN ATOM
M  V30 1 C -1.776056 -5.461959 -0.026853 0
M  V30 2 O -1.724701 -4.308980 0.767462 0
M  V30 3 C -1.010639 -3.164691 0.355949 0
M  V30 4 C -0.412030 -3.328301 -0.886527 0
M  V30 5 C 0.327789 -2.255720 -1.406249 0
M  V30 6 N 0.919919 -2.341272 -2.606028 0
M  V30 7 C 1.632120 -1.369672 -3.183798 0
M  V30 8 N 1.765227 -0.232599 -2.522919 0
M  V30 9 C 1.209865 -0.023901 -1.293465 0
M  V30 10 N 1.355082 1.195240 -0.637436 0
M  V30 11 C 1.255367 2.072002 0.433322 0
M  V30 12 C 0.520199 3.217994 0.604455 0
M  V30 13 C 0.547739 3.981151 1.719784 0
M  V30 14 C 1.373586 3.555376 2.728766 0
M  V30 15 C 2.149212 2.433193 2.671211 0
M  V30 16 Br 3.233002 2.001523 4.173626 0
M  V30 17 C 2.079573 1.696878 1.509930 0
M  V30 18 C 0.487280 -1.056334 -0.745933 0
M  V30 19 C -0.140787 -0.985140 0.478053 0
M  V30 20 C -0.879930 -1.997491 1.045171 0
M  V30 21 O -1.509112 -1.925668 2.278515 0
M  V30 22 C -1.379844 -0.710381 3.024801 0
M  V30 23 H -2.211985 -6.321719 0.533548 0
M  V30 24 H -0.710569 -5.749402 -0.258647 0
M  V30 25 H -2.263521 -5.273649 -0.986600 0
M  V30 26 H -0.436366 -4.197195 -1.537326 0
M  V30 27 H 2.113876 -1.433531 -4.153455 0
M  V30 28 H 1.804086 1.932056 -1.246234 0
M  V30 29 H -0.084029 3.405513 -0.298588 0
M  V30 30 H -0.098735 4.844042 1.618625 0
M  V30 31 H 1.357289 4.198994 3.592516 0
M  V30 32 H 2.722758 0.802076 1.512815 0
M  V30 33 H -0.059975 -0.072358 1.038197 0
M  V30 34 H -1.909460 -0.784399 3.986143 0
M  V30 35 H -1.761637 0.096363 2.366895 0
M  V30 36 H -0.270926 -0.564912 3.145259 0
M  V30 END ATOM
M  V30 BEGIN BOND
M  V30 1 1 1 2
M  V30 2 1 2 3
M  V30 3 2 3 4
M  V30 4 1 4 5
M  V30 5 2 5 6
M  V30 6 1 6 7
M  V30 7 2 7 8
M  V30 8 1 8 9
M  V30 9 1 9 10
M  V30 10 1 10 11
M  V30 11 2 11 12
M  V30 12 1 12 13
M  V30 13 2 13 14
M  V30 14 1 14 15
M  V30 15 1 15 16
M  V30 16 2 15 17
M  V30 17 2 9 18
M  V30 18 1 18 19
M  V30 19 2 19 20
M  V30 20 1 20 21
M  V30 21 1 21 22
M  V30 22 1 20 3
M  V30 23 1 18 5
M  V30 24 1 17 11
M  V30 25 1 1 23
M  V30 26 1 1 24
M  V30 27 1 1 25
M  V30 28 1 4 26
M  V30 29 1 7 27
M  V30 30 1 10 28
M  V30 31 1 12 29
M  V30 32 1 13 30
M  V30 33 1 14 31
M  V30 34 1 17 32
M  V30 35 1 19 33
M  V30 36 1 22 34
M  V30 37 1 22 35
M  V30 38 1 22 36
M  V30 END BOND
M  V30 END CTAB
M  END
>  <Dataset>  (983) 
ChEMBL_Kinases

>  <Ligand_Instance>  (983) 
nan

>  <PDB_ID>  (983) 
nan

>  <Standardized_SMILES>  (983) 
COc1cc2ncnc(Nc3cccc(Br)c3)c2cc1OC

>  <Name>  (983) 
nan

>  <Pocket>  (983) 
nan

>  <ATP_Site>  (983) 
nan

>  <Peripheral>  (983) 
nan

>  <Num_H_Atoms_ProtBoundConf>  (983) 
nan

>  <Num_Resolved_Atoms>  (983) 
nan

>  <Num_Not_Resolved_Atoms>  (983) 
nan

$$$$
CHEMBL2177163
     RDKit          3D

  0  0  0  0  0  0  0  0  0  0999 V3000
M  V30 BEGIN CTAB
M  V30 COUNTS 53 56 0 0 0
M  V30 BEGIN ATOM
M  V30 1 N -0.408631 -5.768647 3.618983 0
M  V30 2 C 0.097490 -4.608501 2.968336 0
M  V30 3 N 1.226369 -4.036169 3.442872 0
M  V30 4 C 1.721152 -2.930580 2.834099 0
M  V30 5 C 1.117638 -2.352966 1.736092 0
M  V30 6 C 1.660509 -1.162849 1.089944 0
M  V30 7 C 2.798099 -0.498089 1.483975 0
M  V30 8 C 3.218062 0.623061 0.792455 0
M  V30 9 C 2.537875 1.121491 -0.299404 0
M  V30 10 S 3.070686 2.540603 -1.173473 0
M  V30 11 O 2.571882 2.405369 -2.593665 0
M  V30 12 O 4.567601 2.608468 -1.250601 0
M  V30 13 N 2.399002 3.959243 -0.534335 0
M  V30 14 C 2.724723 4.264724 0.818183 0
M  V30 15 C 1.541181 4.703618 1.642327 0
M  V30 16 C 0.401442 3.735235 1.461913 0
M  V30 17 C -0.009981 3.774067 0.016582 0
M  V30 18 C 1.050790 4.234517 -0.918532 0
M  V30 19 C 1.382917 0.466145 -0.718201 0
M  V30 20 C 0.994288 -0.648806 -0.004257 0
M  V30 21 N -0.011703 -2.946452 1.281355 0
M  V30 22 C -0.521405 -4.045344 1.870224 0
M  V30 23 C -1.736253 -4.634417 1.333893 0
M  V30 24 O -2.249595 -5.661150 1.850844 0
M  V30 25 N -2.390386 -4.082125 0.213955 0
M  V30 26 C -3.578022 -4.561719 -0.402292 0
M  V30 27 C -4.858138 -4.163258 -0.049463 0
M  V30 28 C -5.944106 -4.693543 -0.714643 0
M  V30 29 C -5.756443 -5.616991 -1.727222 0
M  V30 30 N -4.507469 -5.982261 -2.045361 0
M  V30 31 C -3.416695 -5.488319 -1.420213 0
M  V30 32 H -1.355084 -6.009201 3.982087 0
M  V30 33 H -1.353593 -6.009394 3.981768 0
M  V30 34 H 2.619115 -2.523987 3.258021 0
M  V30 35 H 3.335551 -0.865139 2.321073 0
M  V30 36 H 4.124542 1.131717 1.126562 0
M  V30 37 H 3.516413 5.032816 0.903580 0
M  V30 38 H 3.110622 3.344641 1.304087 0
M  V30 39 H 1.805058 4.803846 2.708330 0
M  V30 40 H 1.209877 5.690733 1.255825 0
M  V30 41 H -0.445909 4.078942 2.091675 0
M  V30 42 H 0.763999 2.738449 1.783214 0
M  V30 43 H -0.871166 4.492406 -0.082789 0
M  V30 44 H -0.432159 2.779173 -0.246783 0
M  V30 45 H 0.889626 3.677078 -1.886655 0
M  V30 46 H 0.980079 5.307725 -1.202378 0
M  V30 47 H 0.804560 0.804459 -1.564899 0
M  V30 48 H 0.080510 -1.150965 -0.351169 0
M  V30 49 H -2.037542 -3.231240 -0.280163 0
M  V30 50 H -4.871074 -3.435750 0.757548 0
M  V30 51 H -6.914059 -4.350379 -0.401670 0
M  V30 52 H -6.620937 -6.023967 -2.239935 0
M  V30 53 H -2.445239 -5.850299 -1.754092 0
M  V30 END ATOM
M  V30 BEGIN BOND
M  V30 1 1 1 2
M  V30 2 2 2 3
M  V30 3 1 3 4
M  V30 4 2 4 5
M  V30 5 1 5 6
M  V30 6 2 6 7
M  V30 7 1 7 8
M  V30 8 2 8 9
M  V30 9 1 9 10
M  V30 10 2 10 11
M  V30 11 2 10 12
M  V30 12 1 10 13
M  V30 13 1 13 14
M  V30 14 1 14 15
M  V30 15 1 15 16
M  V30 16 1 16 17
M  V30 17 1 17 18
M  V30 18 1 9 19
M  V30 19 2 19 20
M  V30 20 1 5 21
M  V30 21 2 21 22
M  V30 22 1 22 23
M  V30 23 2 23 24
M  V30 24 1 23 25
M  V30 25 1 25 26
M  V30 26 2 26 27
M  V30 27 1 27 28
M  V30 28 2 28 29
M  V30 29 1 29 30
M  V30 30 2 30 31
M  V30 31 1 22 2
M  V30 32 1 31 26
M  V30 33 1 20 6
M  V30 34 1 18 13
M  V30 35 1 1 32
M  V30 36 1 1 33
M  V30 37 1 4 34
M  V30 38 1 7 35
M  V30 39 1 8 36
M  V30 40 1 14 37
M  V30 41 1 14 38
M  V30 42 1 15 39
M  V30 43 1 15 40
M  V30 44 1 16 41
M  V30 45 1 16 42
M  V30 46 1 17 43
M  V30 47 1 17 44
M  V30 48 1 18 45
M  V30 49 1 18 46
M  V30 50 1 19 47
M  V30 51 1 20 48
M  V30 52 1 25 49
M  V30 53 1 27 50
M  V30 54 1 28 51
M  V30 55 1 29 52
M  V30 56 1 31 53
M  V30 END BOND
M  V30 END CTAB
M  END
>  <Dataset>  (984) 
ChEMBL_Kinases

>  <Ligand_Instance>  (984) 
nan

>  <PDB_ID>  (984) 
nan

>  <Standardized_SMILES>  (984) 
Nc1ncc(-c2ccc(S(=O)(=O)N3CCCCC3)cc2)nc1C(=O)Nc1cccnc1

>  <Name>  (984) 
nan

>  <Pocket>  (984) 
nan

>  <ATP_Site>  (984) 
nan

>  <Peripheral>  (984) 
nan

>  <Num_H_Atoms_ProtBoundConf>  (984) 
nan

>  <Num_Resolved_Atoms>  (984) 
nan

>  <Num_Not_Resolved_Atoms>  (984) 
nan

$$$$
CHEMBL2177161
     RDKit          3D

  0  0  0  0  0  0  0  0  0  0999 V3000
M  V30 BEGIN CTAB
M  V30 COUNTS 55 58 0 0 0
M  V30 BEGIN ATOM
M  V30 1 C 0.963347 -1.418598 4.563443 0
M  V30 2 N 2.090926 -1.749625 3.748294 0
M  V30 3 C 3.297100 -1.271590 4.316368 0
M  V30 4 C 4.551090 -1.737866 3.672407 0
M  V30 5 N 4.418931 -2.715602 2.646146 0
M  V30 6 S 4.479985 -2.068340 1.062656 0
M  V30 7 O 4.472729 -3.212850 0.072072 0
M  V30 8 O 5.825625 -1.395640 0.902707 0
M  V30 9 C 3.233501 -0.944230 0.684527 0
M  V30 10 C 2.077019 -1.452699 0.130058 0
M  V30 11 C 1.018600 -0.637610 -0.208514 0
M  V30 12 C 1.072992 0.730268 -0.005147 0
M  V30 13 C -0.057387 1.571410 -0.371004 0
M  V30 14 C -0.023490 2.932212 -0.176538 0
M  V30 15 N -1.124823 3.602739 -0.552117 0
M  V30 16 C -2.187806 2.942533 -1.087698 0
M  V30 17 N -3.263089 3.801334 -1.425725 0
M  V30 18 C -2.226178 1.586340 -1.283526 0
M  V30 19 C -3.400709 0.977204 -1.859650 0
M  V30 20 O -4.337583 1.756865 -2.147867 0
M  V30 21 N -3.560481 -0.405324 -2.114063 0
M  V30 22 C -4.643681 -1.103682 -2.664132 0
M  V30 23 C -5.842967 -0.587814 -3.096978 0
M  V30 24 C -6.857849 -1.339162 -3.626499 0
M  V30 25 C -6.707763 -2.690791 -3.749195 0
M  V30 26 N -5.540997 -3.204573 -3.329905 0
M  V30 27 C -4.552802 -2.459186 -2.812361 0
M  V30 28 N -1.120417 0.921452 -0.905450 0
M  V30 29 C 2.245882 1.194582 0.550276 0
M  V30 30 C 3.327620 0.415681 0.903335 0
M  V30 31 C 3.389793 -3.665881 2.884658 0
M  V30 32 C 2.074707 -3.098025 3.304184 0
M  V30 33 H 0.643462 -2.221013 5.258095 0
M  V30 34 H 0.069724 -1.195635 3.921287 0
M  V30 35 H 1.204303 -0.484400 5.106480 0
M  V30 36 H 3.271225 -0.149541 4.212323 0
M  V30 37 H 3.297935 -1.408757 5.437734 0
M  V30 38 H 5.163024 -0.893578 3.239417 0
M  V30 39 H 5.218705 -2.154476 4.471028 0
M  V30 40 H 1.966784 -2.524406 -0.057288 0
M  V30 41 H 0.129942 -1.100814 -0.644120 0
M  V30 42 H 0.808672 3.449280 0.243210 0
M  V30 43 H -3.712167 4.191550 -0.590640 0
M  V30 44 H -4.038025 4.434171 -1.236997 0
M  V30 45 H -2.703110 -0.931607 -1.824509 0
M  V30 46 H -6.006376 0.473034 -3.019674 0
M  V30 47 H -7.790205 -0.884946 -3.955599 0
M  V30 48 H -7.524376 -3.262446 -4.170633 0
M  V30 49 H -3.683450 -3.048178 -2.527910 0
M  V30 50 H 2.361070 2.251933 0.737980 0
M  V30 51 H 4.228107 0.825436 1.336627 0
M  V30 52 H 3.271935 -4.330515 2.000680 0
M  V30 53 H 3.722021 -4.331851 3.732562 0
M  V30 54 H 1.406020 -3.122715 2.393883 0
M  V30 55 H 1.548038 -3.794992 4.018550 0
M  V30 END ATOM
M  V30 BEGIN BOND
M  V30 1 1 1 2
M  V30 2 1 2 3
M  V30 3 1 3 4
M  V30 4 1 4 5
M  V30 5 1 5 6
M  V30 6 2 6 7
M  V30 7 2 6 8
M  V30 8 1 6 9
M  V30 9 2 9 10
M  V30 10 1 10 11
M  V30 11 2 11 12
M  V30 12 1 12 13
M  V30 13 2 13 14
M  V30 14 1 14 15
M  V30 15 2 15 16
M  V30 16 1 16 17
M  V30 17 1 16 18
M  V30 18 1 18 19
M  V30 19 2 19 20
M  V30 20 1 19 21
M  V30 21 1 21 22
M  V30 22 2 22 23
M  V30 23 1 23 24
M  V30 24 2 24 25
M  V30 25 1 25 26
M  V30 26 2 26 27
M  V30 27 2 18 28
M  V30 28 1 12 29
M  V30 29 2 29 30
M  V30 30 1 5 31
M  V30 31 1 31 32
M  V30 32 1 32 2
M  V30 33 1 30 9
M  V30 34 1 28 13
M  V30 35 1 27 22
M  V30 36 1 1 33
M  V30 37 1 1 34
M  V30 38 1 1 35
M  V30 39 1 3 36
M  V30 40 1 3 37
M  V30 41 1 4 38
M  V30 42 1 4 39
M  V30 43 1 10 40
M  V30 44 1 11 41
M  V30 45 1 14 42
M  V30 46 1 17 43
M  V30 47 1 17 44
M  V30 48 1 21 45
M  V30 49 1 23 46
M  V30 50 1 24 47
M  V30 51 1 25 48
M  V30 52 1 27 49
M  V30 53 1 29 50
M  V30 54 1 30 51
M  V30 55 1 31 52
M  V30 56 1 31 53
M  V30 57 1 32 54
M  V30 58 1 32 55
M  V30 END BOND
M  V30 END CTAB
M  END
>  <Dataset>  (985) 
ChEMBL_Kinases

>  <Ligand_Instance>  (985) 
nan

>  <PDB_ID>  (985) 
nan

>  <Standardized_SMILES>  (985) 
CN1CCN(S(=O)(=O)c2ccc(-c3cnc(N)c(C(=O)Nc4cccnc4)n3)cc2)CC1

>  <Name>  (985) 
nan

>  <Pocket>  (985) 
nan

>  <ATP_Site>  (985) 
nan

>  <Peripheral>  (985) 
nan

>  <Num_H_Atoms_ProtBoundConf>  (985) 
nan

>  <Num_Resolved_Atoms>  (985) 
nan

>  <Num_Not_Resolved_Atoms>  (985) 
nan

$$$$
CHEMBL3701765
     RDKit          3D

  0  0  0  0  0  0  0  0  0  0999 V3000
M  V30 BEGIN CTAB
M  V30 COUNTS 60 65 0 0 0
M  V30 BEGIN ATOM
M  V30 1 C 6.814242 -0.266790 3.215225 0
M  V30 2 O 7.166738 -1.627761 2.935828 0
M  V30 3 C 6.246832 -2.493604 2.343150 0
M  V30 4 C 6.712044 -3.782636 2.126048 0
M  V30 5 C 5.821051 -4.658853 1.540787 0
M  V30 6 C 4.534292 -4.255397 1.194962 0
M  V30 7 C 4.172244 -2.950934 1.454032 0
M  V30 8 N 5.012590 -2.071783 2.021833 0
M  V30 9 C 2.835317 -2.472961 1.111777 0
M  V30 10 N 2.150660 -1.297705 1.214653 0
M  V30 11 C 0.903483 -1.486247 0.705222 0
M  V30 12 C -0.062274 -0.393530 0.681270 0
M  V30 13 C -0.580989 0.292436 1.763621 0
M  V30 14 C -1.493395 1.310504 1.577289 0
M  V30 15 C -1.938255 1.701244 0.316451 0
M  V30 16 C -2.919328 2.811118 0.301452 0
M  V30 17 N -2.686460 3.739498 1.392047 0
M  V30 18 C -4.373497 2.337955 0.375972 0
M  V30 19 C -4.711058 3.360920 -0.659885 0
M  V30 20 C -5.572991 2.804221 -1.776177 0
M  V30 21 O -5.277827 4.491389 -0.123575 0
M  V30 22 C -3.237176 3.440878 -1.007035 0
M  V30 23 C -1.406579 1.002295 -0.745469 0
M  V30 24 C -0.494558 -0.016505 -0.573209 0
M  V30 25 C 0.806387 -2.799815 0.276998 0
M  V30 26 C -0.408282 -3.306729 -0.316121 0
M  V30 27 C -0.384526 -3.785169 -1.631136 0
M  V30 28 C -1.512289 -4.268314 -2.216734 0
M  V30 29 C -2.715477 -4.312051 -1.559997 0
M  V30 30 C -2.779519 -3.850204 -0.264238 0
M  V30 31 C -1.623731 -3.354401 0.337926 0
M  V30 32 N 2.006965 -3.360339 0.545391 0
M  V30 33 C 2.309887 -4.744329 0.241221 0
M  V30 34 O 3.627557 -5.106878 0.611460 0
M  V30 35 H 7.616266 0.377304 2.796117 0
M  V30 36 H 5.853953 0.021367 2.737486 0
M  V30 37 H 6.747201 -0.165743 4.311230 0
M  V30 38 H 7.705085 -4.104552 2.389590 0
M  V30 39 H 6.075737 -5.699599 1.321669 0
M  V30 40 H -0.216760 -0.033469 2.727827 0
M  V30 41 H -1.806303 1.750895 2.528688 0
M  V30 42 H -2.979122 4.687829 1.059726 0
M  V30 43 H -3.286494 3.490261 2.188778 0
M  V30 44 H -4.410501 1.291656 0.012012 0
M  V30 45 H -4.851722 2.489429 1.371662 0
M  V30 46 H -6.091030 1.911968 -1.369398 0
M  V30 47 H -6.348324 3.516609 -2.077362 0
M  V30 48 H -4.946216 2.432150 -2.612725 0
M  V30 49 H -5.984703 4.189086 0.511549 0
M  V30 50 H -2.979911 2.902823 -1.915404 0
M  V30 51 H -2.962186 4.533324 -1.075715 0
M  V30 52 H -1.756733 1.311334 -1.715299 0
M  V30 53 H -0.149930 -0.487574 -1.462821 0
M  V30 54 H 0.534749 -3.789625 -2.235974 0
M  V30 55 H -1.492127 -4.644647 -3.251232 0
M  V30 56 H -3.588932 -4.708076 -2.073012 0
M  V30 57 H -3.737711 -3.879057 0.275467 0
M  V30 58 H -1.675499 -2.988305 1.366442 0
M  V30 59 H 1.639520 -5.398999 0.861512 0
M  V30 60 H 2.106288 -4.980878 -0.816981 0
M  V30 END ATOM
M  V30 BEGIN BOND
M  V30 1 1 1 2
M  V30 2 1 2 3
M  V30 3 2 3 4
M  V30 4 1 4 5
M  V30 5 2 5 6
M  V30 6 1 6 7
M  V30 7 2 7 8
M  V30 8 1 7 9
M  V30 9 2 9 10
M  V30 10 1 10 11
M  V30 11 1 11 12
M  V30 12 2 12 13
M  V30 13 1 13 14
M  V30 14 2 14 15
M  V30 15 1 15 16
M  V30 16 1 16 17
M  V30 17 1 16 18
M  V30 18 1 18 19
M  V30 19 1 19 20
M  V30 20 1 19 21
M  V30 21 1 19 22
M  V30 22 1 15 23
M  V30 23 2 23 24
M  V30 24 2 11 25
M  V30 25 1 25 26
M  V30 26 2 26 27
M  V30 27 1 27 28
M  V30 28 2 28 29
M  V30 29 1 29 30
M  V30 30 2 30 31
M  V30 31 1 25 32
M  V30 32 1 32 33
M  V30 33 1 33 34
M  V30 34 1 8 3
M  V30 35 1 32 9
M  V30 36 1 34 6
M  V30 37 1 24 12
M  V30 38 1 31 26
M  V30 39 1 22 16
M  V30 40 1 1 35
M  V30 41 1 1 36
M  V30 42 1 1 37
M  V30 43 1 4 38
M  V30 44 1 5 39
M  V30 45 1 13 40
M  V30 46 1 14 41
M  V30 47 1 17 42
M  V30 48 1 17 43
M  V30 49 1 18 44
M  V30 50 1 18 45
M  V30 51 1 20 46
M  V30 52 1 20 47
M  V30 53 1 20 48
M  V30 54 1 21 49
M  V30 55 1 22 50
M  V30 56 1 22 51
M  V30 57 1 23 52
M  V30 58 1 24 53
M  V30 59 1 27 54
M  V30 60 1 28 55
M  V30 61 1 29 56
M  V30 62 1 30 57
M  V30 63 1 31 58
M  V30 64 1 33 59
M  V30 65 1 33 60
M  V30 END BOND
M  V30 END CTAB
M  END
>  <Dataset>  (986) 
ChEMBL_Kinases

>  <Ligand_Instance>  (986) 
nan

>  <PDB_ID>  (986) 
nan

>  <Standardized_SMILES>  (986) 
COc1ccc2c(n1)-c1nc(-c3ccc(C4(N)CC(C)(O)C4)cc3)c(-c3ccccc3)n1CO2

>  <Name>  (986) 
nan

>  <Pocket>  (986) 
nan

>  <ATP_Site>  (986) 
nan

>  <Peripheral>  (986) 
nan

>  <Num_H_Atoms_ProtBoundConf>  (986) 
nan

>  <Num_Resolved_Atoms>  (986) 
nan

>  <Num_Not_Resolved_Atoms>  (986) 
nan

$$$$
CHEMBL3701763
     RDKit          3D

  0  0  0  0  0  0  0  0  0  0999 V3000
M  V30 BEGIN CTAB
M  V30 COUNTS 64 70 0 0 0
M  V30 BEGIN ATOM
M  V30 1 C 5.483867 2.368788 4.748214 0
M  V30 2 C 5.146245 1.381307 3.655769 0
M  V30 3 O 6.126304 0.416011 3.430105 0
M  V30 4 C 4.694681 1.988606 2.341096 0
M  V30 5 C 3.278940 1.772400 2.752228 0
M  V30 6 N 2.764288 2.967870 3.432819 0
M  V30 7 C 2.352682 1.196533 1.760198 0
M  V30 8 C 1.078860 1.063588 2.308657 0
M  V30 9 C 0.020733 0.536118 1.555368 0
M  V30 10 C 0.244478 0.142368 0.249992 0
M  V30 11 C -0.801654 -0.418034 -0.609827 0
M  V30 12 N -1.374804 -1.576858 -0.167367 0
M  V30 13 C -2.307808 -1.985867 -1.029349 0
M  V30 14 N -2.337874 -1.088877 -2.031949 0
M  V30 15 C -1.429793 -0.121680 -1.802554 0
M  V30 16 C -0.992534 1.089739 -2.491055 0
M  V30 17 C -0.427561 1.087763 -3.764029 0
M  V30 18 C -0.051957 2.295828 -4.313937 0
M  V30 19 C -0.214308 3.496698 -3.653994 0
M  V30 20 C -0.772020 3.530691 -2.389602 0
M  V30 21 C -1.143557 2.306695 -1.852754 0
M  V30 22 C -3.209288 -1.168774 -3.161100 0
M  V30 23 O -4.057002 -2.287443 -3.142420 0
M  V30 24 C -4.086885 -3.248623 -2.154546 0
M  V30 25 C -4.928778 -4.340313 -2.157612 0
M  V30 26 C -4.898224 -5.265042 -1.124548 0
M  V30 27 C -4.026027 -5.116495 -0.068977 0
M  V30 28 C -3.962440 -6.069954 1.041154 0
M  V30 29 C -4.220974 -7.427089 0.894020 0
M  V30 30 N -4.071301 -7.998380 2.111287 0
M  V30 31 N -3.738161 -7.054897 2.972933 0
M  V30 32 C -3.656450 -5.846281 2.369072 0
M  V30 33 C -3.170107 -4.035836 -0.034486 0
M  V30 34 C -3.224425 -3.127165 -1.083466 0
M  V30 35 C 1.513132 0.280206 -0.280690 0
M  V30 36 C 2.560199 0.798420 0.453799 0
M  V30 37 C 3.752207 0.814568 3.820705 0
M  V30 38 H 4.627923 2.645643 5.380216 0
M  V30 39 H 6.221169 1.861987 5.427967 0
M  V30 40 H 5.996317 3.285146 4.365939 0
M  V30 41 H 5.756691 -0.507757 3.380185 0
M  V30 42 H 5.000160 3.073908 2.337962 0
M  V30 43 H 5.064011 1.430117 1.452239 0
M  V30 44 H 2.149200 3.463400 2.743271 0
M  V30 45 H 2.164889 2.679411 4.240480 0
M  V30 46 H 0.754263 1.330723 3.320640 0
M  V30 47 H -0.981538 0.414674 1.938124 0
M  V30 48 H -0.312105 0.131880 -4.258317 0
M  V30 49 H 0.389365 2.315643 -5.303240 0
M  V30 50 H 0.082397 4.443748 -4.090361 0
M  V30 51 H -0.929423 4.432150 -1.814347 0
M  V30 52 H -1.577304 2.317183 -0.873634 0
M  V30 53 H -2.577263 -1.276718 -4.085976 0
M  V30 54 H -3.800533 -0.217962 -3.261147 0
M  V30 55 H -5.611184 -4.453760 -2.986456 0
M  V30 56 H -5.570430 -6.113645 -1.151979 0
M  V30 57 H -4.490256 -7.905858 -0.039384 0
M  V30 58 H -3.552659 -7.193732 4.007049 0
M  V30 59 H -3.407791 -4.881506 2.794833 0
M  V30 60 H -2.465438 -3.873210 0.772481 0
M  V30 61 H 1.754055 -0.010377 -1.299789 0
M  V30 62 H 3.578594 0.949448 0.144525 0
M  V30 63 H 3.305981 0.973485 4.838140 0
M  V30 64 H 3.728692 -0.255990 3.571145 0
M  V30 END ATOM
M  V30 BEGIN BOND
M  V30 1 1 1 2
M  V30 2 1 2 3
M  V30 3 1 2 4
M  V30 4 1 4 5
M  V30 5 1 5 6
M  V30 6 1 5 7
M  V30 7 2 7 8
M  V30 8 1 8 9
M  V30 9 2 9 10
M  V30 10 1 10 11
M  V30 11 1 11 12
M  V30 12 2 12 13
M  V30 13 1 13 14
M  V30 14 1 14 15
M  V30 15 1 15 16
M  V30 16 2 16 17
M  V30 17 1 17 18
M  V30 18 2 18 19
M  V30 19 1 19 20
M  V30 20 2 20 21
M  V30 21 1 14 22
M  V30 22 1 22 23
M  V30 23 1 23 24
M  V30 24 2 24 25
M  V30 25 1 25 26
M  V30 26 2 26 27
M  V30 27 1 27 28
M  V30 28 1 28 29
M  V30 29 2 29 30
M  V30 30 1 30 31
M  V30 31 1 31 32
M  V30 32 1 27 33
M  V30 33 2 33 34
M  V30 34 1 10 35
M  V30 35 2 35 36
M  V30 36 1 5 37
M  V30 37 1 37 2
M  V30 38 1 36 7
M  V30 39 2 15 11
M  V30 40 1 21 16
M  V30 41 1 34 24
M  V30 42 1 34 13
M  V30 43 2 32 28
M  V30 44 1 1 38
M  V30 45 1 1 39
M  V30 46 1 1 40
M  V30 47 1 3 41
M  V30 48 1 4 42
M  V30 49 1 4 43
M  V30 50 1 6 44
M  V30 51 1 6 45
M  V30 52 1 8 46
M  V30 53 1 9 47
M  V30 54 1 17 48
M  V30 55 1 18 49
M  V30 56 1 19 50
M  V30 57 1 20 51
M  V30 58 1 21 52
M  V30 59 1 22 53
M  V30 60 1 22 54
M  V30 61 1 25 55
M  V30 62 1 26 56
M  V30 63 1 29 57
M  V30 64 1 31 58
M  V30 65 1 32 59
M  V30 66 1 33 60
M  V30 67 1 35 61
M  V30 68 1 36 62
M  V30 69 1 37 63
M  V30 70 1 37 64
M  V30 END BOND
M  V30 END CTAB
M  END
>  <Dataset>  (987) 
ChEMBL_Kinases

>  <Ligand_Instance>  (987) 
nan

>  <PDB_ID>  (987) 
nan

>  <Standardized_SMILES>  (987) 
CC1(O)CC(N)(c2ccc(-c3nc4n(c3-c3ccccc3)COc3ccc(-c5cn[nH]c5)cc3-4)cc2)C1

>  <Name>  (987) 
nan

>  <Pocket>  (987) 
nan

>  <ATP_Site>  (987) 
nan

>  <Peripheral>  (987) 
nan

>  <Num_H_Atoms_ProtBoundConf>  (987) 
nan

>  <Num_Resolved_Atoms>  (987) 
nan

>  <Num_Not_Resolved_Atoms>  (987) 
nan

$$$$
CHEMBL2177159
     RDKit          3D

  0  0  0  0  0  0  0  0  0  0999 V3000
M  V30 BEGIN CTAB
M  V30 COUNTS 50 52 0 0 0
M  V30 BEGIN ATOM
M  V30 1 C 4.248385 -0.461607 6.592742 0
M  V30 2 O 4.109902 -0.537891 5.200587 0
M  V30 3 C 4.149244 -1.841518 4.755101 0
M  V30 4 C 3.996965 -1.904658 3.236863 0
M  V30 5 N 5.078692 -1.166591 2.667955 0
M  V30 6 S 5.052005 -1.140526 0.944899 0
M  V30 7 O 5.224422 -2.483358 0.348163 0
M  V30 8 O 6.191041 -0.253941 0.492845 0
M  V30 9 C 3.561902 -0.352738 0.446180 0
M  V30 10 C 3.500248 1.012633 0.248795 0
M  V30 11 C 2.305528 1.585699 -0.143242 0
M  V30 12 C 1.163438 0.839749 -0.346426 0
M  V30 13 C -0.124064 1.390968 -0.760110 0
M  V30 14 C -0.320933 2.729483 -0.989726 0
M  V30 15 N -1.516315 3.229204 -1.372219 0
M  V30 16 C -2.587038 2.405248 -1.546164 0
M  V30 17 N -3.843817 2.935972 -1.948977 0
M  V30 18 C -2.398136 1.059087 -1.317640 0
M  V30 19 C -3.511872 0.136238 -1.489843 0
M  V30 20 O -4.596736 0.658747 -1.846237 0
M  V30 21 N -3.444903 -1.242582 -1.289125 0
M  V30 22 C -4.453348 -2.227762 -1.425203 0
M  V30 23 C -5.761253 -2.032969 -1.797238 0
M  V30 24 C -6.690590 -3.044799 -1.908805 0
M  V30 25 C -6.314478 -4.343523 -1.636754 0
M  V30 26 N -5.033669 -4.534482 -1.272402 0
M  V30 27 C -4.135063 -3.540953 -1.166534 0
M  V30 28 N -1.195099 0.594622 -0.937797 0
M  V30 29 C 1.265241 -0.521593 -0.138953 0
M  V30 30 C 2.433554 -1.160233 0.254794 0
M  V30 31 H 3.436825 -1.011995 7.099701 0
M  V30 32 H 4.175827 0.604983 6.886371 0
M  V30 33 H 5.250447 -0.856422 6.838510 0
M  V30 34 H 5.053170 -2.356604 5.081103 0
M  V30 35 H 3.276959 -2.384960 5.200977 0
M  V30 36 H 3.042872 -1.403490 3.009665 0
M  V30 37 H 4.054644 -2.951413 2.926903 0
M  V30 38 H 5.266500 -0.243500 3.067423 0
M  V30 39 H 4.385895 1.641461 0.399681 0
M  V30 40 H 2.263647 2.639606 -0.294089 0
M  V30 41 H 0.482894 3.436040 -0.870820 0
M  V30 42 H -3.962320 2.873053 -2.993940 0
M  V30 43 H -4.597954 3.347974 -1.356784 0
M  V30 44 H -2.489570 -1.540326 -0.996825 0
M  V30 45 H -6.096298 -1.040701 -2.017736 0
M  V30 46 H -7.704473 -2.813187 -2.207915 0
M  V30 47 H -7.031723 -5.136640 -1.721225 0
M  V30 48 H -3.130004 -3.869127 -0.856938 0
M  V30 49 H 0.376303 -1.136286 -0.292582 0
M  V30 50 H 2.494629 -2.225828 0.412255 0
M  V30 END ATOM
M  V30 BEGIN BOND
M  V30 1 1 1 2
M  V30 2 1 2 3
M  V30 3 1 3 4
M  V30 4 1 4 5
M  V30 5 1 5 6
M  V30 6 2 6 7
M  V30 7 2 6 8
M  V30 8 1 6 9
M  V30 9 2 9 10
M  V30 10 1 10 11
M  V30 11 2 11 12
M  V30 12 1 12 13
M  V30 13 2 13 14
M  V30 14 1 14 15
M  V30 15 2 15 16
M  V30 16 1 16 17
M  V30 17 1 16 18
M  V30 18 1 18 19
M  V30 19 2 19 20
M  V30 20 1 19 21
M  V30 21 1 21 22
M  V30 22 2 22 23
M  V30 23 1 23 24
M  V30 24 2 24 25
M  V30 25 1 25 26
M  V30 26 2 26 27
M  V30 27 2 18 28
M  V30 28 1 12 29
M  V30 29 2 29 30
M  V30 30 1 30 9
M  V30 31 1 28 13
M  V30 32 1 27 22
M  V30 33 1 1 31
M  V30 34 1 1 32
M  V30 35 1 1 33
M  V30 36 1 3 34
M  V30 37 1 3 35
M  V30 38 1 4 36
M  V30 39 1 4 37
M  V30 40 1 5 38
M  V30 41 1 10 39
M  V30 42 1 11 40
M  V30 43 1 14 41
M  V30 44 1 17 42
M  V30 45 1 17 43
M  V30 46 1 21 44
M  V30 47 1 23 45
M  V30 48 1 24 46
M  V30 49 1 25 47
M  V30 50 1 27 48
M  V30 51 1 29 49
M  V30 52 1 30 50
M  V30 END BOND
M  V30 END CTAB
M  END
>  <Dataset>  (988) 
ChEMBL_Kinases

>  <Ligand_Instance>  (988) 
nan

>  <PDB_ID>  (988) 
nan

>  <Standardized_SMILES>  (988) 
COCCNS(=O)(=O)c1ccc(-c2cnc(N)c(C(=O)Nc3cccnc3)n2)cc1

>  <Name>  (988) 
nan

>  <Pocket>  (988) 
nan

>  <ATP_Site>  (988) 
nan

>  <Peripheral>  (988) 
nan

>  <Num_H_Atoms_ProtBoundConf>  (988) 
nan

>  <Num_Resolved_Atoms>  (988) 
nan

>  <Num_Not_Resolved_Atoms>  (988) 
nan

$$$$
CHEMBL2177157
     RDKit          3D

  0  0  0  0  0  0  0  0  0  0999 V3000
M  V30 BEGIN CTAB
M  V30 COUNTS 55 58 0 0 0
M  V30 BEGIN ATOM
M  V30 1 C 4.149857 -4.049751 5.582357 0
M  V30 2 N 2.928514 -4.262193 4.833487 0
M  V30 3 C 2.117108 -3.086754 4.793406 0
M  V30 4 C 2.702583 -2.003816 3.930328 0
M  V30 5 N 3.295535 -2.493555 2.751771 0
M  V30 6 S 3.947257 -1.395860 1.662661 0
M  V30 7 O 4.678509 -2.029397 0.518586 0
M  V30 8 O 4.913715 -0.508332 2.440702 0
M  V30 9 C 2.693994 -0.325856 1.066509 0
M  V30 10 C 2.725671 1.043751 1.237964 0
M  V30 11 C 1.752139 1.908811 0.779653 0
M  V30 12 C 0.665380 1.393865 0.102202 0
M  V30 13 C -0.416592 2.222686 -0.421948 0
M  V30 14 C -0.446469 3.594221 -0.285083 0
M  V30 15 N -1.441856 4.362417 -0.766593 0
M  V30 16 C -2.471865 3.794142 -1.417825 0
M  V30 17 N -3.508517 4.631976 -1.914955 0
M  V30 18 C -2.478834 2.428374 -1.575064 0
M  V30 19 C -3.579106 1.775894 -2.276134 0
M  V30 20 O -4.484855 2.533470 -2.708534 0
M  V30 21 N -3.582697 0.366174 -2.435766 0
M  V30 22 C -4.557002 -0.436485 -3.081865 0
M  V30 23 C -5.674131 -1.004328 -2.470150 0
M  V30 24 C -6.561298 -1.772824 -3.202133 0
M  V30 25 C -6.319627 -1.965198 -4.543329 0
M  V30 26 N -5.242750 -1.421621 -5.147636 0
M  V30 27 C -4.355025 -0.660989 -4.447223 0
M  V30 28 N -1.466716 1.694071 -1.080201 0
M  V30 29 C 0.580818 0.030036 -0.098790 0
M  V30 30 C 1.586525 -0.784995 0.383464 0
M  V30 31 F 1.438404 -2.104344 0.150065 0
M  V30 32 C 3.159693 -3.840873 2.405706 0
M  V30 33 C 3.258137 -4.811433 3.557180 0
M  V30 34 H 4.191171 -4.827125 6.374946 0
M  V30 35 H 4.148878 -3.029948 5.993558 0
M  V30 36 H 5.047242 -4.214866 4.923125 0
M  V30 37 H 2.049550 -2.689531 5.816138 0
M  V30 38 H 1.115349 -3.352722 4.398976 0
M  V30 39 H 1.830538 -1.358499 3.627196 0
M  V30 40 H 3.376815 -1.327582 4.479336 0
M  V30 41 H 3.585815 1.462066 1.775322 0
M  V30 42 H 1.837582 2.956177 0.945709 0
M  V30 43 H 0.331186 4.108063 0.216067 0
M  V30 44 H -4.450909 4.843306 -1.521990 0
M  V30 45 H -3.281997 5.111036 -2.822917 0
M  V30 46 H -2.828781 -0.249976 -2.074110 0
M  V30 47 H -5.773341 -0.790578 -1.402662 0
M  V30 48 H -7.401384 -2.184041 -2.681580 0
M  V30 49 H -7.020737 -2.574753 -5.130380 0
M  V30 50 H -3.510979 -0.261419 -5.022191 0
M  V30 51 H -0.279930 -0.385764 -0.636223 0
M  V30 52 H 3.926070 -4.116511 1.654710 0
M  V30 53 H 2.165592 -3.986537 1.934505 0
M  V30 54 H 2.578442 -5.663889 3.356551 0
M  V30 55 H 4.302410 -5.229127 3.580355 0
M  V30 END ATOM
M  V30 BEGIN BOND
M  V30 1 1 1 2
M  V30 2 1 2 3
M  V30 3 1 3 4
M  V30 4 1 4 5
M  V30 5 1 5 6
M  V30 6 2 6 7
M  V30 7 2 6 8
M  V30 8 1 6 9
M  V30 9 2 9 10
M  V30 10 1 10 11
M  V30 11 2 11 12
M  V30 12 1 12 13
M  V30 13 2 13 14
M  V30 14 1 14 15
M  V30 15 2 15 16
M  V30 16 1 16 17
M  V30 17 1 16 18
M  V30 18 1 18 19
M  V30 19 2 19 20
M  V30 20 1 19 21
M  V30 21 1 21 22
M  V30 22 2 22 23
M  V30 23 1 23 24
M  V30 24 2 24 25
M  V30 25 1 25 26
M  V30 26 2 26 27
M  V30 27 2 18 28
M  V30 28 1 12 29
M  V30 29 2 29 30
M  V30 30 1 30 31
M  V30 31 1 5 32
M  V30 32 1 32 33
M  V30 33 1 33 2
M  V30 34 1 30 9
M  V30 35 1 28 13
M  V30 36 1 27 22
M  V30 37 1 1 34
M  V30 38 1 1 35
M  V30 39 1 1 36
M  V30 40 1 3 37
M  V30 41 1 3 38
M  V30 42 1 4 39
M  V30 43 1 4 40
M  V30 44 1 10 41
M  V30 45 1 11 42
M  V30 46 1 14 43
M  V30 47 1 17 44
M  V30 48 1 17 45
M  V30 49 1 21 46
M  V30 50 1 23 47
M  V30 51 1 24 48
M  V30 52 1 25 49
M  V30 53 1 27 50
M  V30 54 1 29 51
M  V30 55 1 32 52
M  V30 56 1 32 53
M  V30 57 1 33 54
M  V30 58 1 33 55
M  V30 END BOND
M  V30 END CTAB
M  END
>  <Dataset>  (989) 
ChEMBL_Kinases

>  <Ligand_Instance>  (989) 
nan

>  <PDB_ID>  (989) 
nan

>  <Standardized_SMILES>  (989) 
CN1CCN(S(=O)(=O)c2ccc(-c3cnc(N)c(C(=O)Nc4cccnc4)n3)cc2F)CC1

>  <Name>  (989) 
nan

>  <Pocket>  (989) 
nan

>  <ATP_Site>  (989) 
nan

>  <Peripheral>  (989) 
nan

>  <Num_H_Atoms_ProtBoundConf>  (989) 
nan

>  <Num_Resolved_Atoms>  (989) 
nan

>  <Num_Not_Resolved_Atoms>  (989) 
nan

$$$$
CHEMBL4292020
     RDKit          3D

  0  0  0  0  0  0  0  0  0  0999 V3000
M  V30 BEGIN CTAB
M  V30 COUNTS 53 57 0 0 0
M  V30 BEGIN ATOM
M  V30 1 C 0.563583 -2.668863 6.441167 0
M  V30 2 N 0.546843 -2.654656 5.013483 0
M  V30 3 C 0.537973 -3.982809 4.438399 0
M  V30 4 C 0.257279 -3.917408 2.942261 0
M  V30 5 N 1.007623 -2.762630 2.435481 0
M  V30 6 C 0.623080 -2.056779 1.262582 0
M  V30 7 C 1.290439 -0.964664 0.750794 0
M  V30 8 C 0.893687 -0.302094 -0.390588 0
M  V30 9 C -0.224340 -0.720893 -1.087977 0
M  V30 10 C -0.743954 -0.111157 -2.305653 0
M  V30 11 C -1.185144 1.194856 -2.297254 0
M  V30 12 C -1.166544 2.034609 -1.116001 0
M  V30 13 C -0.363518 3.167807 -1.263004 0
M  V30 14 C -0.206109 4.098428 -0.267058 0
M  V30 15 F 0.577345 5.204644 -0.409855 0
M  V30 16 C -0.868161 3.908856 0.931115 0
M  V30 17 O -0.702623 4.855589 1.931850 0
M  V30 18 C -1.661982 2.799835 1.092750 0
M  V30 19 F -2.324415 2.587553 2.258622 0
M  V30 20 C -1.822206 1.863723 0.095312 0
M  V30 21 C -1.661689 1.699288 -3.482250 0
M  V30 22 N -1.734316 1.023067 -4.655443 0
M  V30 23 C -1.296401 -0.269007 -4.657708 0
M  V30 24 N -1.250154 -1.174327 -5.671331 0
M  V30 25 C -0.729164 -2.327517 -5.168427 0
M  V30 26 C -0.469610 -2.095715 -3.855184 0
M  V30 27 C -0.805817 -0.823826 -3.484202 0
M  V30 28 C -0.899818 -1.831013 -0.564580 0
M  V30 29 C -0.495698 -2.503204 0.595035 0
M  V30 30 C 2.158252 -2.442788 3.258521 0
M  V30 31 C 1.625741 -1.824030 4.536780 0
M  V30 32 H 0.545434 -3.719870 6.854761 0
M  V30 33 H -0.332165 -2.129117 6.868793 0
M  V30 34 H 1.447596 -2.153262 6.833686 0
M  V30 35 H 1.431819 -4.581714 4.653208 0
M  V30 36 H -0.320643 -4.513968 4.898083 0
M  V30 37 H -0.827409 -3.814723 2.821234 0
M  V30 38 H 0.671532 -4.856422 2.515629 0
M  V30 39 H 2.158418 -0.609209 1.259255 0
M  V30 40 H 1.422769 0.549118 -0.780510 0
M  V30 41 H 0.199434 3.401917 -2.175195 0
M  V30 42 H 0.173223 4.879325 2.452760 0
M  V30 43 H -2.413853 0.978885 0.131722 0
M  V30 44 H -2.040211 2.717251 -3.611396 0
M  V30 45 H -1.576117 -0.959834 -6.654701 0
M  V30 46 H -0.603101 -3.183621 -5.807659 0
M  V30 47 H -0.043271 -2.850178 -3.195948 0
M  V30 48 H -1.790978 -2.172384 -1.111510 0
M  V30 49 H -1.123672 -3.341087 0.867292 0
M  V30 50 H 2.676799 -3.394097 3.562351 0
M  V30 51 H 2.888039 -1.772968 2.760728 0
M  V30 52 H 1.160961 -0.826636 4.318114 0
M  V30 53 H 2.411280 -1.666264 5.299271 0
M  V30 END ATOM
M  V30 BEGIN BOND
M  V30 1 1 1 2
M  V30 2 1 2 3
M  V30 3 1 3 4
M  V30 4 1 4 5
M  V30 5 1 5 6
M  V30 6 2 6 7
M  V30 7 1 7 8
M  V30 8 2 8 9
M  V30 9 1 9 10
M  V30 10 1 10 11
M  V30 11 1 11 12
M  V30 12 2 12 13
M  V30 13 1 13 14
M  V30 14 1 14 15
M  V30 15 2 14 16
M  V30 16 1 16 17
M  V30 17 1 16 18
M  V30 18 1 18 19
M  V30 19 2 18 20
M  V30 20 2 11 21
M  V30 21 1 21 22
M  V30 22 2 22 23
M  V30 23 1 23 24
M  V30 24 1 24 25
M  V30 25 2 25 26
M  V30 26 1 26 27
M  V30 27 1 9 28
M  V30 28 2 28 29
M  V30 29 1 5 30
M  V30 30 1 30 31
M  V30 31 1 31 2
M  V30 32 1 29 6
M  V30 33 2 27 10
M  V30 34 1 20 12
M  V30 35 1 27 23
M  V30 36 1 1 32
M  V30 37 1 1 33
M  V30 38 1 1 34
M  V30 39 1 3 35
M  V30 40 1 3 36
M  V30 41 1 4 37
M  V30 42 1 4 38
M  V30 43 1 7 39
M  V30 44 1 8 40
M  V30 45 1 13 41
M  V30 46 1 17 42
M  V30 47 1 20 43
M  V30 48 1 21 44
M  V30 49 1 24 45
M  V30 50 1 25 46
M  V30 51 1 26 47
M  V30 52 1 28 48
M  V30 53 1 29 49
M  V30 54 1 30 50
M  V30 55 1 30 51
M  V30 56 1 31 52
M  V30 57 1 31 53
M  V30 END BOND
M  V30 END CTAB
M  END
>  <Dataset>  (990) 
ChEMBL_Kinases

>  <Ligand_Instance>  (990) 
nan

>  <PDB_ID>  (990) 
nan

>  <Standardized_SMILES>  (990) 
CN1CCN(c2ccc(-c3c(-c4cc(F)c(O)c(F)c4)cnc4[nH]ccc34)cc2)CC1

>  <Name>  (990) 
nan

>  <Pocket>  (990) 
nan

>  <ATP_Site>  (990) 
nan

>  <Peripheral>  (990) 
nan

>  <Num_H_Atoms_ProtBoundConf>  (990) 
nan

>  <Num_Resolved_Atoms>  (990) 
nan

>  <Num_Not_Resolved_Atoms>  (990) 
nan

$$$$
CHEMBL2177155
     RDKit          3D

  0  0  0  0  0  0  0  0  0  0999 V3000
M  V30 BEGIN CTAB
M  V30 COUNTS 58 61 0 0 0
M  V30 BEGIN ATOM
M  V30 1 C 3.962604 -1.455669 2.630534 0
M  V30 2 N 5.275280 -1.031175 2.241638 0
M  V30 3 C 5.527763 0.372900 2.361363 0
M  V30 4 C 5.100378 1.167774 1.173242 0
M  V30 5 N 5.074226 0.450195 -0.033103 0
M  V30 6 S 4.116964 1.010472 -1.294462 0
M  V30 7 O 4.228933 0.092682 -2.460324 0
M  V30 8 O 4.495695 2.412719 -1.655116 0
M  V30 9 C 2.444735 1.012802 -0.771443 0
M  V30 10 C 1.865180 2.106504 -0.160548 0
M  V30 11 C 0.545974 2.070359 0.236926 0
M  V30 12 C -0.265547 0.971409 0.058078 0
M  V30 13 C -1.645814 1.011731 0.497775 0
M  V30 14 C -2.133630 2.130727 1.132550 0
M  V30 15 N -3.387994 2.296225 1.590548 0
M  V30 16 C -4.270584 1.269056 1.417615 0
M  V30 17 N -5.610749 1.417302 1.894506 0
M  V30 18 C -3.847089 0.134157 0.795754 0
M  V30 19 C -4.799710 -0.943199 0.622405 0
M  V30 20 O -5.962970 -0.764975 1.062387 0
M  V30 21 N -4.532971 -2.186340 -0.003069 0
M  V30 22 C -5.358779 -3.307825 -0.234894 0
M  V30 23 C -4.852435 -4.409842 -0.873551 0
M  V30 24 C -5.627944 -5.514299 -1.113589 0
M  V30 25 C -6.938635 -5.596699 -0.740856 0
M  V30 26 N -7.428428 -4.517557 -0.117347 0
M  V30 27 C -6.680527 -3.433457 0.122415 0
M  V30 28 N -2.591199 0.078285 0.384783 0
M  V30 29 C 0.290238 -0.134154 -0.549448 0
M  V30 30 C -0.445717 -1.373279 -0.788024 0
M  V30 31 F 0.363752 -2.295402 -1.437016 0
M  V30 32 F -0.974659 -1.912090 0.364652 0
M  V30 33 F -1.487314 -1.118621 -1.651036 0
M  V30 34 C 1.631912 -0.087264 -0.950016 0
M  V30 35 C 5.760130 -0.757511 -0.157361 0
M  V30 36 C 5.760284 -1.649847 1.045412 0
M  V30 37 H 3.529104 -2.166515 1.878747 0
M  V30 38 H 3.260876 -0.649687 2.853085 0
M  V30 39 H 4.080828 -2.062386 3.554944 0
M  V30 40 H 6.618271 0.517422 2.522241 0
M  V30 41 H 5.004796 0.730064 3.263201 0
M  V30 42 H 5.798053 2.026969 1.061490 0
M  V30 43 H 4.098530 1.641203 1.333210 0
M  V30 44 H 2.528013 2.950508 -0.035597 0
M  V30 45 H 0.265563 3.006184 0.691649 0
M  V30 46 H -1.572456 3.031864 1.350743 0
M  V30 47 H -5.965314 1.382832 2.878876 0
M  V30 48 H -6.404876 1.587606 1.217074 0
M  V30 49 H -3.547193 -2.228124 -0.329289 0
M  V30 50 H -3.820349 -4.428525 -1.203495 0
M  V30 51 H -5.178372 -6.361594 -1.623403 0
M  V30 52 H -7.483805 -6.499106 -0.964581 0
M  V30 53 H -7.179904 -2.639541 0.624482 0
M  V30 54 H 2.081939 -0.964167 -1.435272 0
M  V30 55 H 5.362489 -1.306870 -1.044211 0
M  V30 56 H 6.822878 -0.544665 -0.423321 0
M  V30 57 H 5.089037 -2.509944 0.841791 0
M  V30 58 H 6.755147 -2.067474 1.233523 0
M  V30 END ATOM
M  V30 BEGIN BOND
M  V30 1 1 1 2
M  V30 2 1 2 3
M  V30 3 1 3 4
M  V30 4 1 4 5
M  V30 5 1 5 6
M  V30 6 2 6 7
M  V30 7 2 6 8
M  V30 8 1 6 9
M  V30 9 2 9 10
M  V30 10 1 10 11
M  V30 11 2 11 12
M  V30 12 1 12 13
M  V30 13 2 13 14
M  V30 14 1 14 15
M  V30 15 2 15 16
M  V30 16 1 16 17
M  V30 17 1 16 18
M  V30 18 1 18 19
M  V30 19 2 19 20
M  V30 20 1 19 21
M  V30 21 1 21 22
M  V30 22 2 22 23
M  V30 23 1 23 24
M  V30 24 2 24 25
M  V30 25 1 25 26
M  V30 26 2 26 27
M  V30 27 2 18 28
M  V30 28 1 12 29
M  V30 29 1 29 30
M  V30 30 1 30 31
M  V30 31 1 30 32
M  V30 32 1 30 33
M  V30 33 2 29 34
M  V30 34 1 5 35
M  V30 35 1 35 36
M  V30 36 1 36 2
M  V30 37 1 34 9
M  V30 38 1 28 13
M  V30 39 1 27 22
M  V30 40 1 1 37
M  V30 41 1 1 38
M  V30 42 1 1 39
M  V30 43 1 3 40
M  V30 44 1 3 41
M  V30 45 1 4 42
M  V30 46 1 4 43
M  V30 47 1 10 44
M  V30 48 1 11 45
M  V30 49 1 14 46
M  V30 50 1 17 47
M  V30 51 1 17 48
M  V30 52 1 21 49
M  V30 53 1 23 50
M  V30 54 1 24 51
M  V30 55 1 25 52
M  V30 56 1 27 53
M  V30 57 1 34 54
M  V30 58 1 35 55
M  V30 59 1 35 56
M  V30 60 1 36 57
M  V30 61 1 36 58
M  V30 END BOND
M  V30 END CTAB
M  END
>  <Dataset>  (991) 
ChEMBL_Kinases

>  <Ligand_Instance>  (991) 
nan

>  <PDB_ID>  (991) 
nan

>  <Standardized_SMILES>  (991) 
CN1CCN(S(=O)(=O)c2ccc(-c3cnc(N)c(C(=O)Nc4cccnc4)n3)c(C(F)(F)F)c2)CC1

>  <Name>  (991) 
nan

>  <Pocket>  (991) 
nan

>  <ATP_Site>  (991) 
nan

>  <Peripheral>  (991) 
nan

>  <Num_H_Atoms_ProtBoundConf>  (991) 
nan

>  <Num_Resolved_Atoms>  (991) 
nan

>  <Num_Not_Resolved_Atoms>  (991) 
nan

$$$$
CHEMBL4577857
     RDKit          3D

  0  0  0  0  0  0  0  0  0  0999 V3000
M  V30 BEGIN CTAB
M  V30 COUNTS 39 42 0 0 0
M  V30 BEGIN ATOM
M  V30 1 F -0.875296 -4.150953 3.455272 0
M  V30 2 C 0.285370 -4.088807 2.695515 0
M  V30 3 F 0.172052 -5.013516 1.646449 0
M  V30 4 F 1.380122 -4.476054 3.417761 0
M  V30 5 C 0.453107 -2.698285 2.066698 0
M  V30 6 N -0.651486 -2.371849 1.202646 0
M  V30 7 C -0.704370 -1.155360 0.520686 0
M  V30 8 N 0.219496 -0.204467 0.588703 0
M  V30 9 C 0.175464 0.970680 -0.065414 0
M  V30 10 C 1.223902 1.980433 0.047769 0
M  V30 11 C 2.351272 1.828600 0.827152 0
M  V30 12 C 3.344755 2.777849 0.938019 0
M  V30 13 N 3.232670 3.933916 0.253756 0
M  V30 14 C 2.158832 4.146768 -0.524916 0
M  V30 15 C 1.183621 3.187906 -0.619336 0
M  V30 16 N -0.865117 1.291114 -0.884056 0
M  V30 17 C -1.850581 0.382788 -1.013116 0
M  V30 18 C -2.894425 0.700633 -1.832419 0
M  V30 19 N -3.914497 -0.185966 -1.994616 0
M  V30 20 C -3.885907 -1.383615 -1.338134 0
M  V30 21 C -2.815431 -1.648157 -0.530677 0
M  V30 22 C -1.745531 -0.803653 -0.315015 0
M  V30 23 C 1.822770 -2.499557 1.568940 0
M  V30 24 C 2.198174 -1.907203 2.903791 0
M  V30 25 C 0.727605 -1.699739 3.161529 0
M  V30 26 H -1.399370 -3.091729 1.119543 0
M  V30 27 H 2.485996 0.922409 1.392283 0
M  V30 28 H 4.219416 2.601097 1.574063 0
M  V30 29 H 2.061702 5.084694 -1.083906 0
M  V30 30 H 0.322029 3.396802 -1.264363 0
M  V30 31 H -2.927854 1.651961 -2.360557 0
M  V30 32 H -4.714135 -2.049363 -1.498691 0
M  V30 33 H -2.880837 -2.614441 -0.056080 0
M  V30 34 H 2.011802 -1.743627 0.780034 0
M  V30 35 H 2.371407 -3.458267 1.423979 0
M  V30 36 H 2.779666 -0.957918 2.835832 0
M  V30 37 H 2.663913 -2.627387 3.625637 0
M  V30 38 H 0.457082 -0.650359 2.905417 0
M  V30 39 H 0.409577 -2.018181 4.175938 0
M  V30 END ATOM
M  V30 BEGIN BOND
M  V30 1 1 1 2
M  V30 2 1 2 3
M  V30 3 1 2 4
M  V30 4 1 2 5
M  V30 5 1 5 6
M  V30 6 1 6 7
M  V30 7 2 7 8
M  V30 8 1 8 9
M  V30 9 1 9 10
M  V30 10 2 10 11
M  V30 11 1 11 12
M  V30 12 2 12 13
M  V30 13 1 13 14
M  V30 14 2 14 15
M  V30 15 2 9 16
M  V30 16 1 16 17
M  V30 17 2 17 18
M  V30 18 1 18 19
M  V30 19 2 19 20
M  V30 20 1 20 21
M  V30 21 2 21 22
M  V30 22 1 5 23
M  V30 23 1 23 24
M  V30 24 1 24 25
M  V30 25 1 25 5
M  V30 26 1 22 7
M  V30 27 1 15 10
M  V30 28 1 22 17
M  V30 29 1 6 26
M  V30 30 1 11 27
M  V30 31 1 12 28
M  V30 32 1 14 29
M  V30 33 1 15 30
M  V30 34 1 18 31
M  V30 35 1 20 32
M  V30 36 1 21 33
M  V30 37 1 23 34
M  V30 38 1 23 35
M  V30 39 1 24 36
M  V30 40 1 24 37
M  V30 41 1 25 38
M  V30 42 1 25 39
M  V30 END BOND
M  V30 END CTAB
M  END
>  <Dataset>  (992) 
ChEMBL_Kinases

>  <Ligand_Instance>  (992) 
nan

>  <PDB_ID>  (992) 
nan

>  <Standardized_SMILES>  (992) 
FC(F)(F)C1(Nc2nc(-c3ccncc3)nc3cnccc23)CCC1

>  <Name>  (992) 
nan

>  <Pocket>  (992) 
nan

>  <ATP_Site>  (992) 
nan

>  <Peripheral>  (992) 
nan

>  <Num_H_Atoms_ProtBoundConf>  (992) 
nan

>  <Num_Resolved_Atoms>  (992) 
nan

>  <Num_Not_Resolved_Atoms>  (992) 
nan

$$$$
CHEMBL2170418
     RDKit          3D

  0  0  0  0  0  0  0  0  0  0999 V3000
M  V30 BEGIN CTAB
M  V30 COUNTS 39 42 0 0 0
M  V30 BEGIN ATOM
M  V30 1 Cl 0.744613 -3.815771 -0.784584 0
M  V30 2 C 1.942070 -3.038785 0.234993 0
M  V30 3 C 2.028604 -3.337743 1.591721 0
M  V30 4 C 2.976815 -2.736768 2.413853 0
M  V30 5 C 3.864309 -1.813168 1.869105 0
M  V30 6 C 3.741382 -1.545022 0.509396 0
M  V30 7 C 2.806349 -2.126933 -0.335047 0
M  V30 8 N 2.778689 -1.772647 -1.729345 0
M  V30 9 C 1.576555 -1.165329 -2.212825 0
M  V30 10 N 1.139922 -0.160083 -1.433973 0
M  V30 11 C 0.022253 0.530121 -1.690819 0
M  V30 12 N -0.747966 1.595349 -1.136641 0
M  V30 13 C -1.143095 1.423536 0.237082 0
M  V30 14 C -0.408716 0.679227 1.140150 0
M  V30 15 C -0.843043 0.487193 2.435780 0
M  V30 16 C -2.059621 1.084277 2.778266 0
M  V30 17 C -2.480844 0.869564 4.152646 0
M  V30 18 N -3.600299 1.172647 4.768915 0
M  V30 19 N -3.687953 0.810516 6.020549 0
M  V30 20 N -2.505562 0.192742 6.310164 0
M  V30 21 N -1.822227 0.253553 5.161964 0
M  V30 22 C -2.826439 1.835752 1.912624 0
M  V30 23 C -2.354415 2.008622 0.611877 0
M  V30 24 N -0.684229 0.169996 -2.808631 0
M  V30 25 C -0.289552 -0.826886 -3.620580 0
M  V30 26 C 0.855290 -1.513556 -3.328972 0
M  V30 27 Cl 1.538118 -2.849365 -4.266542 0
M  V30 28 H 1.354731 -4.053832 2.059866 0
M  V30 29 H 3.066881 -2.949306 3.480181 0
M  V30 30 H 4.603207 -1.330882 2.479126 0
M  V30 31 H 4.435450 -0.825560 0.067710 0
M  V30 32 H 3.661315 -1.997131 -2.258933 0
M  V30 33 H -1.019541 2.460911 -1.639933 0
M  V30 34 H 0.528522 0.238678 0.812279 0
M  V30 35 H -0.257338 -0.103167 3.139920 0
M  V30 36 H -0.837706 -0.162284 5.086786 0
M  V30 37 H -3.753605 2.243767 2.311108 0
M  V30 38 H -2.967654 2.607060 -0.067529 0
M  V30 39 H -0.788305 -1.180098 -4.525594 0
M  V30 END ATOM
M  V30 BEGIN BOND
M  V30 1 1 1 2
M  V30 2 2 2 3
M  V30 3 1 3 4
M  V30 4 2 4 5
M  V30 5 1 5 6
M  V30 6 2 6 7
M  V30 7 1 7 8
M  V30 8 1 8 9
M  V30 9 2 9 10
M  V30 10 1 10 11
M  V30 11 1 11 12
M  V30 12 1 12 13
M  V30 13 2 13 14
M  V30 14 1 14 15
M  V30 15 2 15 16
M  V30 16 1 16 17
M  V30 17 2 17 18
M  V30 18 1 18 19
M  V30 19 2 19 20
M  V30 20 1 20 21
M  V30 21 1 16 22
M  V30 22 2 22 23
M  V30 23 2 11 24
M  V30 24 1 24 25
M  V30 25 2 25 26
M  V30 26 1 26 27
M  V30 27 1 7 2
M  V30 28 1 26 9
M  V30 29 1 23 13
M  V30 30 1 21 17
M  V30 31 1 3 28
M  V30 32 1 4 29
M  V30 33 1 5 30
M  V30 34 1 6 31
M  V30 35 1 8 32
M  V30 36 1 12 33
M  V30 37 1 14 34
M  V30 38 1 15 35
M  V30 39 1 21 36
M  V30 40 1 22 37
M  V30 41 1 23 38
M  V30 42 1 25 39
M  V30 END BOND
M  V30 END CTAB
M  END
>  <Dataset>  (993) 
ChEMBL_Kinases

>  <Ligand_Instance>  (993) 
nan

>  <PDB_ID>  (993) 
nan

>  <Standardized_SMILES>  (993) 
Clc1ccccc1Nc1nc(Nc2ccc(-c3nnn[nH]3)cc2)ncc1Cl

>  <Name>  (993) 
nan

>  <Pocket>  (993) 
nan

>  <ATP_Site>  (993) 
nan

>  <Peripheral>  (993) 
nan

>  <Num_H_Atoms_ProtBoundConf>  (993) 
nan

>  <Num_Resolved_Atoms>  (993) 
nan

>  <Num_Not_Resolved_Atoms>  (993) 
nan

$$$$
CHEMBL3040440
     RDKit          3D

  0  0  0  0  0  0  0  0  0  0999 V3000
M  V30 BEGIN CTAB
M  V30 COUNTS 62 65 0 0 0
M  V30 BEGIN ATOM
M  V30 1 C 4.421417 -1.945602 2.101124 0
M  V30 2 N 4.723510 -0.591953 1.695108 0
M  V30 3 C 3.849761 0.443155 1.290931 0
M  V30 4 O 2.688344 -0.022080 1.343335 0
M  V30 5 C 4.335831 1.753347 0.912237 0
M  V30 6 C 5.678387 2.025119 0.896831 0
M  V30 7 C 6.038012 3.294151 0.505444 0
M  V30 8 C 5.180559 4.314639 0.128777 0
M  V30 9 C 3.835797 3.963174 0.170088 0
M  V30 10 C 3.397634 2.687945 0.560086 0
M  V30 11 N 1.991399 2.619239 0.524638 0
M  V30 12 C 0.833752 2.387739 1.303661 0
M  V30 13 C -0.116143 1.395863 1.064788 0
M  V30 14 C -1.232505 1.163549 1.815486 0
M  V30 15 N -2.167345 0.147286 1.597802 0
M  V30 16 C -2.315335 -1.050763 0.915511 0
M  V30 17 C -1.354254 -1.729240 0.193194 0
M  V30 18 C -1.476453 -2.893125 -0.530352 0
M  V30 19 C -2.745892 -3.423302 -0.505644 0
M  V30 20 N -3.078393 -4.636915 -1.181715 0
M  V30 21 C -4.457125 -5.014491 -1.546372 0
M  V30 22 C -4.511576 -5.569628 -2.930041 0
M  V30 23 O -3.384456 -5.243041 -3.681892 0
M  V30 24 C -2.229058 -5.732926 -3.130734 0
M  V30 25 C -2.223572 -5.722151 -1.620610 0
M  V30 26 C -3.780095 -2.841303 0.177224 0
M  V30 27 C -3.573434 -1.674706 0.877353 0
M  V30 28 O -4.628924 -1.094872 1.563965 0
M  V30 29 C -5.892365 -1.709829 1.529149 0
M  V30 30 N -1.351903 1.996879 2.840874 0
M  V30 31 C -0.518650 2.982383 3.176915 0
M  V30 32 C 0.590776 3.181630 2.397770 0
M  V30 33 C 1.471230 4.291854 2.840586 0
M  V30 34 F 2.727633 3.825089 3.140313 0
M  V30 35 F 0.974284 4.912931 3.994625 0
M  V30 36 F 1.482625 5.282559 1.874717 0
M  V30 37 H 3.360678 -2.220480 1.922927 0
M  V30 38 H 5.010990 -2.664224 1.463976 0
M  V30 39 H 4.602938 -2.123615 3.192551 0
M  V30 40 H 5.767027 -0.486709 1.753444 0
M  V30 41 H 6.441224 1.315128 1.168739 0
M  V30 42 H 7.102941 3.516922 0.491040 0
M  V30 43 H 5.537757 5.283352 -0.165592 0
M  V30 44 H 3.187759 4.799251 -0.139981 0
M  V30 45 H 1.550751 2.799155 -0.428477 0
M  V30 46 H 0.145447 0.838088 0.183808 0
M  V30 47 H -3.048648 0.406552 2.151926 0
M  V30 48 H -0.346496 -1.350379 0.166160 0
M  V30 49 H -0.676894 -3.365910 -1.072973 0
M  V30 50 H -4.819804 -5.786814 -0.836330 0
M  V30 51 H -5.145042 -4.138198 -1.502444 0
M  V30 52 H -4.692013 -6.654781 -2.906132 0
M  V30 53 H -5.378161 -5.089243 -3.463188 0
M  V30 54 H -2.140332 -6.791381 -3.473529 0
M  V30 55 H -1.361566 -5.141364 -3.489235 0
M  V30 56 H -2.587087 -6.702445 -1.217303 0
M  V30 57 H -1.172829 -5.632587 -1.258369 0
M  V30 58 H -4.783336 -3.244345 0.215145 0
M  V30 59 H -5.850684 -2.771272 1.888983 0
M  V30 60 H -6.303773 -1.760441 0.494770 0
M  V30 61 H -6.624120 -1.196284 2.199694 0
M  V30 62 H -0.761384 3.567181 4.038928 0
M  V30 END ATOM
M  V30 BEGIN BOND
M  V30 1 1 1 2
M  V30 2 1 2 3
M  V30 3 2 3 4
M  V30 4 1 3 5
M  V30 5 2 5 6
M  V30 6 1 6 7
M  V30 7 2 7 8
M  V30 8 1 8 9
M  V30 9 2 9 10
M  V30 10 1 10 11
M  V30 11 1 11 12
M  V30 12 2 12 13
M  V30 13 1 13 14
M  V30 14 1 14 15
M  V30 15 1 15 16
M  V30 16 2 16 17
M  V30 17 1 17 18
M  V30 18 2 18 19
M  V30 19 1 19 20
M  V30 20 1 20 21
M  V30 21 1 21 22
M  V30 22 1 22 23
M  V30 23 1 23 24
M  V30 24 1 24 25
M  V30 25 1 19 26
M  V30 26 2 26 27
M  V30 27 1 27 28
M  V30 28 1 28 29
M  V30 29 2 14 30
M  V30 30 1 30 31
M  V30 31 2 31 32
M  V30 32 1 32 33
M  V30 33 1 33 34
M  V30 34 1 33 35
M  V30 35 1 33 36
M  V30 36 1 10 5
M  V30 37 1 32 12
M  V30 38 1 27 16
M  V30 39 1 25 20
M  V30 40 1 1 37
M  V30 41 1 1 38
M  V30 42 1 1 39
M  V30 43 1 2 40
M  V30 44 1 6 41
M  V30 45 1 7 42
M  V30 46 1 8 43
M  V30 47 1 9 44
M  V30 48 1 11 45
M  V30 49 1 13 46
M  V30 50 1 15 47
M  V30 51 1 17 48
M  V30 52 1 18 49
M  V30 53 1 21 50
M  V30 54 1 21 51
M  V30 55 1 22 52
M  V30 56 1 22 53
M  V30 57 1 24 54
M  V30 58 1 24 55
M  V30 59 1 25 56
M  V30 60 1 25 57
M  V30 61 1 26 58
M  V30 62 1 29 59
M  V30 63 1 29 60
M  V30 64 1 29 61
M  V30 65 1 31 62
M  V30 END BOND
M  V30 END CTAB
M  END
>  <Dataset>  (994) 
ChEMBL_Kinases

>  <Ligand_Instance>  (994) 
nan

>  <PDB_ID>  (994) 
nan

>  <Standardized_SMILES>  (994) 
CNC(=O)c1ccccc1Nc1cc(Nc2ccc(N3CCOCC3)cc2OC)ncc1C(F)(F)F

>  <Name>  (994) 
VS-4718

>  <Pocket>  (994) 
nan

>  <ATP_Site>  (994) 
nan

>  <Peripheral>  (994) 
nan

>  <Num_H_Atoms_ProtBoundConf>  (994) 
nan

>  <Num_Resolved_Atoms>  (994) 
nan

>  <Num_Not_Resolved_Atoms>  (994) 
nan

$$$$
CHEMBL4290876
     RDKit          3D

  0  0  0  0  0  0  0  0  0  0999 V3000
M  V30 BEGIN CTAB
M  V30 COUNTS 50 51 0 0 0
M  V30 BEGIN ATOM
M  V30 1 C 2.848014 -5.975666 4.091486 0
M  V30 2 N 2.902483 -5.376736 2.761809 0
M  V30 3 C 2.323173 -4.145732 2.408308 0
M  V30 4 O 1.675966 -3.372171 3.160901 0
M  V30 5 N 2.426317 -3.631827 1.073183 0
M  V30 6 C 1.821711 -2.388526 0.783343 0
M  V30 7 S 2.834411 -0.915262 1.011392 0
M  V30 8 C 1.526429 0.235058 0.495863 0
M  V30 9 C 1.546567 1.622889 0.401772 0
M  V30 10 C 2.760404 2.383972 0.748754 0
M  V30 11 C 3.680084 2.573120 -0.438647 0
M  V30 12 C 3.467924 1.737176 1.915887 0
M  V30 13 C 0.406356 2.270799 -0.022307 0
M  V30 14 C -0.675200 1.455833 -0.320760 0
M  V30 15 N -1.837306 2.162714 -0.753957 0
M  V30 16 S -3.423731 1.863145 -0.199532 0
M  V30 17 O -4.400656 2.857068 -0.753551 0
M  V30 18 O -3.501914 2.035569 1.313422 0
M  V30 19 N -3.865473 0.244752 -0.610131 0
M  V30 20 C -4.497164 0.183332 -1.920093 0
M  V30 21 C -4.894050 -0.184283 0.346461 0
M  V30 22 C -0.684146 0.086862 -0.224353 0
M  V30 23 C 0.455382 -0.565549 0.199827 0
M  V30 24 C 0.647058 -1.906763 0.360256 0
M  V30 25 C -0.343280 -2.946062 0.108216 0
M  V30 26 N -1.660683 -2.774364 -0.339643 0
M  V30 27 O -0.108627 -4.164504 0.274017 0
M  V30 28 H 3.749841 -5.787309 4.691920 0
M  V30 29 H 2.005228 -5.515002 4.684621 0
M  V30 30 H 2.645469 -7.060769 4.068825 0
M  V30 31 H 3.417311 -5.929563 2.043950 0
M  V30 32 H 2.947175 -4.183693 0.332653 0
M  V30 33 H 2.466895 3.412201 1.065744 0
M  V30 34 H 3.430207 3.512416 -0.976890 0
M  V30 35 H 4.725275 2.638150 -0.081708 0
M  V30 36 H 3.578582 1.735334 -1.148191 0
M  V30 37 H 2.706599 1.161600 2.480994 0
M  V30 38 H 3.856792 2.526648 2.597995 0
M  V30 39 H 4.310059 1.080104 1.582735 0
M  V30 40 H 0.405572 3.346748 -0.100697 0
M  V30 41 H -1.706653 2.918048 -1.462882 0
M  V30 42 H -5.604433 0.162554 -1.855048 0
M  V30 43 H -4.062346 -0.585327 -2.576468 0
M  V30 44 H -4.265158 1.167545 -2.419973 0
M  V30 45 H -4.365013 -0.510793 1.255636 0
M  V30 46 H -5.548477 -0.975625 -0.069987 0
M  V30 47 H -5.472246 0.728997 0.598535 0
M  V30 48 H -1.596134 -0.411202 -0.490585 0
M  V30 49 H -2.312667 -2.610054 0.454713 0
M  V30 50 H -1.840405 -2.827289 -1.378549 0
M  V30 END ATOM
M  V30 BEGIN BOND
M  V30 1 1 1 2
M  V30 2 1 2 3
M  V30 3 2 3 4
M  V30 4 1 3 5
M  V30 5 1 5 6
M  V30 6 1 6 7
M  V30 7 1 7 8
M  V30 8 2 8 9
M  V30 9 1 9 10
M  V30 10 1 10 11
M  V30 11 1 10 12
M  V30 12 1 9 13
M  V30 13 2 13 14
M  V30 14 1 14 15
M  V30 15 1 15 16
M  V30 16 2 16 17
M  V30 17 2 16 18
M  V30 18 1 16 19
M  V30 19 1 19 20
M  V30 20 1 19 21
M  V30 21 1 14 22
M  V30 22 2 22 23
M  V30 23 1 23 24
M  V30 24 1 24 25
M  V30 25 1 25 26
M  V30 26 2 25 27
M  V30 27 2 24 6
M  V30 28 1 23 8
M  V30 29 1 1 28
M  V30 30 1 1 29
M  V30 31 1 1 30
M  V30 32 1 2 31
M  V30 33 1 5 32
M  V30 34 1 10 33
M  V30 35 1 11 34
M  V30 36 1 11 35
M  V30 37 1 11 36
M  V30 38 1 12 37
M  V30 39 1 12 38
M  V30 40 1 12 39
M  V30 41 1 13 40
M  V30 42 1 15 41
M  V30 43 1 20 42
M  V30 44 1 20 43
M  V30 45 1 20 44
M  V30 46 1 21 45
M  V30 47 1 21 46
M  V30 48 1 21 47
M  V30 49 1 22 48
M  V30 50 1 26 49
M  V30 51 1 26 50
M  V30 END BOND
M  V30 END CTAB
M  END
>  <Dataset>  (995) 
ChEMBL_Kinases

>  <Ligand_Instance>  (995) 
nan

>  <PDB_ID>  (995) 
nan

>  <Standardized_SMILES>  (995) 
CNC(=O)Nc1sc2c(C(C)C)cc(NS(=O)(=O)N(C)C)cc2c1C(N)=O

>  <Name>  (995) 
nan

>  <Pocket>  (995) 
nan

>  <ATP_Site>  (995) 
nan

>  <Peripheral>  (995) 
nan

>  <Num_H_Atoms_ProtBoundConf>  (995) 
nan

>  <Num_Resolved_Atoms>  (995) 
nan

>  <Num_Not_Resolved_Atoms>  (995) 
nan

$$$$
CHEMBL3685254
     RDKit          3D

  0  0  0  0  0  0  0  0  0  0999 V3000
M  V30 BEGIN CTAB
M  V30 COUNTS 54 57 0 0 0
M  V30 BEGIN ATOM
M  V30 1 N 4.425483 -3.908014 5.761493 0
M  V30 2 C 3.631494 -3.521478 4.653712 0
M  V30 3 O 2.550021 -4.151391 4.542883 0
M  V30 4 C 4.051860 -2.477120 3.730214 0
M  V30 5 C 5.257692 -1.841753 3.934529 0
M  V30 6 C 5.599866 -0.871806 3.037960 0
M  V30 7 C 4.761047 -0.564838 1.990484 0
M  V30 8 C 3.557581 -1.180430 1.764173 0
M  V30 9 C 2.754672 -0.835231 0.699537 0
M  V30 10 N 3.111331 0.164692 -0.228067 0
M  V30 11 C 2.351114 0.604246 -1.369257 0
M  V30 12 C 1.064154 1.179839 -0.916292 0
M  V30 13 C 1.229133 2.532643 -0.600691 0
M  V30 14 C 0.159659 3.311916 -0.154487 0
M  V30 15 C -1.096543 2.749869 -0.015950 0
M  V30 16 C -1.234429 1.428151 -0.329810 0
M  V30 17 N -2.497311 0.775571 -0.213401 0
M  V30 18 C -3.561716 0.606063 -1.141307 0
M  V30 19 O -3.407405 1.102963 -2.280371 0
M  V30 20 C -4.662437 -0.173731 -0.470886 0
M  V30 21 C -5.757406 -0.323795 -1.490631 0
M  V30 22 C -5.948398 -1.725158 -1.987939 0
M  V30 23 C -4.656324 -2.343037 -2.460618 0
M  V30 24 N -3.564679 -1.907126 -1.625922 0
M  V30 25 C -4.047843 -1.568485 -0.280968 0
M  V30 26 C -0.188172 0.646287 -0.771622 0
M  V30 27 N 1.621551 -1.547200 0.646578 0
M  V30 28 C 1.259383 -2.504404 1.511636 0
M  V30 29 N 2.064386 -2.819170 2.541159 0
M  V30 30 C 3.236432 -2.146215 2.672670 0
M  V30 31 H 4.116121 -3.883937 6.757112 0
M  V30 32 H 5.401812 -4.240510 5.512632 0
M  V30 33 H 5.847814 -2.148647 4.781418 0
M  V30 34 H 6.560183 -0.372666 3.208966 0
M  V30 35 H 5.138012 0.215865 1.350824 0
M  V30 36 H 3.996516 0.692020 -0.157720 0
M  V30 37 H 2.056680 -0.342427 -1.922594 0
M  V30 38 H 2.886369 1.265113 -2.053761 0
M  V30 39 H 2.140034 3.116831 -0.655047 0
M  V30 40 H 0.234645 4.356314 0.101069 0
M  V30 41 H -1.989659 3.264038 0.321185 0
M  V30 42 H -2.412013 0.443460 0.793171 0
M  V30 43 H -4.960345 0.272429 0.476749 0
M  V30 44 H -5.636120 0.338307 -2.379356 0
M  V30 45 H -6.704630 0.006948 -1.019337 0
M  V30 46 H -6.617433 -1.656584 -2.871155 0
M  V30 47 H -6.450224 -2.321261 -1.194136 0
M  V30 48 H -4.445489 -2.098088 -3.515448 0
M  V30 49 H -4.733813 -3.460084 -2.396224 0
M  V30 50 H -2.750031 -2.546831 -1.614941 0
M  V30 51 H -3.160951 -1.460383 0.375843 0
M  V30 52 H -4.779027 -2.284841 0.094786 0
M  V30 53 H -0.218998 -0.396740 -1.045369 0
M  V30 54 H 0.307306 -2.973635 1.311223 0
M  V30 END ATOM
M  V30 BEGIN BOND
M  V30 1 1 1 2
M  V30 2 2 2 3
M  V30 3 1 2 4
M  V30 4 2 4 5
M  V30 5 1 5 6
M  V30 6 2 6 7
M  V30 7 1 7 8
M  V30 8 2 8 9
M  V30 9 1 9 10
M  V30 10 1 10 11
M  V30 11 1 11 12
M  V30 12 2 12 13
M  V30 13 1 13 14
M  V30 14 2 14 15
M  V30 15 1 15 16
M  V30 16 1 16 17
M  V30 17 1 17 18
M  V30 18 2 18 19
M  V30 19 1 18 20
M  V30 20 1 20 21
M  V30 21 1 21 22
M  V30 22 1 22 23
M  V30 23 1 23 24
M  V30 24 1 24 25
M  V30 25 2 16 26
M  V30 26 1 9 27
M  V30 27 2 27 28
M  V30 28 1 28 29
M  V30 29 2 29 30
M  V30 30 1 30 4
M  V30 31 1 30 8
M  V30 32 1 26 12
M  V30 33 1 25 20
M  V30 34 1 1 31
M  V30 35 1 1 32
M  V30 36 1 5 33
M  V30 37 1 6 34
M  V30 38 1 7 35
M  V30 39 1 10 36
M  V30 40 1 11 37
M  V30 41 1 11 38
M  V30 42 1 13 39
M  V30 43 1 14 40
M  V30 44 1 15 41
M  V30 45 1 17 42
M  V30 46 1 20 43
M  V30 47 1 21 44
M  V30 48 1 21 45
M  V30 49 1 22 46
M  V30 50 1 22 47
M  V30 51 1 23 48
M  V30 52 1 23 49
M  V30 53 1 24 50
M  V30 54 1 25 51
M  V30 55 1 25 52
M  V30 56 1 26 53
M  V30 57 1 28 54
M  V30 END BOND
M  V30 END CTAB
M  END
>  <Dataset>  (996) 
ChEMBL_Kinases

>  <Ligand_Instance>  (996) 
nan

>  <PDB_ID>  (996) 
nan

>  <Standardized_SMILES>  (996) 
NC(=O)c1cccc2c(NCc3cccc(NC(=O)C4CCCNC4)c3)ncnc12

>  <Name>  (996) 
nan

>  <Pocket>  (996) 
nan

>  <ATP_Site>  (996) 
nan

>  <Peripheral>  (996) 
nan

>  <Num_H_Atoms_ProtBoundConf>  (996) 
nan

>  <Num_Resolved_Atoms>  (996) 
nan

>  <Num_Not_Resolved_Atoms>  (996) 
nan

$$$$
CHEMBL4290758
     RDKit          3D

  0  0  0  0  0  0  0  0  0  0999 V3000
M  V30 BEGIN CTAB
M  V30 COUNTS 37 40 0 0 0
M  V30 BEGIN ATOM
M  V30 1 C 3.050600 -5.262272 3.666758 0
M  V30 2 S 3.767606 -4.054749 2.554265 0
M  V30 3 C 2.570223 -2.935482 1.889812 0
M  V30 4 N 1.235851 -2.973936 2.184407 0
M  V30 5 C 0.348256 -2.109953 1.660364 0
M  V30 6 C 0.893000 -1.182927 0.797862 0
M  V30 7 C 2.231408 -1.111466 0.483904 0
M  V30 8 N 3.105924 -2.008457 1.036689 0
M  V30 9 N 2.923712 -0.113011 -0.301993 0
M  V30 10 C 2.424904 1.249379 -0.272452 0
M  V30 11 N 3.278140 2.323144 -0.321053 0
M  V30 12 N 2.509782 3.424933 -0.247516 0
M  V30 13 C 1.184999 3.091347 -0.153482 0
M  V30 14 C 0.033760 3.988531 -0.053511 0
M  V30 15 C 1.104913 1.722530 -0.168649 0
M  V30 16 N -0.031718 0.873733 -0.149115 0
M  V30 17 C -0.167757 -0.362865 0.245457 0
M  V30 18 C -1.503753 -0.870482 0.046383 0
M  V30 19 C -2.489415 0.069907 -0.285617 0
M  V30 20 C -3.799343 -0.204777 -0.607306 0
M  V30 21 C -4.224838 -1.512154 -0.616533 0
M  V30 22 C -3.330195 -2.510150 -0.305613 0
M  V30 23 Cl -3.775878 -4.201250 -0.290564 0
M  V30 24 C -2.052288 -2.122094 -0.002370 0
M  V30 25 H 2.715639 -4.834636 4.648713 0
M  V30 26 H 2.121500 -5.732959 3.250614 0
M  V30 27 H 3.765354 -6.095204 3.794090 0
M  V30 28 H -0.694994 -2.072769 1.915845 0
M  V30 29 H 3.758403 -0.394329 -0.834878 0
M  V30 30 H 2.938701 4.371660 -0.266133 0
M  V30 31 H -0.381110 3.902251 0.973831 0
M  V30 32 H -0.785028 3.644440 -0.735033 0
M  V30 33 H 0.286470 5.050920 -0.223267 0
M  V30 34 H -2.285390 1.141768 -0.315430 0
M  V30 35 H -4.526320 0.553318 -0.856557 0
M  V30 36 H -5.242595 -1.765056 -0.862230 0
M  V30 37 H -1.360874 -2.933308 0.163276 0
M  V30 END ATOM
M  V30 BEGIN BOND
M  V30 1 1 1 2
M  V30 2 1 2 3
M  V30 3 2 3 4
M  V30 4 1 4 5
M  V30 5 2 5 6
M  V30 6 1 6 7
M  V30 7 2 7 8
M  V30 8 1 7 9
M  V30 9 1 9 10
M  V30 10 2 10 11
M  V30 11 1 11 12
M  V30 12 1 12 13
M  V30 13 1 13 14
M  V30 14 2 13 15
M  V30 15 1 15 16
M  V30 16 2 16 17
M  V30 17 1 17 18
M  V30 18 2 18 19
M  V30 19 1 19 20
M  V30 20 2 20 21
M  V30 21 1 21 22
M  V30 22 1 22 23
M  V30 23 2 22 24
M  V30 24 1 8 3
M  V30 25 1 15 10
M  V30 26 1 24 18
M  V30 27 1 17 6
M  V30 28 1 1 25
M  V30 29 1 1 26
M  V30 30 1 1 27
M  V30 31 1 5 28
M  V30 32 1 9 29
M  V30 33 1 12 30
M  V30 34 1 14 31
M  V30 35 1 14 32
M  V30 36 1 14 33
M  V30 37 1 19 34
M  V30 38 1 20 35
M  V30 39 1 21 36
M  V30 40 1 24 37
M  V30 END BOND
M  V30 END CTAB
M  END
>  <Dataset>  (997) 
ChEMBL_Kinases

>  <Ligand_Instance>  (997) 
nan

>  <PDB_ID>  (997) 
nan

>  <Standardized_SMILES>  (997) 
CSc1ncc2c(n1)Nc1n[nH]c(C)c1N=C2c1cccc(Cl)c1

>  <Name>  (997) 
nan

>  <Pocket>  (997) 
nan

>  <ATP_Site>  (997) 
nan

>  <Peripheral>  (997) 
nan

>  <Num_H_Atoms_ProtBoundConf>  (997) 
nan

>  <Num_Resolved_Atoms>  (997) 
nan

>  <Num_Not_Resolved_Atoms>  (997) 
nan

$$$$
CHEMBL4290720
     RDKit          3D

  0  0  0  0  0  0  0  0  0  0999 V3000
M  V30 BEGIN CTAB
M  V30 COUNTS 37 40 0 0 0
M  V30 BEGIN ATOM
M  V30 1 N -0.285194 -5.796041 3.555990 0
M  V30 2 C -0.242124 -4.417326 3.210157 0
M  V30 3 N 0.072515 -4.127193 1.928216 0
M  V30 4 C 0.146134 -2.847345 1.474001 0
M  V30 5 O 0.455008 -2.610463 0.221656 0
M  V30 6 C 0.543438 -1.408594 -0.281229 0
M  V30 7 C 0.867790 -1.146533 -1.598029 0
M  V30 8 C 0.954299 0.119708 -2.101505 0
M  V30 9 C 0.715474 1.212242 -1.295568 0
M  V30 10 C 0.766549 2.664953 -1.683560 0
M  V30 11 C -0.125590 2.978138 -2.856465 0
M  V30 12 C 1.099589 3.137875 -3.718606 0
M  V30 13 C 1.953567 3.056653 -2.479232 0
M  V30 14 C 0.389652 0.911025 0.032047 0
M  V30 15 C 0.293486 -0.354643 0.573678 0
M  V30 16 C -0.038157 -0.504452 1.905034 0
M  V30 17 O -0.260229 0.465492 2.660316 0
M  V30 18 C -0.116346 -1.817955 2.381593 0
M  V30 19 C -0.442687 -2.052777 3.702791 0
M  V30 20 C -0.495976 -3.378903 4.082459 0
M  V30 21 C -0.830391 -3.747740 5.452869 0
M  V30 22 O -0.871161 -4.963809 5.769306 0
M  V30 23 O -1.114673 -2.841448 6.462227 0
M  V30 24 H 0.694689 -5.865869 3.934545 0
M  V30 25 H -0.930336 -6.611909 3.532829 0
M  V30 26 H 1.064010 -1.983926 -2.267882 0
M  V30 27 H 1.204400 0.357007 -3.120738 0
M  V30 28 H 0.536591 3.348487 -0.837953 0
M  V30 29 H -0.740926 3.894713 -2.729326 0
M  V30 30 H -0.725373 2.090408 -3.213931 0
M  V30 31 H 1.076641 4.152735 -4.187909 0
M  V30 32 H 1.236295 2.331795 -4.470993 0
M  V30 33 H 2.716519 2.263477 -2.602993 0
M  V30 34 H 2.404977 4.029816 -2.157131 0
M  V30 35 H 0.191399 1.750449 0.709733 0
M  V30 36 H -0.643399 -1.256273 4.395634 0
M  V30 37 H -1.922812 -2.988198 7.060940 0
M  V30 END ATOM
M  V30 BEGIN BOND
M  V30 1 1 1 2
M  V30 2 2 2 3
M  V30 3 1 3 4
M  V30 4 1 4 5
M  V30 5 1 5 6
M  V30 6 2 6 7
M  V30 7 1 7 8
M  V30 8 2 8 9
M  V30 9 1 9 10
M  V30 10 1 10 11
M  V30 11 1 11 12
M  V30 12 1 12 13
M  V30 13 1 9 14
M  V30 14 2 14 15
M  V30 15 1 15 16
M  V30 16 2 16 17
M  V30 17 1 16 18
M  V30 18 1 18 19
M  V30 19 2 19 20
M  V30 20 1 20 21
M  V30 21 2 21 22
M  V30 22 1 21 23
M  V30 23 1 20 2
M  V30 24 2 18 4
M  V30 25 1 15 6
M  V30 26 1 13 10
M  V30 27 1 1 24
M  V30 28 1 1 25
M  V30 29 1 7 26
M  V30 30 1 8 27
M  V30 31 1 10 28
M  V30 32 1 11 29
M  V30 33 1 11 30
M  V30 34 1 12 31
M  V30 35 1 12 32
M  V30 36 1 13 33
M  V30 37 1 13 34
M  V30 38 1 14 35
M  V30 39 1 19 36
M  V30 40 1 23 37
M  V30 END BOND
M  V30 END CTAB
M  END
>  <Dataset>  (998) 
ChEMBL_Kinases

>  <Ligand_Instance>  (998) 
nan

>  <PDB_ID>  (998) 
nan

>  <Standardized_SMILES>  (998) 
Nc1nc2oc3ccc(C4CCC4)cc3c(=O)c2cc1C(=O)O

>  <Name>  (998) 
nan

>  <Pocket>  (998) 
nan

>  <ATP_Site>  (998) 
nan

>  <Peripheral>  (998) 
nan

>  <Num_H_Atoms_ProtBoundConf>  (998) 
nan

>  <Num_Resolved_Atoms>  (998) 
nan

>  <Num_Not_Resolved_Atoms>  (998) 
nan

$$$$
CHEMBL3685253
     RDKit          3D

  0  0  0  0  0  0  0  0  0  0999 V3000
M  V30 BEGIN CTAB
M  V30 COUNTS 56 59 0 0 0
M  V30 BEGIN ATOM
M  V30 1 C 5.821377 -4.461803 3.632378 0
M  V30 2 O 5.616161 -3.102214 3.969579 0
M  V30 3 C 4.690957 -2.402257 3.205013 0
M  V30 4 C 4.575430 -1.084402 3.627267 0
M  V30 5 C 3.707935 -0.210081 3.002116 0
M  V30 6 C 2.958500 -0.656438 1.956426 0
M  V30 7 C 1.981166 0.114448 1.161774 0
M  V30 8 O 1.285568 -0.294502 0.193397 0
M  V30 9 N 1.715234 1.495473 1.438200 0
M  V30 10 C 0.739752 2.002712 0.534640 0
M  V30 11 C 1.154242 2.562797 -0.655016 0
M  V30 12 C 0.162429 3.035661 -1.486560 0
M  V30 13 C -1.161521 2.935886 -1.113954 0
M  V30 14 C -1.573651 2.365696 0.095534 0
M  V30 15 C -3.047771 2.389066 0.256985 0
M  V30 16 N -3.710433 1.243490 -0.335654 0
M  V30 17 C -5.146750 1.450961 -0.108939 0
M  V30 18 C -3.393682 0.041266 -1.026821 0
M  V30 19 N -3.818806 0.093298 -2.302356 0
M  V30 20 C -3.593819 -0.956329 -3.141720 0
M  V30 21 N -2.942509 -2.052197 -2.692791 0
M  V30 22 C -2.507824 -2.139431 -1.437323 0
M  V30 23 C -1.841171 -3.214988 -0.891498 0
M  V30 24 C -1.573978 -4.355943 -1.733860 0
M  V30 25 N -1.972966 -4.404564 -3.095658 0
M  V30 26 O -0.965966 -5.367609 -1.281799 0
M  V30 27 C -1.439791 -3.205218 0.419823 0
M  V30 28 C -1.682508 -2.117452 1.262310 0
M  V30 29 C -2.350067 -1.032545 0.726948 0
M  V30 30 C -2.736905 -1.077806 -0.592551 0
M  V30 31 C -0.571162 1.897309 0.917323 0
M  V30 32 C 3.062431 -1.965862 1.524452 0
M  V30 33 C 3.928910 -2.846725 2.145690 0
M  V30 34 H 4.864292 -4.987432 3.435222 0
M  V30 35 H 6.375524 -4.439872 2.663304 0
M  V30 36 H 6.366858 -5.034322 4.406836 0
M  V30 37 H 5.131439 -0.628283 4.455664 0
M  V30 38 H 3.558339 0.826606 3.267038 0
M  V30 39 H 2.228326 1.980744 2.229840 0
M  V30 40 H 2.216734 2.591873 -0.850912 0
M  V30 41 H 0.483556 3.475689 -2.420327 0
M  V30 42 H -1.847483 3.351480 -1.868643 0
M  V30 43 H -3.217062 2.427042 1.364867 0
M  V30 44 H -3.460902 3.343049 -0.122545 0
M  V30 45 H -5.310356 1.461056 0.977923 0
M  V30 46 H -5.773570 0.659348 -0.522284 0
M  V30 47 H -5.449165 2.419972 -0.593806 0
M  V30 48 H -3.892312 -1.015770 -4.179803 0
M  V30 49 H -2.791439 -4.659827 -3.693430 0
M  V30 50 H -1.064501 -4.045784 -3.498391 0
M  V30 51 H -0.920247 -4.072524 0.801361 0
M  V30 52 H -1.356610 -2.132913 2.292950 0
M  V30 53 H -2.552706 -0.185148 1.364070 0
M  V30 54 H -0.946487 1.478377 1.829458 0
M  V30 55 H 2.516331 -2.413540 0.710997 0
M  V30 56 H 4.096130 -3.885384 1.900097 0
M  V30 END ATOM
M  V30 BEGIN BOND
M  V30 1 1 1 2
M  V30 2 1 2 3
M  V30 3 2 3 4
M  V30 4 1 4 5
M  V30 5 2 5 6
M  V30 6 1 6 7
M  V30 7 2 7 8
M  V30 8 1 7 9
M  V30 9 1 9 10
M  V30 10 2 10 11
M  V30 11 1 11 12
M  V30 12 2 12 13
M  V30 13 1 13 14
M  V30 14 1 14 15
M  V30 15 1 15 16
M  V30 16 1 16 17
M  V30 17 1 16 18
M  V30 18 2 18 19
M  V30 19 1 19 20
M  V30 20 2 20 21
M  V30 21 1 21 22
M  V30 22 2 22 23
M  V30 23 1 23 24
M  V30 24 1 24 25
M  V30 25 2 24 26
M  V30 26 1 23 27
M  V30 27 2 27 28
M  V30 28 1 28 29
M  V30 29 2 29 30
M  V30 30 2 14 31
M  V30 31 1 6 32
M  V30 32 2 32 33
M  V30 33 1 33 3
M  V30 34 1 31 10
M  V30 35 1 30 18
M  V30 36 1 30 22
M  V30 37 1 1 34
M  V30 38 1 1 35
M  V30 39 1 1 36
M  V30 40 1 4 37
M  V30 41 1 5 38
M  V30 42 1 9 39
M  V30 43 1 11 40
M  V30 44 1 12 41
M  V30 45 1 13 42
M  V30 46 1 15 43
M  V30 47 1 15 44
M  V30 48 1 17 45
M  V30 49 1 17 46
M  V30 50 1 17 47
M  V30 51 1 20 48
M  V30 52 1 25 49
M  V30 53 1 25 50
M  V30 54 1 27 51
M  V30 55 1 28 52
M  V30 56 1 29 53
M  V30 57 1 31 54
M  V30 58 1 32 55
M  V30 59 1 33 56
M  V30 END BOND
M  V30 END CTAB
M  END
>  <Dataset>  (999) 
ChEMBL_Kinases

>  <Ligand_Instance>  (999) 
nan

>  <PDB_ID>  (999) 
nan

>  <Standardized_SMILES>  (999) 
COc1ccc(C(=O)Nc2cccc(CN(C)c3ncnc4c(C(N)=O)cccc34)c2)cc1

>  <Name>  (999) 
nan

>  <Pocket>  (999) 
nan

>  <ATP_Site>  (999) 
nan

>  <Peripheral>  (999) 
nan

>  <Num_H_Atoms_ProtBoundConf>  (999) 
nan

>  <Num_Resolved_Atoms>  (999) 
nan

>  <Num_Not_Resolved_Atoms>  (999) 
nan

$$$$
