CHEMBL1171837
     RDKit          3D

  0  0  0  0  0  0  0  0  0  0999 V3000
M  V30 BEGIN CTAB
M  V30 COUNTS 66 70 0 0 0
M  V30 BEGIN ATOM
M  V30 1 C 4.824860 -2.637244 5.689628 0
M  V30 2 C 3.821307 -2.722073 4.597821 0
M  V30 3 C 3.811123 -3.820199 3.762747 0
M  V30 4 C 2.849862 -3.859842 2.748109 0
M  V30 5 C 1.918282 -2.869153 2.537296 0
M  V30 6 C 0.958523 -2.988652 1.459554 0
M  V30 7 O 1.090274 -4.016434 0.771610 0
M  V30 8 N -0.056317 -2.065341 1.160920 0
M  V30 9 C -1.017770 -2.124834 0.127437 0
M  V30 10 C -1.159050 -3.090072 -0.826635 0
M  V30 11 C -2.156519 -3.001076 -1.772471 0
M  V30 12 C -3.094863 -1.953855 -1.853824 0
M  V30 13 C -4.000202 -2.095998 -2.984972 0
M  V30 14 N -3.668496 -1.572187 -4.236039 0
M  V30 15 C -3.457184 -0.237474 -4.482228 0
M  V30 16 C -3.193884 0.181978 -5.896989 0
M  V30 17 N -2.513011 -0.823269 -6.678307 0
M  V30 18 C -2.411188 -0.373740 -8.042099 0
M  V30 19 C -3.348408 -2.027930 -6.571304 0
M  V30 20 C -3.127640 -2.526854 -5.168343 0
M  V30 21 C -2.926134 -0.998642 -0.877325 0
M  V30 22 C -3.887934 0.111857 -0.862701 0
M  V30 23 F -5.219458 -0.344885 -0.800151 0
M  V30 24 F -3.755802 0.679443 0.448925 0
M  V30 25 F -3.703498 1.133391 -1.710509 0
M  V30 26 C -1.925458 -1.099080 0.061237 0
M  V30 27 C 2.005439 -1.818331 3.415254 0
M  V30 28 C 2.915892 -1.691422 4.443571 0
M  V30 29 C 2.904488 -0.525083 5.304103 0
M  V30 30 C 2.900799 0.457588 6.004553 0
M  V30 31 C 2.918414 1.623598 6.848254 0
M  V30 32 C 2.729951 1.743725 8.209330 0
M  V30 33 N 2.844874 3.064919 8.532046 0
M  V30 34 C 3.100666 3.767037 7.399753 0
M  V30 35 C 3.297965 5.125320 7.205227 0
M  V30 36 C 3.548019 5.568140 5.901029 0
M  V30 37 C 3.582154 4.619631 4.890108 0
M  V30 38 N 3.379946 3.316690 5.162569 0
M  V30 39 N 3.142755 2.883425 6.388537 0
M  V30 40 H 5.423679 -1.716961 5.682626 0
M  V30 41 H 4.242699 -2.671313 6.652277 0
M  V30 42 H 5.516534 -3.522078 5.643007 0
M  V30 43 H 4.534232 -4.612169 3.911194 0
M  V30 44 H 2.901460 -4.740624 2.139276 0
M  V30 45 H -0.032227 -1.265192 1.827625 0
M  V30 46 H -0.474122 -3.920319 -0.824713 0
M  V30 47 H -2.158324 -3.832169 -2.474623 0
M  V30 48 H -5.030974 -1.670936 -2.723340 0
M  V30 49 H -4.220670 -3.202446 -3.119212 0
M  V30 50 H -2.588027 0.123527 -3.871900 0
M  V30 51 H -4.334855 0.353294 -4.151505 0
M  V30 52 H -4.127358 0.446064 -6.433619 0
M  V30 53 H -2.556942 1.095164 -5.909693 0
M  V30 54 H -2.870262 -1.130404 -8.736178 0
M  V30 55 H -2.799821 0.644495 -8.214132 0
M  V30 56 H -1.331682 -0.356584 -8.307135 0
M  V30 57 H -4.415106 -1.708427 -6.646407 0
M  V30 58 H -3.075202 -2.775754 -7.340195 0
M  V30 59 H -2.013541 -2.652743 -5.055611 0
M  V30 60 H -3.663020 -3.488326 -5.007366 0
M  V30 61 H -1.875343 -0.283047 0.794100 0
M  V30 62 H 1.308500 -0.998087 3.317434 0
M  V30 63 H 2.527444 0.897891 8.863970 0
M  V30 64 H 3.262428 5.844332 8.022142 0
M  V30 65 H 3.707546 6.632476 5.714596 0
M  V30 66 H 3.776959 4.942963 3.858895 0
M  V30 END ATOM
M  V30 BEGIN BOND
M  V30 1 1 1 2
M  V30 2 2 2 3
M  V30 3 1 3 4
M  V30 4 2 4 5
M  V30 5 1 5 6
M  V30 6 2 6 7
M  V30 7 1 6 8
M  V30 8 1 8 9
M  V30 9 2 9 10
M  V30 10 1 10 11
M  V30 11 2 11 12
M  V30 12 1 12 13
M  V30 13 1 13 14
M  V30 14 1 14 15
M  V30 15 1 15 16
M  V30 16 1 16 17
M  V30 17 1 17 18
M  V30 18 1 17 19
M  V30 19 1 19 20
M  V30 20 1 12 21
M  V30 21 1 21 22
M  V30 22 1 22 23
M  V30 23 1 22 24
M  V30 24 1 22 25
M  V30 25 2 21 26
M  V30 26 1 5 27
M  V30 27 2 27 28
M  V30 28 1 28 29
M  V30 29 3 29 30
M  V30 30 1 30 31
M  V30 31 2 31 32
M  V30 32 1 32 33
M  V30 33 2 33 34
M  V30 34 1 34 35
M  V30 35 2 35 36
M  V30 36 1 36 37
M  V30 37 2 37 38
M  V30 38 1 38 39
M  V30 39 1 28 2
M  V30 40 1 39 31
M  V30 41 1 26 9
M  V30 42 1 39 34
M  V30 43 1 20 14
M  V30 44 1 1 40
M  V30 45 1 1 41
M  V30 46 1 1 42
M  V30 47 1 3 43
M  V30 48 1 4 44
M  V30 49 1 8 45
M  V30 50 1 10 46
M  V30 51 1 11 47
M  V30 52 1 13 48
M  V30 53 1 13 49
M  V30 54 1 15 50
M  V30 55 1 15 51
M  V30 56 1 16 52
M  V30 57 1 16 53
M  V30 58 1 18 54
M  V30 59 1 18 55
M  V30 60 1 18 56
M  V30 61 1 19 57
M  V30 62 1 19 58
M  V30 63 1 20 59
M  V30 64 1 20 60
M  V30 65 1 26 61
M  V30 66 1 27 62
M  V30 67 1 32 63
M  V30 68 1 35 64
M  V30 69 1 36 65
M  V30 70 1 37 66
M  V30 END BOND
M  V30 END CTAB
M  END
>  <Dataset>  (1) 
ChEMBL_PKA

>  <Ligand_Instance>  (1) 
nan

>  <PDB_ID>  (1) 
nan

>  <Standardized_SMILES>  (1) 
Cc1ccc(C(=O)Nc2ccc(CN3CCN(C)CC3)c(C(F)(F)F)c2)cc1C#Cc1cnc2cccnn12

>  <Name>  (1) 
PONATINIB

>  <Pocket>  (1) 
nan

>  <ATP_Site>  (1) 
nan

>  <Peripheral>  (1) 
nan

>  <Num_H_Atoms_ProtBoundConf>  (1) 
nan

>  <Num_Resolved_Atoms>  (1) 
nan

>  <Num_Not_Resolved_Atoms>  (1) 
nan

$$$$
CHEMBL1233654
     RDKit          3D

  0  0  0  0  0  0  0  0  0  0999 V3000
M  V30 BEGIN CTAB
M  V30 COUNTS 37 39 0 0 0
M  V30 BEGIN ATOM
M  V30 1 C -2.523921 -1.973704 0.520700 0
M  V30 2 C -1.104949 -2.238491 1.000675 0 CFG=1
M  V30 3 C -1.126406 -3.590073 1.641074 0
M  V30 4 N 0.140401 -4.103172 2.019812 0
M  V30 5 C 1.265425 -3.646693 1.313294 0
M  V30 6 C 1.149238 -2.366045 0.548193 0
M  V30 7 N -0.098195 -2.056748 -0.011219 0
M  V30 8 S -0.306737 -0.738238 -1.016710 0
M  V30 9 O 0.427083 -0.874405 -2.340021 0
M  V30 10 O -1.745008 -0.692476 -1.476040 0
M  V30 11 C 0.028115 0.804017 -0.269041 0
M  V30 12 C -1.056448 1.601858 0.146437 0
M  V30 13 C -0.964605 2.802230 0.818824 0
M  V30 14 C 0.280899 3.273678 1.115491 0
M  V30 15 C 1.382764 2.548690 0.738716 0
M  V30 16 C 2.657558 3.008845 0.999766 0
M  V30 17 N 3.755396 2.300213 0.600717 0
M  V30 18 C 3.602760 1.126375 -0.062910 0
M  V30 19 C 2.337419 0.691629 -0.308704 0
M  V30 20 C 1.231567 1.374479 0.078685 0
M  V30 21 H -2.719584 -2.502465 -0.434448 0
M  V30 22 H -2.819997 -0.924733 0.553448 0
M  V30 23 H -3.245392 -2.483175 1.235887 0
M  V30 24 H -0.901583 -1.491813 1.797700 0
M  V30 25 H -1.650468 -4.290216 0.970354 0
M  V30 26 H -1.756177 -3.496971 2.558261 0
M  V30 27 H 0.114471 -5.149454 2.093419 0
M  V30 28 H 1.566451 -4.463574 0.593104 0
M  V30 29 H 2.131935 -3.567894 2.002828 0
M  V30 30 H 1.990431 -2.416601 -0.209723 0
M  V30 31 H 1.450413 -1.556848 1.246663 0
M  V30 32 H -2.061482 1.262705 -0.070766 0
M  V30 33 H -1.845516 3.343813 1.097341 0
M  V30 34 H 0.433811 4.200902 1.638500 0
M  V30 35 H 2.837278 3.940911 1.526201 0
M  V30 36 H 4.477143 0.597117 -0.362115 0
M  V30 37 H 2.263556 -0.210098 -0.851420 0
M  V30 END ATOM
M  V30 BEGIN BOND
M  V30 1 1 1 2
M  V30 2 1 2 3
M  V30 3 1 3 4
M  V30 4 1 4 5
M  V30 5 1 5 6
M  V30 6 1 6 7
M  V30 7 1 7 8
M  V30 8 2 8 9
M  V30 9 2 8 10
M  V30 10 1 8 11
M  V30 11 2 11 12
M  V30 12 1 12 13
M  V30 13 2 13 14
M  V30 14 1 14 15
M  V30 15 2 15 16
M  V30 16 1 16 17
M  V30 17 2 17 18
M  V30 18 1 18 19
M  V30 19 2 19 20
M  V30 20 1 7 2
M  V30 21 1 20 11
M  V30 22 1 20 15
M  V30 23 1 1 21
M  V30 24 1 1 22
M  V30 25 1 1 23
M  V30 26 1 2 24 CFG=1
M  V30 27 1 3 25
M  V30 28 1 3 26
M  V30 29 1 4 27
M  V30 30 1 5 28
M  V30 31 1 5 29
M  V30 32 1 6 30
M  V30 33 1 6 31
M  V30 34 1 12 32
M  V30 35 1 13 33
M  V30 36 1 14 34
M  V30 37 1 16 35
M  V30 38 1 18 36
M  V30 39 1 19 37
M  V30 END BOND
M  V30 END CTAB
M  END
>  <Dataset>  (2) 
ChEMBL_PKA

>  <Ligand_Instance>  (2) 
nan

>  <PDB_ID>  (2) 
nan

>  <Standardized_SMILES>  (2) 
C[C@H]1CNCCN1S(=O)(=O)c1cccc2cnccc12

>  <Name>  (2) 
nan

>  <Pocket>  (2) 
nan

>  <ATP_Site>  (2) 
nan

>  <Peripheral>  (2) 
nan

>  <Num_H_Atoms_ProtBoundConf>  (2) 
nan

>  <Num_Resolved_Atoms>  (2) 
nan

>  <Num_Not_Resolved_Atoms>  (2) 
nan

$$$$
CHEMBL148333
     RDKit          3D

  0  0  0  0  0  0  0  0  0  0999 V3000
M  V30 BEGIN CTAB
M  V30 COUNTS 33 34 0 0 0
M  V30 BEGIN ATOM
M  V30 1 C -2.204279 -1.883582 2.159880 0
M  V30 2 N -1.090551 -2.519394 2.823051 0
M  V30 3 C -0.465120 -3.522095 1.989599 0
M  V30 4 C 0.242674 -2.869389 0.805858 0
M  V30 5 N 1.247805 -1.996777 1.381376 0
M  V30 6 S 2.148922 -1.166315 0.176821 0
M  V30 7 O 2.791761 -2.161487 -0.755530 0
M  V30 8 O 3.270433 -0.421851 0.842801 0
M  V30 9 C 1.133911 -0.131241 -0.798455 0
M  V30 10 C 0.932759 -0.273043 -2.162940 0
M  V30 11 C 0.087306 0.635265 -2.766557 0
M  V30 12 C -0.559290 1.665416 -2.086546 0
M  V30 13 C -0.327987 1.773924 -0.709393 0
M  V30 14 C -0.978022 2.813863 -0.039429 0
M  V30 15 N -0.758935 2.926477 1.281933 0
M  V30 16 C 0.049154 2.086815 1.960247 0
M  V30 17 C 0.672155 1.072825 1.259461 0
M  V30 18 C 0.516140 0.869592 -0.094499 0
M  V30 19 H -2.310219 -2.251703 1.117181 0
M  V30 20 H -3.119098 -2.119467 2.735516 0
M  V30 21 H -2.095102 -0.776207 2.154374 0
M  V30 22 H -0.407305 -1.866409 3.237142 0
M  V30 23 H -1.239246 -4.238998 1.682781 0
M  V30 24 H 0.266387 -4.066824 2.611034 0
M  V30 25 H 0.668587 -3.692322 0.201810 0
M  V30 26 H -0.442553 -2.318072 0.165371 0
M  V30 27 H 1.857471 -2.495808 2.064127 0
M  V30 28 H 1.444440 -1.069487 -2.651448 0
M  V30 29 H -0.072331 0.531441 -3.832616 0
M  V30 30 H -1.205686 2.341479 -2.624483 0
M  V30 31 H -1.631286 3.507191 -0.548802 0
M  V30 32 H 0.198160 2.224667 3.041092 0
M  V30 33 H 1.319926 0.409446 1.814349 0
M  V30 END ATOM
M  V30 BEGIN BOND
M  V30 1 1 1 2
M  V30 2 1 2 3
M  V30 3 1 3 4
M  V30 4 1 4 5
M  V30 5 1 5 6
M  V30 6 2 6 7
M  V30 7 2 6 8
M  V30 8 1 6 9
M  V30 9 2 9 10
M  V30 10 1 10 11
M  V30 11 2 11 12
M  V30 12 1 12 13
M  V30 13 2 13 14
M  V30 14 1 14 15
M  V30 15 2 15 16
M  V30 16 1 16 17
M  V30 17 2 17 18
M  V30 18 1 18 9
M  V30 19 1 18 13
M  V30 20 1 1 19
M  V30 21 1 1 20
M  V30 22 1 1 21
M  V30 23 1 2 22
M  V30 24 1 3 23
M  V30 25 1 3 24
M  V30 26 1 4 25
M  V30 27 1 4 26
M  V30 28 1 5 27
M  V30 29 1 10 28
M  V30 30 1 11 29
M  V30 31 1 12 30
M  V30 32 1 14 31
M  V30 33 1 16 32
M  V30 34 1 17 33
M  V30 END BOND
M  V30 END CTAB
M  END
>  <Dataset>  (3) 
ChEMBL_PKA

>  <Ligand_Instance>  (3) 
nan

>  <PDB_ID>  (3) 
nan

>  <Standardized_SMILES>  (3) 
CNCCNS(=O)(=O)c1cccc2cnccc12

>  <Name>  (3) 
nan

>  <Pocket>  (3) 
nan

>  <ATP_Site>  (3) 
nan

>  <Peripheral>  (3) 
nan

>  <Num_H_Atoms_ProtBoundConf>  (3) 
nan

>  <Num_Resolved_Atoms>  (3) 
nan

>  <Num_Not_Resolved_Atoms>  (3) 
nan

$$$$
CHEMBL1580664
     RDKit          3D

  0  0  0  0  0  0  0  0  0  0999 V3000
M  V30 BEGIN CTAB
M  V30 COUNTS 38 40 0 0 0
M  V30 BEGIN ATOM
M  V30 1 N 0.375440 -4.323856 -0.304022 0
M  V30 2 C 0.263095 -2.961364 0.094972 0
M  V30 3 N 0.911012 -2.000422 -0.570820 0
M  V30 4 C 0.861881 -0.704288 -0.208689 0
M  V30 5 C 1.572128 0.192856 -1.096792 0
M  V30 6 C 2.281587 -0.299997 -2.172233 0
M  V30 7 C 2.924407 0.480400 -3.120921 0
M  V30 8 O 3.600494 -0.131054 -4.138161 0
M  V30 9 C 2.879565 1.861302 -3.027630 0
M  V30 10 C 2.175643 2.410930 -1.952979 0
M  V30 11 C 1.575293 1.527825 -1.062891 0
M  V30 12 N 0.932666 2.300699 -0.075308 0 CHG=1 VAL=4
M  V30 13 O 0.246480 3.344222 0.166107 0
M  V30 14 O 0.328166 3.004231 0.927934 0 CHG=-1 VAL=1
M  V30 15 C 0.106055 -0.461053 0.886972 0
M  V30 16 C -0.583213 -1.372917 1.618909 0
M  V30 17 C -1.248293 -0.720528 2.783702 0
M  V30 18 C -2.112245 0.318660 2.712173 0
M  V30 19 C -2.571511 0.798561 3.950991 0
M  V30 20 C -2.213993 0.305214 5.173541 0
M  V30 21 C -1.318705 -0.781083 5.140376 0
M  V30 22 C -0.821987 -1.311397 3.943208 0
M  V30 23 C -0.490154 -2.662245 1.186459 0
M  V30 24 N -1.226062 -3.631250 1.895842 0 CHG=1 VAL=4
M  V30 25 O -1.269998 -4.301336 2.931271 0
M  V30 26 O -2.334145 -3.941983 1.100663 0 CHG=-1 VAL=1
M  V30 27 H -0.194688 -4.690645 -1.135690 0
M  V30 28 H 1.067927 -4.724571 0.408810 0
M  V30 29 H 2.359285 -1.391206 -2.332719 0
M  V30 30 H 3.159690 -0.142475 -5.060676 0
M  V30 31 H 3.401531 2.375318 -3.787450 0
M  V30 32 H 2.199164 3.476063 -1.950385 0
M  V30 33 H 0.085924 0.575758 1.186779 0
M  V30 34 H -2.393779 0.682198 1.762779 0
M  V30 35 H -3.260998 1.643247 3.873840 0
M  V30 36 H -2.582673 0.702536 6.105757 0
M  V30 37 H -1.054528 -1.143057 6.113987 0
M  V30 38 H -0.155739 -2.124425 4.114472 0
M  V30 END ATOM
M  V30 BEGIN BOND
M  V30 1 1 1 2
M  V30 2 2 2 3
M  V30 3 1 3 4
M  V30 4 1 4 5
M  V30 5 2 5 6
M  V30 6 1 6 7
M  V30 7 1 7 8
M  V30 8 2 7 9
M  V30 9 1 9 10
M  V30 10 2 10 11
M  V30 11 1 11 12
M  V30 12 2 12 13
M  V30 13 1 12 14
M  V30 14 2 4 15
M  V30 15 1 15 16
M  V30 16 1 16 17
M  V30 17 2 17 18
M  V30 18 1 18 19
M  V30 19 2 19 20
M  V30 20 1 20 21
M  V30 21 2 21 22
M  V30 22 2 16 23
M  V30 23 1 23 24
M  V30 24 2 24 25
M  V30 25 1 24 26
M  V30 26 1 23 2
M  V30 27 1 11 5
M  V30 28 1 22 17
M  V30 29 1 1 27
M  V30 30 1 1 28
M  V30 31 1 6 29
M  V30 32 1 8 30
M  V30 33 1 9 31
M  V30 34 1 10 32
M  V30 35 1 15 33
M  V30 36 1 18 34
M  V30 37 1 19 35
M  V30 38 1 20 36
M  V30 39 1 21 37
M  V30 40 1 22 38
M  V30 END BOND
M  V30 END CTAB
M  END
>  <Dataset>  (4) 
ChEMBL_PKA

>  <Ligand_Instance>  (4) 
nan

>  <PDB_ID>  (4) 
nan

>  <Standardized_SMILES>  (4) 
Nc1nc(-c2cc(O)ccc2[N+](=O)[O-])cc(-c2ccccc2)c1[N+](=O)[O-]

>  <Name>  (4) 
nan

>  <Pocket>  (4) 
nan

>  <ATP_Site>  (4) 
nan

>  <Peripheral>  (4) 
nan

>  <Num_H_Atoms_ProtBoundConf>  (4) 
nan

>  <Num_Resolved_Atoms>  (4) 
nan

>  <Num_Not_Resolved_Atoms>  (4) 
nan

$$$$
CHEMBL1667969
     RDKit          3D

  0  0  0  0  0  0  0  0  0  0999 V3000
M  V30 BEGIN CTAB
M  V30 COUNTS 34 36 0 0 0
M  V30 BEGIN ATOM
M  V30 1 O 1.950757 -0.128664 5.730272 0
M  V30 2 C 2.419582 -0.217363 4.565879 0
M  V30 3 N 3.771064 -0.238383 4.367897 0
M  V30 4 C 4.321415 -0.333595 3.121114 0
M  V30 5 C 3.506274 -0.414078 1.986839 0
M  V30 6 C 2.140705 -0.389745 2.228433 0
M  V30 7 C 1.351810 -0.469971 1.099044 0
M  V30 8 C -0.025330 -0.456914 1.188021 0
M  V30 9 O -1.004295 -0.522618 0.242145 0
M  V30 10 C -0.832232 -0.627287 -1.155724 0
M  V30 11 C -1.347045 -1.934288 -1.702399 0
M  V30 12 C -2.801414 -1.861276 -2.100290 0
M  V30 13 N -3.038255 -0.727028 -2.983874 0
M  V30 14 C -2.852176 0.457991 -2.174829 0
M  V30 15 C -1.378089 0.571935 -1.885694 0
M  V30 16 C -0.597323 -0.359440 2.463920 0
M  V30 17 C 0.196924 -0.277636 3.614831 0
M  V30 18 C 1.569221 -0.293971 3.481438 0
M  V30 19 H 4.400715 -0.177781 5.223030 0
M  V30 20 H 5.389124 -0.349344 2.975859 0
M  V30 21 H 3.911486 -0.490377 0.985517 0
M  V30 22 H 1.693768 -0.546232 0.094484 0
M  V30 23 H 0.261843 -0.645590 -1.338890 0
M  V30 24 H -1.267108 -2.729021 -0.927322 0
M  V30 25 H -0.778037 -2.302735 -2.585307 0
M  V30 26 H -3.019695 -2.761707 -2.711516 0
M  V30 27 H -3.469999 -1.798842 -1.225754 0
M  V30 28 H -4.018992 -0.779738 -3.307877 0
M  V30 29 H -3.147929 1.363445 -2.730053 0
M  V30 30 H -3.463527 0.311363 -1.267290 0
M  V30 31 H -1.122237 1.461928 -1.271241 0
M  V30 32 H -0.860642 0.661347 -2.863977 0
M  V30 33 H -1.665316 -0.335791 2.714555 0
M  V30 34 H -0.196655 -0.202083 4.606999 0
M  V30 END ATOM
M  V30 BEGIN BOND
M  V30 1 2 1 2
M  V30 2 1 2 3
M  V30 3 1 3 4
M  V30 4 2 4 5
M  V30 5 1 5 6
M  V30 6 2 6 7
M  V30 7 1 7 8
M  V30 8 1 8 9
M  V30 9 1 9 10
M  V30 10 1 10 11
M  V30 11 1 11 12
M  V30 12 1 12 13
M  V30 13 1 13 14
M  V30 14 1 14 15
M  V30 15 2 8 16
M  V30 16 1 16 17
M  V30 17 2 17 18
M  V30 18 1 18 2
M  V30 19 1 18 6
M  V30 20 1 15 10
M  V30 21 1 3 19
M  V30 22 1 4 20
M  V30 23 1 5 21
M  V30 24 1 7 22
M  V30 25 1 10 23
M  V30 26 1 11 24
M  V30 27 1 11 25
M  V30 28 1 12 26
M  V30 29 1 12 27
M  V30 30 1 13 28
M  V30 31 1 14 29
M  V30 32 1 14 30
M  V30 33 1 15 31
M  V30 34 1 15 32
M  V30 35 1 16 33
M  V30 36 1 17 34
M  V30 END BOND
M  V30 END CTAB
M  END
>  <Dataset>  (5) 
ChEMBL_PKA

>  <Ligand_Instance>  (5) 
nan

>  <PDB_ID>  (5) 
nan

>  <Standardized_SMILES>  (5) 
O=c1[nH]ccc2cc(OC3CCNCC3)ccc12

>  <Name>  (5) 
SAR-407899

>  <Pocket>  (5) 
nan

>  <ATP_Site>  (5) 
nan

>  <Peripheral>  (5) 
nan

>  <Num_H_Atoms_ProtBoundConf>  (5) 
nan

>  <Num_Resolved_Atoms>  (5) 
nan

>  <Num_Not_Resolved_Atoms>  (5) 
nan

$$$$
CHEMBL1939876
     RDKit          3D

  0  0  0  0  0  0  0  0  0  0999 V3000
M  V30 BEGIN CTAB
M  V30 COUNTS 55 58 0 0 0
M  V30 BEGIN ATOM
M  V30 1 C 4.088408 5.980339 4.248685 0
M  V30 2 C 3.338155 6.588685 3.080678 0
M  V30 3 O 2.884478 5.516891 2.282317 0
M  V30 4 C 2.154002 5.664342 1.116623 0
M  V30 5 O 1.991114 6.896206 0.932850 0
M  V30 6 C 1.688011 4.554800 0.296013 0
M  V30 7 C 1.950942 3.242971 0.631753 0
M  V30 8 C 1.336595 2.530071 -0.401721 0
M  V30 9 C 1.283750 1.156440 -0.576834 0
M  V30 10 C 0.631639 0.602697 -1.660009 0
M  V30 11 C 0.614165 -0.859685 -1.783405 0
M  V30 12 C 0.329170 -1.599397 -0.645330 0
M  V30 13 C 0.364828 -2.940402 -0.984487 0
M  V30 14 C 0.134087 -4.136717 -0.143909 0
M  V30 15 O 0.211011 -5.277699 -0.641700 0
M  V30 16 N -0.169924 -3.894072 1.222324 0
M  V30 17 C -0.425823 -4.952508 2.188823 0
M  V30 18 C -1.791229 -5.498965 2.002589 0
M  V30 19 C -2.813230 -4.864098 2.708191 0
M  V30 20 C -4.150824 -5.257616 2.644936 0
M  V30 21 C -4.496498 -6.328443 1.847478 0
M  V30 22 C -5.897313 -6.710231 1.805936 0
M  V30 23 O -6.728436 -6.064276 2.484419 0
M  V30 24 O -6.397892 -7.759837 1.055638 0
M  V30 25 C -3.501163 -6.961635 1.148477 0
M  V30 26 C -2.186792 -6.561878 1.221403 0
M  V30 27 N 0.665631 -2.964161 -2.295802 0
M  V30 28 N 0.815757 -1.741866 -2.781167 0
M  V30 29 C 1.136377 -1.246465 -4.105184 0
M  V30 30 C 0.030580 1.462546 -2.567956 0
M  V30 31 C 0.088998 2.836717 -2.384067 0
M  V30 32 C 0.743506 3.398778 -1.296539 0
M  V30 33 N 0.976988 4.656426 -0.838756 0
M  V30 34 H 5.176396 5.953253 4.029661 0
M  V30 35 H 3.879673 6.560484 5.180312 0
M  V30 36 H 3.791230 4.936662 4.466617 0
M  V30 37 H 2.510803 7.192541 3.505301 0
M  V30 38 H 4.063375 7.184424 2.502688 0
M  V30 39 H 2.500059 2.865553 1.488475 0
M  V30 40 H 1.769473 0.502354 0.160011 0
M  V30 41 H 0.102757 -1.277691 0.382770 0
M  V30 42 H -0.219530 -2.895747 1.581550 0
M  V30 43 H 0.335237 -5.758963 2.115225 0
M  V30 44 H -0.338693 -4.562010 3.220630 0
M  V30 45 H -2.599941 -4.027382 3.342245 0
M  V30 46 H -4.892959 -4.723025 3.216561 0
M  V30 47 H -7.337733 -8.110228 1.229846 0
M  V30 48 H -3.761578 -7.808339 0.515261 0
M  V30 49 H -1.392263 -7.052250 0.678783 0
M  V30 50 H 1.586881 -2.064071 -4.731246 0
M  V30 51 H 0.208300 -0.944204 -4.666796 0
M  V30 52 H 1.883497 -0.432267 -4.092845 0
M  V30 53 H -0.476933 1.022689 -3.412382 0
M  V30 54 H -0.382191 3.505017 -3.095172 0
M  V30 55 H 0.640156 5.524307 -1.322517 0
M  V30 END ATOM
M  V30 BEGIN BOND
M  V30 1 1 1 2
M  V30 2 1 2 3
M  V30 3 1 3 4
M  V30 4 2 4 5
M  V30 5 1 4 6
M  V30 6 2 6 7
M  V30 7 1 7 8
M  V30 8 2 8 9
M  V30 9 1 9 10
M  V30 10 1 10 11
M  V30 11 2 11 12
M  V30 12 1 12 13
M  V30 13 1 13 14
M  V30 14 2 14 15
M  V30 15 1 14 16
M  V30 16 1 16 17
M  V30 17 1 17 18
M  V30 18 2 18 19
M  V30 19 1 19 20
M  V30 20 2 20 21
M  V30 21 1 21 22
M  V30 22 2 22 23
M  V30 23 1 22 24
M  V30 24 1 21 25
M  V30 25 2 25 26
M  V30 26 2 13 27
M  V30 27 1 27 28
M  V30 28 1 28 29
M  V30 29 2 10 30
M  V30 30 1 30 31
M  V30 31 2 31 32
M  V30 32 1 32 33
M  V30 33 1 33 6
M  V30 34 1 32 8
M  V30 35 1 28 11
M  V30 36 1 26 18
M  V30 37 1 1 34
M  V30 38 1 1 35
M  V30 39 1 1 36
M  V30 40 1 2 37
M  V30 41 1 2 38
M  V30 42 1 7 39
M  V30 43 1 9 40
M  V30 44 1 12 41
M  V30 45 1 16 42
M  V30 46 1 17 43
M  V30 47 1 17 44
M  V30 48 1 19 45
M  V30 49 1 20 46
M  V30 50 1 24 47
M  V30 51 1 25 48
M  V30 52 1 26 49
M  V30 53 1 29 50
M  V30 54 1 29 51
M  V30 55 1 29 52
M  V30 56 1 30 53
M  V30 57 1 31 54
M  V30 58 1 33 55
M  V30 END BOND
M  V30 END CTAB
M  END
>  <Dataset>  (6) 
ChEMBL_PKA

>  <Ligand_Instance>  (6) 
nan

>  <PDB_ID>  (6) 
nan

>  <Standardized_SMILES>  (6) 
CCOC(=O)c1cc2cc(-c3cc(C(=O)NCc4ccc(C(=O)O)cc4)nn3C)ccc2[nH]1

>  <Name>  (6) 
BI 4394

>  <Pocket>  (6) 
nan

>  <ATP_Site>  (6) 
nan

>  <Peripheral>  (6) 
nan

>  <Num_H_Atoms_ProtBoundConf>  (6) 
nan

>  <Num_Resolved_Atoms>  (6) 
nan

>  <Num_Not_Resolved_Atoms>  (6) 
nan

$$$$
CHEMBL1971943
     RDKit          3D

  0  0  0  0  0  0  0  0  0  0999 V3000
M  V30 BEGIN CTAB
M  V30 COUNTS 41 44 0 0 0
M  V30 BEGIN ATOM
M  V30 1 C 1.127475 -4.336777 0.503647 0
M  V30 2 C 2.447941 -3.878504 0.059942 0
M  V30 3 C 3.661821 -4.380562 0.461556 0
M  V30 4 N 4.623863 -3.711912 -0.197713 0
M  V30 5 C 4.107504 -2.787096 -1.020046 0
M  V30 6 N 4.598724 -1.867983 -1.900364 0
M  V30 7 C 3.708281 -1.088605 -2.582448 0
M  V30 8 C 2.322596 -1.218847 -2.392592 0
M  V30 9 C 1.797706 -2.163288 -1.485812 0
M  V30 10 O 0.466646 -1.988159 -1.576911 0
M  V30 11 C -0.365858 -1.601554 -0.580846 0
M  V30 12 C -0.026186 -0.269733 -0.272575 0
M  V30 13 F 0.933244 0.534739 -0.813572 0
M  V30 14 C -0.694296 0.460758 0.724744 0
M  V30 15 C -1.724116 -0.102627 1.453482 0
M  V30 16 N -2.422382 0.594326 2.475773 0
M  V30 17 C -2.184539 1.940732 2.852033 0
M  V30 18 C -3.026935 2.833605 2.201639 0
M  V30 19 C -2.912727 4.191969 2.463148 0
M  V30 20 Cl -3.976025 5.335953 1.647697 0
M  V30 21 N -1.983774 4.651700 3.349383 0
M  V30 22 C -1.174873 3.755508 3.969149 0
M  V30 23 N -0.165187 4.121481 4.913742 0
M  V30 24 N -1.270355 2.426188 3.728001 0
M  V30 25 C -2.065278 -1.395274 1.163563 0
M  V30 26 C -1.396362 -2.073000 0.189548 0
M  V30 27 F -1.766855 -3.325642 -0.136175 0
M  V30 28 C 2.753276 -2.899306 -0.849710 0
M  V30 29 H 0.467533 -4.539053 -0.369269 0
M  V30 30 H 0.641459 -3.746213 1.279625 0
M  V30 31 H 1.277106 -5.354667 0.959287 0
M  V30 32 H 3.755879 -5.177077 1.187355 0
M  V30 33 H 5.659533 -3.860007 -0.111963 0
M  V30 34 H 4.278390 -0.430731 -3.222375 0
M  V30 35 H 1.895312 -0.473948 -3.076339 0
M  V30 36 H -0.493142 1.486619 1.021084 0
M  V30 37 H -3.173973 0.112138 3.010200 0
M  V30 38 H -3.795633 2.554006 1.479999 0
M  V30 39 H -0.282781 4.373085 5.940812 0
M  V30 40 H 0.771438 4.111800 4.439399 0
M  V30 41 H -2.841615 -1.910092 1.668987 0
M  V30 END ATOM
M  V30 BEGIN BOND
M  V30 1 1 1 2
M  V30 2 2 2 3
M  V30 3 1 3 4
M  V30 4 1 4 5
M  V30 5 2 5 6
M  V30 6 1 6 7
M  V30 7 2 7 8
M  V30 8 1 8 9
M  V30 9 1 9 10
M  V30 10 1 10 11
M  V30 11 2 11 12
M  V30 12 1 12 13
M  V30 13 1 12 14
M  V30 14 2 14 15
M  V30 15 1 15 16
M  V30 16 1 16 17
M  V30 17 2 17 18
M  V30 18 1 18 19
M  V30 19 1 19 20
M  V30 20 2 19 21
M  V30 21 1 21 22
M  V30 22 1 22 23
M  V30 23 2 22 24
M  V30 24 1 15 25
M  V30 25 2 25 26
M  V30 26 1 26 27
M  V30 27 2 9 28
M  V30 28 1 28 2
M  V30 29 1 28 5
M  V30 30 1 26 11
M  V30 31 1 24 17
M  V30 32 1 1 29
M  V30 33 1 1 30
M  V30 34 1 1 31
M  V30 35 1 3 32
M  V30 36 1 4 33
M  V30 37 1 7 34
M  V30 38 1 8 35
M  V30 39 1 14 36
M  V30 40 1 16 37
M  V30 41 1 18 38
M  V30 42 1 23 39
M  V30 43 1 23 40
M  V30 44 1 25 41
M  V30 END BOND
M  V30 END CTAB
M  END
>  <Dataset>  (7) 
ChEMBL_PKA

>  <Ligand_Instance>  (7) 
nan

>  <PDB_ID>  (7) 
nan

>  <Standardized_SMILES>  (7) 
Cc1c[nH]c2nccc(Oc3c(F)cc(Nc4cc(Cl)nc(N)n4)cc3F)c12

>  <Name>  (7) 
BAY-549

>  <Pocket>  (7) 
nan

>  <ATP_Site>  (7) 
nan

>  <Peripheral>  (7) 
nan

>  <Num_H_Atoms_ProtBoundConf>  (7) 
nan

>  <Num_Resolved_Atoms>  (7) 
nan

>  <Num_Not_Resolved_Atoms>  (7) 
nan

$$$$
CHEMBL2105759
     RDKit          3D

  0  0  0  0  0  0  0  0  0  0999 V3000
M  V30 BEGIN CTAB
M  V30 COUNTS 43 46 0 0 0
M  V30 BEGIN ATOM
M  V30 1 C 0.199708 -5.183415 1.328017 0
M  V30 2 C 0.214952 -4.322446 0.059440 0
M  V30 3 S 1.704596 -3.416024 0.015751 0
M  V30 4 O 2.835633 -4.435358 -0.038645 0
M  V30 5 O 1.888712 -2.654899 1.297554 0
M  V30 6 N 1.890554 -2.399911 -1.333810 0
M  V30 7 C 0.942164 -1.348821 -1.519290 0
M  V30 8 C 1.933515 -0.310016 -1.082989 0
M  V30 9 C 2.036800 0.853584 -2.018050 0
M  V30 10 C 2.442142 0.512925 -3.360331 0
M  V30 11 N 2.755042 0.232317 -4.435004 0
M  V30 12 N 1.794889 0.164786 0.281152 0
M  V30 13 C 0.565781 0.286509 0.818667 0
M  V30 14 C 0.677260 0.757082 2.131471 0
M  V30 15 C -0.378531 1.044621 3.110468 0
M  V30 16 N -0.257449 0.630631 4.386543 0
M  V30 17 C -1.182176 0.857799 5.334030 0
M  V30 18 N -2.288323 1.541904 4.964758 0
M  V30 19 C -2.478937 1.986189 3.711760 0
M  V30 20 N -3.492818 2.678964 3.133724 0
M  V30 21 C -3.177371 2.870701 1.829443 0
M  V30 22 C -1.941537 2.298104 1.543439 0
M  V30 23 C -1.515361 1.748481 2.728110 0
M  V30 24 C 2.055596 0.904521 2.331427 0
M  V30 25 N 2.682738 0.535622 1.189836 0
M  V30 26 C 2.929897 -1.421407 -1.270993 0
M  V30 27 H 0.517773 -6.219062 1.125721 0
M  V30 28 H 0.906475 -4.771723 2.078300 0
M  V30 29 H -0.799265 -5.192916 1.779899 0
M  V30 30 H -0.702673 -3.715041 0.052939 0
M  V30 31 H 0.130027 -5.057826 -0.766892 0
M  V30 32 H 0.031195 -1.329631 -0.939770 0
M  V30 33 H 0.704593 -1.236269 -2.607225 0
M  V30 34 H 1.016786 1.319346 -2.082962 0
M  V30 35 H 2.677118 1.640730 -1.540549 0
M  V30 36 H -0.425713 0.098783 0.443957 0
M  V30 37 H -1.054727 0.512202 6.348616 0
M  V30 38 H -4.386045 3.028244 3.575753 0
M  V30 39 H -3.728624 3.378868 1.036003 0
M  V30 40 H -1.417158 2.278476 0.608260 0
M  V30 41 H 2.542816 1.250145 3.231860 0
M  V30 42 H 3.607932 -1.474805 -0.388045 0
M  V30 43 H 3.516981 -1.301346 -2.203554 0
M  V30 END ATOM
M  V30 BEGIN BOND
M  V30 1 1 1 2
M  V30 2 1 2 3
M  V30 3 2 3 4
M  V30 4 2 3 5
M  V30 5 1 3 6
M  V30 6 1 6 7
M  V30 7 1 7 8
M  V30 8 1 8 9
M  V30 9 1 9 10
M  V30 10 3 10 11
M  V30 11 1 8 12
M  V30 12 1 12 13
M  V30 13 2 13 14
M  V30 14 1 14 15
M  V30 15 2 15 16
M  V30 16 1 16 17
M  V30 17 2 17 18
M  V30 18 1 18 19
M  V30 19 1 19 20
M  V30 20 1 20 21
M  V30 21 2 21 22
M  V30 22 1 22 23
M  V30 23 1 14 24
M  V30 24 2 24 25
M  V30 25 1 8 26
M  V30 26 1 26 6
M  V30 27 1 25 12
M  V30 28 1 23 15
M  V30 29 2 23 19
M  V30 30 1 1 27
M  V30 31 1 1 28
M  V30 32 1 1 29
M  V30 33 1 2 30
M  V30 34 1 2 31
M  V30 35 1 7 32
M  V30 36 1 7 33
M  V30 37 1 9 34
M  V30 38 1 9 35
M  V30 39 1 13 36
M  V30 40 1 17 37
M  V30 41 1 20 38
M  V30 42 1 21 39
M  V30 43 1 22 40
M  V30 44 1 24 41
M  V30 45 1 26 42
M  V30 46 1 26 43
M  V30 END BOND
M  V30 END CTAB
M  END
>  <Dataset>  (8) 
ChEMBL_PKA

>  <Ligand_Instance>  (8) 
nan

>  <PDB_ID>  (8) 
nan

>  <Standardized_SMILES>  (8) 
CCS(=O)(=O)N1CC(CC#N)(n2cc(-c3ncnc4[nH]ccc34)cn2)C1

>  <Name>  (8) 
BARICITINIB

>  <Pocket>  (8) 
nan

>  <ATP_Site>  (8) 
nan

>  <Peripheral>  (8) 
nan

>  <Num_H_Atoms_ProtBoundConf>  (8) 
nan

>  <Num_Resolved_Atoms>  (8) 
nan

>  <Num_Not_Resolved_Atoms>  (8) 
nan

$$$$
CHEMBL2219422
     RDKit          3D

  0  0  0  0  0  0  0  0  0  0999 V3000
M  V30 BEGIN CTAB
M  V30 COUNTS 44 46 0 0 0
M  V30 BEGIN ATOM
M  V30 1 C 2.555478 -3.452686 1.517355 0
M  V30 2 N 2.508157 -4.306093 0.335953 0
M  V30 3 N 2.968233 -5.566350 0.450612 0
M  V30 4 C 2.845911 -6.183031 -0.726670 0
M  V30 5 C 2.292382 -5.208740 -1.517199 0
M  V30 6 Cl 2.008183 -5.734818 -3.145601 0
M  V30 7 C 2.064825 -4.022217 -0.895177 0
M  V30 8 C 1.515240 -2.790512 -1.386393 0
M  V30 9 C 1.346704 -1.688774 -0.625273 0
M  V30 10 C 0.844534 -0.553159 -1.087875 0
M  V30 11 C 0.506214 0.799488 -0.652273 0
M  V30 12 O 0.024593 1.627782 -1.427384 0
M  V30 13 N 0.715060 1.224597 0.681083 0
M  V30 14 C 0.393573 2.560836 1.159754 0 CFG=2
M  V30 15 C 1.699686 3.168445 1.641904 0
M  V30 16 N 2.205150 2.332454 2.692144 0
M  V30 17 C -0.498899 2.406347 2.360665 0
M  V30 18 C -1.758818 1.705021 2.105027 0
M  V30 19 C -1.972872 0.345495 2.201820 0
M  V30 20 C -3.180057 -0.269656 1.950463 0
M  V30 21 C -4.240999 0.554932 1.575222 0
M  V30 22 C -4.063515 1.926655 1.467330 0
M  V30 23 F -5.153456 2.636642 1.097339 0
M  V30 24 C -2.839228 2.498897 1.728083 0
M  V30 25 S 0.492615 -0.866971 -2.822818 0
M  V30 26 C 1.115299 -2.649139 -2.725090 0
M  V30 27 Cl 1.017053 -3.488268 -4.176539 0
M  V30 28 H 3.052273 -4.023958 2.359903 0
M  V30 29 H 3.211851 -2.572623 1.399920 0
M  V30 30 H 1.540422 -3.206892 1.831882 0
M  V30 31 H 3.169152 -7.201794 -0.807166 0
M  V30 32 H 1.529002 -1.433097 0.400109 0
M  V30 33 H 1.122182 0.554618 1.374665 0
M  V30 34 H -0.027603 3.185291 0.354940 0
M  V30 35 H 1.500116 4.178443 2.040163 0
M  V30 36 H 2.411918 3.304257 0.797279 0
M  V30 37 H 2.694528 2.847632 3.455501 0
M  V30 38 H 2.684345 1.475027 2.376823 0
M  V30 39 H 0.088762 1.788536 3.091703 0
M  V30 40 H -0.653012 3.381200 2.874871 0
M  V30 41 H -1.071120 -0.203651 2.503601 0
M  V30 42 H -3.257403 -1.353841 2.052467 0
M  V30 43 H -5.185490 0.042812 1.382047 0
M  V30 44 H -2.823083 3.560042 1.612415 0
M  V30 END ATOM
M  V30 BEGIN BOND
M  V30 1 1 1 2
M  V30 2 1 2 3
M  V30 3 2 3 4
M  V30 4 1 4 5
M  V30 5 1 5 6
M  V30 6 2 5 7
M  V30 7 1 7 8
M  V30 8 1 8 9
M  V30 9 2 9 10
M  V30 10 1 10 11
M  V30 11 2 11 12
M  V30 12 1 11 13
M  V30 13 1 13 14
M  V30 14 1 14 15
M  V30 15 1 15 16
M  V30 16 1 14 17
M  V30 17 1 17 18
M  V30 18 2 18 19
M  V30 19 1 19 20
M  V30 20 2 20 21
M  V30 21 1 21 22
M  V30 22 1 22 23
M  V30 23 2 22 24
M  V30 24 1 10 25
M  V30 25 1 25 26
M  V30 26 1 26 27
M  V30 27 1 7 2
M  V30 28 2 26 8
M  V30 29 1 24 18
M  V30 30 1 1 28
M  V30 31 1 1 29
M  V30 32 1 1 30
M  V30 33 1 4 31
M  V30 34 1 9 32
M  V30 35 1 13 33
M  V30 36 1 14 34 CFG=3
M  V30 37 1 15 35
M  V30 38 1 15 36
M  V30 39 1 16 37
M  V30 40 1 16 38
M  V30 41 1 17 39
M  V30 42 1 17 40
M  V30 43 1 19 41
M  V30 44 1 20 42
M  V30 45 1 21 43
M  V30 46 1 24 44
M  V30 END BOND
M  V30 END CTAB
M  END
>  <Dataset>  (9) 
ChEMBL_PKA

>  <Ligand_Instance>  (9) 
nan

>  <PDB_ID>  (9) 
nan

>  <Standardized_SMILES>  (9) 
Cn1ncc(Cl)c1-c1cc(C(=O)N[C@H](CN)Cc2cccc(F)c2)sc1Cl

>  <Name>  (9) 
AFURESERTIB

>  <Pocket>  (9) 
nan

>  <ATP_Site>  (9) 
nan

>  <Peripheral>  (9) 
nan

>  <Num_H_Atoms_ProtBoundConf>  (9) 
nan

>  <Num_Resolved_Atoms>  (9) 
nan

>  <Num_Not_Resolved_Atoms>  (9) 
nan

$$$$
CHEMBL223360
     RDKit          3D

  0  0  0  0  0  0  0  0  0  0999 V3000
M  V30 BEGIN CTAB
M  V30 COUNTS 46 49 0 0 0
M  V30 BEGIN ATOM
M  V30 1 C 6.407053 -3.989280 0.717671 0
M  V30 2 C 5.479662 -3.652680 -0.399538 0
M  V30 3 C 5.182435 -4.608596 -1.349936 0
M  V30 4 C 4.322374 -4.288200 -2.381465 0
M  V30 5 C 3.733213 -3.039193 -2.514840 0
M  V30 6 F 2.891516 -2.680518 -3.499211 0
M  V30 7 C 4.061309 -2.117813 -1.540246 0
M  V30 8 N 3.544658 -0.771783 -1.517620 0
M  V30 9 C 2.313317 -0.559256 -0.798007 0
M  V30 10 O 1.727205 -1.534426 -0.216289 0
M  V30 11 N 1.681031 0.707647 -0.685772 0
M  V30 12 C 0.468967 0.719171 0.066506 0
M  V30 13 C 0.475606 0.944195 1.429946 0
M  V30 14 C -0.722787 0.946382 2.115906 0
M  V30 15 C -1.964196 0.730502 1.501095 0
M  V30 16 C -3.067734 0.769739 2.449625 0
M  V30 17 C -2.932207 -0.089809 3.547855 0
M  V30 18 C -3.884619 -0.215978 4.544803 0
M  V30 19 C -5.029950 0.535172 4.468068 0
M  V30 20 C -5.186184 1.384666 3.403108 0
M  V30 21 N -6.148432 2.261891 3.005879 0
M  V30 22 N -5.804737 2.869622 1.862404 0
M  V30 23 C -4.594937 2.413491 1.458963 0
M  V30 24 N -3.896879 2.832066 0.294553 0
M  V30 25 C -4.234940 1.499319 2.423693 0
M  V30 26 C -1.942705 0.507770 0.139389 0
M  V30 27 C -0.748003 0.504925 -0.550223 0
M  V30 28 C 4.916022 -2.396004 -0.492738 0
M  V30 29 H 7.408491 -3.617073 0.460641 0
M  V30 30 H 5.998519 -3.524819 1.658313 0
M  V30 31 H 6.462780 -5.067699 0.862096 0
M  V30 32 H 5.622905 -5.599429 -1.281987 0
M  V30 33 H 4.052816 -5.008574 -3.161789 0
M  V30 34 H 3.944148 0.096348 -1.959333 0
M  V30 35 H 2.161178 1.523099 -1.166008 0
M  V30 36 H 1.427851 1.108532 1.893894 0
M  V30 37 H -0.593536 1.134140 3.184136 0
M  V30 38 H -2.048157 -0.719522 3.677883 0
M  V30 39 H -3.738723 -0.891373 5.373620 0
M  V30 40 H -5.822766 0.496896 5.202942 0
M  V30 41 H -7.049211 2.452078 3.514600 0
M  V30 42 H -2.938555 3.227662 0.306461 0
M  V30 43 H -4.476435 2.686885 -0.558700 0
M  V30 44 H -2.925839 0.337208 -0.273370 0
M  V30 45 H -0.827909 0.323242 -1.609015 0
M  V30 46 H 5.184683 -1.687096 0.279939 0
M  V30 END ATOM
M  V30 BEGIN BOND
M  V30 1 1 1 2
M  V30 2 2 2 3
M  V30 3 1 3 4
M  V30 4 2 4 5
M  V30 5 1 5 6
M  V30 6 1 5 7
M  V30 7 1 7 8
M  V30 8 1 8 9
M  V30 9 2 9 10
M  V30 10 1 9 11
M  V30 11 1 11 12
M  V30 12 2 12 13
M  V30 13 1 13 14
M  V30 14 2 14 15
M  V30 15 1 15 16
M  V30 16 2 16 17
M  V30 17 1 17 18
M  V30 18 2 18 19
M  V30 19 1 19 20
M  V30 20 1 20 21
M  V30 21 1 21 22
M  V30 22 2 22 23
M  V30 23 1 23 24
M  V30 24 1 23 25
M  V30 25 1 15 26
M  V30 26 2 26 27
M  V30 27 2 7 28
M  V30 28 1 28 2
M  V30 29 1 27 12
M  V30 30 1 25 16
M  V30 31 2 25 20
M  V30 32 1 1 29
M  V30 33 1 1 30
M  V30 34 1 1 31
M  V30 35 1 3 32
M  V30 36 1 4 33
M  V30 37 1 8 34
M  V30 38 1 11 35
M  V30 39 1 13 36
M  V30 40 1 14 37
M  V30 41 1 17 38
M  V30 42 1 18 39
M  V30 43 1 19 40
M  V30 44 1 21 41
M  V30 45 1 24 42
M  V30 46 1 24 43
M  V30 47 1 26 44
M  V30 48 1 27 45
M  V30 49 1 28 46
M  V30 END BOND
M  V30 END CTAB
M  END
>  <Dataset>  (10) 
ChEMBL_PKA

>  <Ligand_Instance>  (10) 
nan

>  <PDB_ID>  (10) 
nan

>  <Standardized_SMILES>  (10) 
Cc1ccc(F)c(NC(=O)Nc2ccc(-c3cccc4[nH]nc(N)c34)cc2)c1

>  <Name>  (10) 
LINIFANIB

>  <Pocket>  (10) 
nan

>  <ATP_Site>  (10) 
nan

>  <Peripheral>  (10) 
nan

>  <Num_H_Atoms_ProtBoundConf>  (10) 
nan

>  <Num_Resolved_Atoms>  (10) 
nan

>  <Num_Not_Resolved_Atoms>  (10) 
nan

$$$$
CHEMBL2325741
     RDKit          3D

  0  0  0  0  0  0  0  0  0  0999 V3000
M  V30 BEGIN CTAB
M  V30 COUNTS 55 58 0 0 0
M  V30 BEGIN ATOM
M  V30 1 N -1.317323 0.681889 -1.187219 0
M  V30 2 C -0.975441 -0.353027 -0.227779 0
M  V30 3 C 0.425258 -0.029693 0.218575 0
M  V30 4 O 0.796762 -0.881470 1.046997 0
M  V30 5 N 1.168161 1.080187 -0.255366 0
M  V30 6 C 2.478721 1.449401 0.111168 0 CFG=1
M  V30 7 C 3.513808 1.473045 -0.958870 0
M  V30 8 C 3.655310 0.077356 -1.581967 0
M  V30 9 O 4.033740 -0.847119 -0.609234 0
M  V30 10 C 2.446435 2.765057 0.801415 0
M  V30 11 C 3.183967 2.954839 1.975600 0
M  V30 12 C 3.143607 4.185099 2.606938 0
M  V30 13 C 2.408789 5.250113 2.140067 0
M  V30 14 Cl 2.449824 6.753999 3.043185 0
M  V30 15 C 1.677279 5.064088 0.976607 0
M  V30 16 C 1.709931 3.831774 0.333045 0
M  V30 17 C -1.948097 -0.300528 0.887936 0
M  V30 18 C -2.405117 -1.617095 1.442423 0
M  V30 19 N -2.623272 -2.597341 0.425630 0
M  V30 20 C -3.095877 -3.891509 0.675072 0
M  V30 21 N -4.285083 -4.241462 0.100865 0
M  V30 22 C -4.820089 -5.474973 0.290861 0
M  V30 23 N -4.252697 -6.442384 1.037332 0
M  V30 24 C -3.078844 -6.195962 1.645258 0
M  V30 25 N -2.207969 -6.841781 2.440031 0
M  V30 26 C -1.163054 -6.035675 2.735855 0
M  V30 27 C -1.332607 -4.827570 2.130797 0
M  V30 28 C -2.508618 -4.876558 1.440867 0
M  V30 29 C -2.357427 -2.298087 -0.981827 0
M  V30 30 C -0.982101 -1.644891 -0.996511 0
M  V30 31 H -2.077025 0.436605 -1.828942 0
M  V30 32 H -1.365468 1.610540 -0.742703 0
M  V30 33 H 0.673518 1.681749 -0.954715 0
M  V30 34 H 2.837357 0.686888 0.863765 0
M  V30 35 H 3.420774 2.248641 -1.715394 0
M  V30 36 H 4.492733 1.651510 -0.460515 0
M  V30 37 H 4.444116 0.088566 -2.348334 0
M  V30 38 H 2.677047 -0.299612 -1.966823 0
M  V30 39 H 4.635713 -0.369534 0.034801 0
M  V30 40 H 3.768511 2.123314 2.355756 0
M  V30 41 H 3.752054 4.238812 3.518244 0
M  V30 42 H 1.103826 5.908041 0.619221 0
M  V30 43 H 1.137615 3.687975 -0.576276 0
M  V30 44 H -2.806251 0.350213 0.626915 0
M  V30 45 H -1.437739 0.256787 1.728984 0
M  V30 46 H -3.426184 -1.410933 1.883450 0
M  V30 47 H -1.793808 -1.915230 2.291744 0
M  V30 48 H -5.768549 -5.708737 -0.185696 0
M  V30 49 H -4.677296 -7.377211 1.169368 0
M  V30 50 H -0.319807 -6.322503 3.364577 0
M  V30 51 H -0.655921 -4.014098 2.199985 0
M  V30 52 H -2.319268 -3.176645 -1.622599 0
M  V30 53 H -3.144207 -1.582403 -1.349130 0
M  V30 54 H -0.316825 -2.363795 -0.476591 0
M  V30 55 H -0.627812 -1.539596 -2.029597 0
M  V30 END ATOM
M  V30 BEGIN BOND
M  V30 1 1 1 2
M  V30 2 1 2 3
M  V30 3 2 3 4
M  V30 4 1 3 5
M  V30 5 1 5 6
M  V30 6 1 6 7
M  V30 7 1 7 8
M  V30 8 1 8 9
M  V30 9 1 6 10
M  V30 10 2 10 11
M  V30 11 1 11 12
M  V30 12 2 12 13
M  V30 13 1 13 14
M  V30 14 1 13 15
M  V30 15 2 15 16
M  V30 16 1 2 17
M  V30 17 1 17 18
M  V30 18 1 18 19
M  V30 19 1 19 20
M  V30 20 1 20 21
M  V30 21 2 21 22
M  V30 22 1 22 23
M  V30 23 1 23 24
M  V30 24 2 24 25
M  V30 25 1 25 26
M  V30 26 2 26 27
M  V30 27 1 27 28
M  V30 28 1 19 29
M  V30 29 1 29 30
M  V30 30 1 30 2
M  V30 31 1 16 10
M  V30 32 2 28 20
M  V30 33 1 28 24
M  V30 34 1 1 31
M  V30 35 1 1 32
M  V30 36 1 5 33
M  V30 37 1 6 34 CFG=1
M  V30 38 1 7 35
M  V30 39 1 7 36
M  V30 40 1 8 37
M  V30 41 1 8 38
M  V30 42 1 9 39
M  V30 43 1 11 40
M  V30 44 1 12 41
M  V30 45 1 15 42
M  V30 46 1 16 43
M  V30 47 1 17 44
M  V30 48 1 17 45
M  V30 49 1 18 46
M  V30 50 1 18 47
M  V30 51 1 22 48
M  V30 52 1 23 49
M  V30 53 1 26 50
M  V30 54 1 27 51
M  V30 55 1 29 52
M  V30 56 1 29 53
M  V30 57 1 30 54
M  V30 58 1 30 55
M  V30 END BOND
M  V30 END CTAB
M  END
>  <Dataset>  (11) 
ChEMBL_PKA

>  <Ligand_Instance>  (11) 
nan

>  <PDB_ID>  (11) 
nan

>  <Standardized_SMILES>  (11) 
NC1(C(=O)N[C@@H](CCO)c2ccc(Cl)cc2)CCN(c2nc[nH]c3nccc2-3)CC1

>  <Name>  (11) 
CAPIVASERTIB

>  <Pocket>  (11) 
nan

>  <ATP_Site>  (11) 
nan

>  <Peripheral>  (11) 
nan

>  <Num_H_Atoms_ProtBoundConf>  (11) 
nan

>  <Num_Resolved_Atoms>  (11) 
nan

>  <Num_Not_Resolved_Atoms>  (11) 
nan

$$$$
CHEMBL266487
     RDKit          3D

  0  0  0  0  0  0  0  0  0  0999 V3000
M  V30 BEGIN CTAB
M  V30 COUNTS 38 42 0 0 0
M  V30 BEGIN ATOM
M  V30 1 O -0.983770 -4.768993 0.546017 0
M  V30 2 C 0.085269 -4.144131 0.516222 0
M  V30 3 N 1.441193 -4.569026 0.395807 0
M  V30 4 C 2.242711 -3.382714 0.421468 0
M  V30 5 O 3.479588 -3.531426 0.328986 0
M  V30 6 C 1.331056 -2.248248 0.558033 0
M  V30 7 C 1.941410 -0.927392 0.539485 0
M  V30 8 C 2.979770 -0.355533 1.255838 0
M  V30 9 N 3.196303 0.902701 0.850301 0
M  V30 10 C 2.333515 1.230905 -0.137835 0
M  V30 11 C 2.151320 2.366874 -0.881907 0
M  V30 12 C 1.185126 2.439593 -1.862308 0
M  V30 13 C 0.395564 1.338610 -2.084839 0
M  V30 14 C 0.609100 0.215986 -1.316575 0
M  V30 15 C 1.562216 0.093525 -0.322920 0
M  V30 16 C 0.064006 -2.669279 0.617447 0
M  V30 17 C -1.094336 -1.793315 0.801981 0
M  V30 18 C -2.299158 -1.757368 0.088981 0
M  V30 19 N -3.095471 -0.795357 0.620134 0
M  V30 20 C -2.469261 -0.193903 1.654209 0
M  V30 21 C -2.914700 0.832646 2.486853 0
M  V30 22 C -2.054998 1.261456 3.497474 0
M  V30 23 C -0.797307 0.676263 3.659894 0
M  V30 24 C -0.453883 -0.331084 2.782599 0
M  V30 25 C -1.233860 -0.814961 1.761367 0
M  V30 26 H 1.676377 -5.572852 0.312193 0
M  V30 27 H 3.511866 -0.908437 2.035177 0
M  V30 28 H 3.914341 1.575589 1.210089 0
M  V30 29 H 2.742680 3.256577 -0.748405 0
M  V30 30 H 1.010794 3.322296 -2.473793 0
M  V30 31 H -0.365654 1.392218 -2.855152 0
M  V30 32 H -0.054937 -0.603660 -1.568325 0
M  V30 33 H -2.522574 -2.403310 -0.740412 0
M  V30 34 H -4.063609 -0.588219 0.239554 0
M  V30 35 H -3.892735 1.272989 2.345524 0
M  V30 36 H -2.440213 2.061081 4.119775 0
M  V30 37 H -0.167072 1.039618 4.453067 0
M  V30 38 H 0.524050 -0.740851 2.976176 0
M  V30 END ATOM
M  V30 BEGIN BOND
M  V30 1 2 1 2
M  V30 2 1 2 3
M  V30 3 1 3 4
M  V30 4 2 4 5
M  V30 5 1 4 6
M  V30 6 1 6 7
M  V30 7 2 7 8
M  V30 8 1 8 9
M  V30 9 1 9 10
M  V30 10 2 10 11
M  V30 11 1 11 12
M  V30 12 2 12 13
M  V30 13 1 13 14
M  V30 14 2 14 15
M  V30 15 2 6 16
M  V30 16 1 16 17
M  V30 17 2 17 18
M  V30 18 1 18 19
M  V30 19 1 19 20
M  V30 20 2 20 21
M  V30 21 1 21 22
M  V30 22 2 22 23
M  V30 23 1 23 24
M  V30 24 2 24 25
M  V30 25 1 16 2
M  V30 26 1 25 17
M  V30 27 1 15 7
M  V30 28 1 25 20
M  V30 29 1 15 10
M  V30 30 1 3 26
M  V30 31 1 8 27
M  V30 32 1 9 28
M  V30 33 1 11 29
M  V30 34 1 12 30
M  V30 35 1 13 31
M  V30 36 1 14 32
M  V30 37 1 18 33
M  V30 38 1 19 34
M  V30 39 1 21 35
M  V30 40 1 22 36
M  V30 41 1 23 37
M  V30 42 1 24 38
M  V30 END BOND
M  V30 END CTAB
M  END
>  <Dataset>  (12) 
ChEMBL_PKA

>  <Ligand_Instance>  (12) 
nan

>  <PDB_ID>  (12) 
nan

>  <Standardized_SMILES>  (12) 
O=C1NC(=O)C(c2c[nH]c3ccccc23)=C1c1c[nH]c2ccccc12

>  <Name>  (12) 
RO-316233

>  <Pocket>  (12) 
nan

>  <ATP_Site>  (12) 
nan

>  <Peripheral>  (12) 
nan

>  <Num_H_Atoms_ProtBoundConf>  (12) 
nan

>  <Num_Resolved_Atoms>  (12) 
nan

>  <Num_Not_Resolved_Atoms>  (12) 
nan

$$$$
CHEMBL278041
     RDKit          3D

  0  0  0  0  0  0  0  0  0  0999 V3000
M  V30 BEGIN CTAB
M  V30 COUNTS 39 42 0 0 0
M  V30 BEGIN ATOM
M  V30 1 O 2.283708 -4.770793 6.069531 0
M  V30 2 C 1.885645 -3.912349 5.034775 0
M  V30 3 C 1.049509 -4.417208 4.063628 0
M  V30 4 C 0.652683 -3.558819 3.030598 0
M  V30 5 C 1.136308 -2.258195 3.066826 0
M  V30 6 C 0.715860 -1.368813 1.982928 0
M  V30 7 N 1.034645 -0.076671 1.778615 0
M  V30 8 C 0.443696 0.391625 0.662329 0
M  V30 9 C 0.535136 1.734125 0.095678 0
M  V30 10 C 1.124299 1.714450 -1.156991 0
M  V30 11 C 1.317287 2.878956 -1.891653 0
M  V30 12 C 0.901413 4.095036 -1.340342 0
M  V30 13 F 1.057384 5.287402 -2.003716 0
M  V30 14 C 0.320332 4.096262 -0.099748 0
M  V30 15 C 0.129243 2.940865 0.628267 0
M  V30 16 C -0.287274 -0.649739 0.127676 0
M  V30 17 C -1.114960 -0.677842 -1.078353 0
M  V30 18 C -0.943921 -1.470107 -2.195727 0
M  V30 19 C -1.847376 -1.345359 -3.246006 0
M  V30 20 N -2.880167 -0.484399 -3.216490 0
M  V30 21 C -3.032077 0.278220 -2.123158 0
M  V30 22 C -2.183483 0.219795 -1.036084 0
M  V30 23 N -0.098025 -1.708912 0.959864 0
M  V30 24 C 1.974091 -1.769045 4.048673 0
M  V30 25 C 2.372614 -2.623553 5.082094 0
M  V30 26 H 1.606213 -5.403385 6.511915 0
M  V30 27 H 0.705589 -5.448673 4.093642 0
M  V30 28 H 0.005565 -3.949118 2.278711 0
M  V30 29 H 1.484371 0.853633 -1.687051 0
M  V30 30 H 1.758955 2.961217 -2.857667 0
M  V30 31 H -0.032509 4.990413 0.406410 0
M  V30 32 H -0.315965 2.835880 1.607710 0
M  V30 33 H -0.103316 -2.133439 -2.155706 0
M  V30 34 H -1.594842 -2.030113 -4.065639 0
M  V30 35 H -3.880715 0.974684 -2.117635 0
M  V30 36 H -2.402937 0.871485 -0.227494 0
M  V30 37 H -0.539160 -2.644640 0.797548 0
M  V30 38 H 2.325818 -0.749029 4.036448 0
M  V30 39 H 3.023329 -2.314651 5.881707 0
M  V30 END ATOM
M  V30 BEGIN BOND
M  V30 1 1 1 2
M  V30 2 2 2 3
M  V30 3 1 3 4
M  V30 4 2 4 5
M  V30 5 1 5 6
M  V30 6 2 6 7
M  V30 7 1 7 8
M  V30 8 1 8 9
M  V30 9 2 9 10
M  V30 10 1 10 11
M  V30 11 2 11 12
M  V30 12 1 12 13
M  V30 13 1 12 14
M  V30 14 2 14 15
M  V30 15 2 8 16
M  V30 16 1 16 17
M  V30 17 2 17 18
M  V30 18 1 18 19
M  V30 19 2 19 20
M  V30 20 1 20 21
M  V30 21 2 21 22
M  V30 22 1 16 23
M  V30 23 1 5 24
M  V30 24 2 24 25
M  V30 25 1 25 2
M  V30 26 1 23 6
M  V30 27 1 15 9
M  V30 28 1 22 17
M  V30 29 1 1 26
M  V30 30 1 3 27
M  V30 31 1 4 28
M  V30 32 1 10 29
M  V30 33 1 11 30
M  V30 34 1 14 31
M  V30 35 1 15 32
M  V30 36 1 18 33
M  V30 37 1 19 34
M  V30 38 1 21 35
M  V30 39 1 22 36
M  V30 40 1 23 37
M  V30 41 1 24 38
M  V30 42 1 25 39
M  V30 END BOND
M  V30 END CTAB
M  END
>  <Dataset>  (13) 
ChEMBL_PKA

>  <Ligand_Instance>  (13) 
nan

>  <PDB_ID>  (13) 
nan

>  <Standardized_SMILES>  (13) 
Oc1ccc(-c2nc(-c3ccc(F)cc3)c(-c3ccncc3)[nH]2)cc1

>  <Name>  (13) 
SB-202190

>  <Pocket>  (13) 
nan

>  <ATP_Site>  (13) 
nan

>  <Peripheral>  (13) 
nan

>  <Num_H_Atoms_ProtBoundConf>  (13) 
nan

>  <Num_Resolved_Atoms>  (13) 
nan

>  <Num_Not_Resolved_Atoms>  (13) 
nan

$$$$
CHEMBL279185
     RDKit          3D

  0  0  0  0  0  0  0  0  0  0999 V3000
M  V30 BEGIN CTAB
M  V30 COUNTS 189 191 0 0 0
M  V30 BEGIN ATOM
M  V30 1 N 1.087104 2.901299 4.803577 0
M  V30 2 C 0.013666 3.533089 5.388915 0
M  V30 3 N 1.216259 4.256523 5.497082 0
M  V30 4 N -1.268914 2.956393 5.377310 0
M  V30 5 C -1.713490 2.396212 4.087154 0
M  V30 6 C -3.036785 1.732764 4.244451 0
M  V30 7 C -3.534083 1.143986 2.992181 0
M  V30 8 C -3.873644 1.983599 1.829368 0 CFG=1
M  V30 9 N -2.782765 2.758806 1.324655 0
M  V30 10 C -2.854039 4.134767 0.980676 0
M  V30 11 O -4.036322 4.540915 1.189293 0
M  V30 12 C -1.795897 4.962273 0.488581 0 CFG=1
M  V30 13 C -1.372789 5.960005 1.604644 0
M  V30 14 C -2.517956 6.840568 2.024231 0
M  V30 15 C -1.979821 7.801424 3.063171 0
M  V30 16 N -1.444802 7.149251 4.216216 0
M  V30 17 C -2.177457 6.455067 5.190374 0
M  V30 18 N -3.347876 6.010025 4.857454 0
M  V30 19 N -1.640279 6.273957 6.468834 0
M  V30 20 N -0.534279 4.275931 0.162921 0
M  V30 21 C 0.553189 4.907626 -0.521688 0
M  V30 22 O 0.447266 6.136244 -0.855764 0
M  V30 23 C 1.800562 4.036440 -0.802299 0 CFG=1
M  V30 24 C 2.624761 4.105830 0.441605 0
M  V30 25 C 3.920995 3.457700 0.490359 0
M  V30 26 C 4.191261 2.026877 0.408594 0
M  V30 27 N 5.689064 1.909915 0.531844 0
M  V30 28 C 6.363056 2.428367 -0.626388 0
M  V30 29 N 5.760986 2.409691 -1.746063 0
M  V30 30 N 7.708894 2.933349 -0.454597 0
M  V30 31 N 1.381807 2.744453 -1.157936 0
M  V30 32 C 1.673348 1.640503 -1.946324 0
M  V30 33 O 2.731189 1.859962 -2.685390 0
M  V30 34 C 1.186971 0.300086 -2.229659 0 CFG=1
M  V30 35 C 1.569666 -0.257682 -3.523058 0
M  V30 36 C 0.971372 -1.585690 -3.787611 0
M  V30 37 C 1.408595 -2.154918 -5.131984 0
M  V30 38 N 0.776949 -3.458964 -5.239796 0
M  V30 39 C 0.951175 -4.108332 -6.519724 0
M  V30 40 N 1.712445 -3.609533 -7.443546 0
M  V30 41 N 0.238442 -5.324045 -6.689736 0
M  V30 42 N 1.258925 -0.491394 -1.031768 0
M  V30 43 C 2.290594 -1.417787 -0.935723 0
M  V30 44 O 3.023455 -1.314278 -1.990771 0
M  V30 45 C 3.060401 -2.482169 -0.316887 0 CFG=1
M  V30 46 C 4.569707 -2.397981 -0.534810 0
M  V30 47 C 5.272440 -3.584354 0.007355 0
M  V30 48 C 6.776911 -3.495778 -0.203312 0
M  V30 49 N 7.339200 -2.343611 0.407482 0
M  V30 50 C 8.740951 -2.137124 0.223833 0
M  V30 51 N 9.367725 -2.527047 -0.866703 0
M  V30 52 N 9.651210 -1.497717 1.094857 0
M  V30 53 N 2.724318 -2.820509 1.030460 0
M  V30 54 C 3.334248 -2.580743 2.281102 0
M  V30 55 O 4.408524 -1.837109 2.241100 0
M  V30 56 C 3.318153 -2.822765 3.775663 0 CFG=1
M  V30 57 C 3.100765 -1.521495 4.440745 0
M  V30 58 C 3.117092 -1.433476 5.925226 0
M  V30 59 C 2.078594 -2.236667 6.612163 0
M  V30 60 N 0.761081 -1.813529 6.200172 0
M  V30 61 C -0.180087 -2.702054 6.761176 0
M  V30 62 N -0.262891 -3.474674 7.806896 0
M  V30 63 N -1.512498 -2.971329 6.228332 0
M  V30 64 N 2.230456 -3.739840 4.034757 0
M  V30 65 C 2.245607 -5.090424 3.576480 0
M  V30 66 O 3.169004 -5.599702 2.840282 0
M  V30 67 C 1.365047 -6.243844 3.744650 0
M  V30 68 C 1.016241 -6.965710 2.445014 0
M  V30 69 C 0.189543 -6.041047 1.621203 0
M  V30 70 C -0.284774 -6.482287 0.285000 0
M  V30 71 C -1.111055 -5.284099 -0.261436 0
M  V30 72 N -1.671790 -5.647763 -1.510855 0
M  V30 73 C -2.444022 -4.527674 -1.904740 0
M  V30 74 O -2.730423 -3.362603 -1.483245 0
M  V30 75 C -3.300368 -4.157256 -2.985632 0 CFG=1
M  V30 76 O -3.861194 -2.862760 -2.965696 0
M  V30 77 C -4.765958 -2.959202 -4.041765 0 CFG=1
M  V30 78 N -5.227373 -1.686735 -4.407412 0
M  V30 79 C -6.459455 -1.634009 -5.047528 0
M  V30 80 N -6.728683 -0.370576 -5.320816 0
M  V30 81 C -5.704950 0.399656 -4.874395 0
M  V30 82 C -5.734335 1.813812 -5.042242 0
M  V30 83 N -6.773943 2.528081 -5.654882 0
M  V30 84 N -4.531488 2.201862 -4.465410 0
M  V30 85 C -3.642646 1.458223 -3.930976 0
M  V30 86 N -3.690238 0.088055 -3.806010 0
M  V30 87 C -4.799724 -0.445651 -4.318897 0
M  V30 88 C -4.134660 -3.797672 -5.079851 0 CFG=2
M  V30 89 O -4.912020 -4.955936 -5.286250 0
M  V30 90 C -2.846036 -4.309840 -4.407498 0 CFG=2
M  V30 91 O -2.520104 -5.586319 -4.775080 0
M  V30 92 C -4.365883 1.040952 0.737104 0
M  V30 93 N -4.612158 0.308579 -0.438671 0
M  V30 94 O -5.294863 0.376678 1.360598 0
M  V30 95 H 1.976008 3.506238 4.919512 0
M  V30 96 H 1.017016 5.072715 6.182310 0
M  V30 97 H 0.954783 5.017275 6.172012 0
M  V30 98 H -1.372543 3.206279 6.405442 0
M  V30 99 H -1.767951 3.230498 3.388849 0
M  V30 100 H -0.935775 1.665337 3.768723 0
M  V30 101 H -3.751109 2.488824 4.673357 0
M  V30 102 H -2.951597 0.895745 4.991794 0
M  V30 103 H -2.813564 0.313848 2.698522 0
M  V30 104 H -4.464706 0.538417 3.274854 0
M  V30 105 H -4.754151 2.636632 2.071297 0
M  V30 106 H -1.935772 2.166260 1.246716 0
M  V30 107 H -2.114341 5.623034 -0.338020 0
M  V30 108 H -0.585762 6.600030 1.166991 0
M  V30 109 H -1.045959 5.381781 2.470620 0
M  V30 110 H -3.332271 6.294224 2.528409 0
M  V30 111 H -2.881523 7.468727 1.172699 0
M  V30 112 H -2.778699 8.509100 3.407367 0
M  V30 113 H -1.205501 8.472819 2.579314 0
M  V30 114 H -0.398674 7.188624 4.348310 0
M  V30 115 H -3.886386 5.490179 5.604491 0
M  V30 116 H -0.739557 6.735044 6.751650 0
M  V30 117 H -2.036811 5.701987 7.235194 0
M  V30 118 H -0.560426 3.326422 0.503741 0
M  V30 119 H 2.325814 4.505701 -1.634455 0
M  V30 120 H 2.006169 3.673024 1.322564 0
M  V30 121 H 2.731942 5.193448 0.765190 0
M  V30 122 H 4.482568 3.797318 1.450095 0
M  V30 123 H 4.602239 3.934348 -0.331665 0
M  V30 124 H 3.816902 1.444158 1.294692 0
M  V30 125 H 3.987090 1.446384 -0.469569 0
M  V30 126 H 6.151450 1.519143 1.349368 0
M  V30 127 H 6.183677 2.775469 -2.658381 0
M  V30 128 H 8.689229 3.243272 -0.347398 0
M  V30 129 H 8.040606 3.884413 -0.114932 0
M  V30 130 H 0.492634 2.337606 -0.724154 0
M  V30 131 H 0.030410 0.404070 -2.349809 0
M  V30 132 H 1.062784 0.427940 -4.302170 0
M  V30 133 H 2.627832 -0.157100 -3.857465 0
M  V30 134 H 0.999465 -2.303709 -2.987057 0
M  V30 135 H -0.171168 -1.445245 -3.960948 0
M  V30 136 H 2.516330 -2.234683 -5.203528 0
M  V30 137 H 1.078375 -1.543552 -5.996626 0
M  V30 138 H 0.240358 -3.932052 -4.477537 0
M  V30 139 H 1.768795 -4.158126 -8.341417 0
M  V30 140 H 0.512201 -6.049346 -5.992728 0
M  V30 141 H -0.455470 -5.990338 -7.134219 0
M  V30 142 H 0.825381 -0.699335 -0.098668 0
M  V30 143 H 2.851836 -3.455523 -0.897392 0
M  V30 144 H 5.008376 -1.474393 -0.135532 0
M  V30 145 H 4.699475 -2.318170 -1.640566 0
M  V30 146 H 4.970276 -4.517469 -0.645414 0
M  V30 147 H 5.045966 -3.912100 0.996726 0
M  V30 148 H 7.275527 -4.400743 0.233750 0
M  V30 149 H 6.965848 -3.548703 -1.285635 0
M  V30 150 H 6.956563 -1.539940 1.000856 0
M  V30 151 H 8.886693 -3.001376 -1.640278 0
M  V30 152 H 9.756347 -0.477738 0.858933 0
M  V30 153 H 10.132235 -1.985651 1.865252 0
M  V30 154 H 1.896326 -3.331357 1.382612 0
M  V30 155 H 4.297394 -3.338440 4.033136 0
M  V30 156 H 2.129228 -1.048983 4.095302 0
M  V30 157 H 3.847555 -0.747842 4.083355 0
M  V30 158 H 2.893158 -0.339313 6.164285 0
M  V30 159 H 4.148630 -1.612372 6.337143 0
M  V30 160 H 2.208030 -2.025058 7.724651 0
M  V30 161 H 2.271237 -3.297600 6.423029 0
M  V30 162 H 0.303407 -1.067457 5.659069 0
M  V30 163 H 0.616836 -3.435928 8.436708 0
M  V30 164 H -2.398994 -3.249905 5.770887 0
M  V30 165 H -2.324173 -2.413718 6.652527 0
M  V30 166 H 1.279159 -3.805793 4.486098 0
M  V30 167 H 0.390340 -5.897356 4.168525 0
M  V30 168 H 1.746935 -6.984074 4.491403 0
M  V30 169 H 1.922714 -7.348606 1.972533 0
M  V30 170 H 0.417445 -7.844188 2.757903 0
M  V30 171 H -0.802874 -5.913609 2.220852 0
M  V30 172 H 0.597916 -5.040925 1.632275 0
M  V30 173 H -0.927156 -7.346069 0.333598 0
M  V30 174 H 0.502432 -6.627691 -0.462011 0
M  V30 175 H -0.455631 -4.392171 -0.299828 0
M  V30 176 H -1.888647 -5.085671 0.517865 0
M  V30 177 H -1.771693 -6.361721 -2.263086 0
M  V30 178 H -4.253121 -4.807636 -2.942500 0
M  V30 179 H -5.616075 -3.596386 -3.605470 0
M  V30 180 H -7.197115 -2.371063 -5.350275 0
M  V30 181 H -7.062518 1.966779 -6.495426 0
M  V30 182 H -6.836384 3.353789 -5.003021 0
M  V30 183 H -2.755257 1.964757 -3.536416 0
M  V30 184 H -3.925397 -3.291475 -6.036835 0
M  V30 185 H -4.651677 -5.459103 -6.096816 0
M  V30 186 H -2.069579 -3.571495 -4.696008 0
M  V30 187 H -2.637907 -5.677930 -5.751905 0
M  V30 188 H -5.329563 0.700334 -1.121459 0
M  V30 189 H -4.025429 -0.581698 -0.544200 0
M  V30 END ATOM
M  V30 BEGIN BOND
M  V30 1 2 1 2 CFG=2
M  V30 2 1 2 3
M  V30 3 1 2 4
M  V30 4 1 4 5
M  V30 5 1 5 6
M  V30 6 1 6 7
M  V30 7 1 7 8
M  V30 8 1 8 9
M  V30 9 1 9 10
M  V30 10 2 10 11
M  V30 11 1 10 12
M  V30 12 1 12 13
M  V30 13 1 13 14
M  V30 14 1 14 15
M  V30 15 1 15 16
M  V30 16 1 16 17
M  V30 17 2 17 18 CFG=2
M  V30 18 1 17 19
M  V30 19 1 12 20
M  V30 20 1 20 21
M  V30 21 2 21 22
M  V30 22 1 21 23
M  V30 23 1 23 24
M  V30 24 1 24 25
M  V30 25 1 25 26
M  V30 26 1 26 27
M  V30 27 1 27 28
M  V30 28 2 28 29 CFG=2
M  V30 29 1 28 30
M  V30 30 1 23 31
M  V30 31 1 31 32
M  V30 32 2 32 33
M  V30 33 1 32 34
M  V30 34 1 34 35
M  V30 35 1 35 36
M  V30 36 1 36 37
M  V30 37 1 37 38
M  V30 38 1 38 39
M  V30 39 2 39 40 CFG=2
M  V30 40 1 39 41
M  V30 41 1 34 42
M  V30 42 1 42 43
M  V30 43 2 43 44
M  V30 44 1 43 45
M  V30 45 1 45 46
M  V30 46 1 46 47
M  V30 47 1 47 48
M  V30 48 1 48 49
M  V30 49 1 49 50
M  V30 50 2 50 51 CFG=2
M  V30 51 1 50 52
M  V30 52 1 45 53
M  V30 53 1 53 54
M  V30 54 2 54 55
M  V30 55 1 54 56
M  V30 56 1 56 57
M  V30 57 1 57 58
M  V30 58 1 58 59
M  V30 59 1 59 60
M  V30 60 1 60 61
M  V30 61 2 61 62 CFG=2
M  V30 62 1 61 63
M  V30 63 1 56 64
M  V30 64 1 64 65
M  V30 65 2 65 66
M  V30 66 1 65 67
M  V30 67 1 67 68
M  V30 68 1 68 69
M  V30 69 1 69 70
M  V30 70 1 70 71
M  V30 71 1 71 72
M  V30 72 1 72 73
M  V30 73 2 73 74
M  V30 74 1 73 75
M  V30 75 1 75 76
M  V30 76 1 76 77
M  V30 77 1 77 78
M  V30 78 1 78 79
M  V30 79 2 79 80
M  V30 80 1 80 81
M  V30 81 2 81 82
M  V30 82 1 82 83
M  V30 83 1 82 84
M  V30 84 2 84 85
M  V30 85 1 85 86
M  V30 86 2 86 87
M  V30 87 1 77 88
M  V30 88 1 88 89
M  V30 89 1 88 90
M  V30 90 1 90 91
M  V30 91 1 8 92
M  V30 92 1 92 93
M  V30 93 2 92 94
M  V30 94 1 90 75
M  V30 95 1 87 78
M  V30 96 1 87 81
M  V30 97 1 1 95
M  V30 98 1 3 96
M  V30 99 1 3 97
M  V30 100 1 4 98
M  V30 101 1 5 99
M  V30 102 1 5 100
M  V30 103 1 6 101
M  V30 104 1 6 102
M  V30 105 1 7 103
M  V30 106 1 7 104
M  V30 107 1 8 105 CFG=1
M  V30 108 1 9 106
M  V30 109 1 12 107 CFG=3
M  V30 110 1 13 108
M  V30 111 1 13 109
M  V30 112 1 14 110
M  V30 113 1 14 111
M  V30 114 1 15 112
M  V30 115 1 15 113
M  V30 116 1 16 114
M  V30 117 1 18 115
M  V30 118 1 19 116
M  V30 119 1 19 117
M  V30 120 1 20 118
M  V30 121 1 23 119 CFG=3
M  V30 122 1 24 120
M  V30 123 1 24 121
M  V30 124 1 25 122
M  V30 125 1 25 123
M  V30 126 1 26 124
M  V30 127 1 26 125
M  V30 128 1 27 126
M  V30 129 1 29 127
M  V30 130 1 30 128
M  V30 131 1 30 129
M  V30 132 1 31 130
M  V30 133 1 34 131 CFG=3
M  V30 134 1 35 132
M  V30 135 1 35 133
M  V30 136 1 36 134
M  V30 137 1 36 135
M  V30 138 1 37 136
M  V30 139 1 37 137
M  V30 140 1 38 138
M  V30 141 1 40 139
M  V30 142 1 41 140
M  V30 143 1 41 141
M  V30 144 1 42 142
M  V30 145 1 45 143 CFG=3
M  V30 146 1 46 144
M  V30 147 1 46 145
M  V30 148 1 47 146
M  V30 149 1 47 147
M  V30 150 1 48 148
M  V30 151 1 48 149
M  V30 152 1 49 150
M  V30 153 1 51 151
M  V30 154 1 52 152
M  V30 155 1 52 153
M  V30 156 1 53 154
M  V30 157 1 56 155 CFG=1
M  V30 158 1 57 156
M  V30 159 1 57 157
M  V30 160 1 58 158
M  V30 161 1 58 159
M  V30 162 1 59 160
M  V30 163 1 59 161
M  V30 164 1 60 162
M  V30 165 1 62 163
M  V30 166 1 63 164
M  V30 167 1 63 165
M  V30 168 1 64 166
M  V30 169 1 67 167
M  V30 170 1 67 168
M  V30 171 1 68 169
M  V30 172 1 68 170
M  V30 173 1 69 171
M  V30 174 1 69 172
M  V30 175 1 70 173
M  V30 176 1 70 174
M  V30 177 1 71 175
M  V30 178 1 71 176
M  V30 179 1 72 177
M  V30 180 1 75 178 CFG=3
M  V30 181 1 77 179 CFG=1
M  V30 182 1 79 180
M  V30 183 1 83 181
M  V30 184 1 83 182
M  V30 185 1 85 183
M  V30 186 1 88 184 CFG=3
M  V30 187 1 89 185
M  V30 188 1 90 186 CFG=1
M  V30 189 1 91 187
M  V30 190 1 93 188
M  V30 191 1 93 189
M  V30 END BOND
M  V30 END CTAB
M  END
>  <Dataset>  (14) 
ChEMBL_PKA

>  <Ligand_Instance>  (14) 
nan

>  <PDB_ID>  (14) 
nan

>  <Standardized_SMILES>  (14) 
N=C(N)NCCC[C@@H](NC(=O)[C@@H](CCCNC(=N)N)NC(=O)[C@@H](CCCNC(=N)N)NC(=O)[C@@H](CCCNC(=N)N)NC(=O)[C@@H](CCCNC(=N)N)NC(=O)[C@@H](CCCNC(=N)N)NC(=O)CCCCCNC(=O)[C@H]1O[C@@H](n2cnc3c(N)ncnc32)[C@H](O)[C@@H]1O)C(N)=O

>  <Name>  (14) 
nan

>  <Pocket>  (14) 
nan

>  <ATP_Site>  (14) 
nan

>  <Peripheral>  (14) 
nan

>  <Num_H_Atoms_ProtBoundConf>  (14) 
nan

>  <Num_Resolved_Atoms>  (14) 
nan

>  <Num_Not_Resolved_Atoms>  (14) 
nan

$$$$
CHEMBL281948
     RDKit          3D

  0  0  0  0  0  0  0  0  0  0999 V3000
M  V30 BEGIN CTAB
M  V30 COUNTS 56 63 0 0 0
M  V30 BEGIN ATOM
M  V30 1 C 3.527261 -2.085875 4.491359 0
M  V30 2 O 2.776681 -1.618369 3.400545 0
M  V30 3 C 2.975156 -0.398188 2.770956 0
M  V30 4 O 3.930256 0.237702 3.318176 0
M  V30 5 C 2.079488 -0.048575 1.610791 0 CFG=1
M  V30 6 O 2.413517 1.183090 1.075966 0
M  V30 7 C 2.225946 -1.209241 0.691699 0
M  V30 8 C 1.157237 -2.134676 1.247335 0 CFG=1
M  V30 9 O 0.466513 -1.481454 2.214373 0
M  V30 10 C 0.656172 -0.090795 2.115305 0 CFG=1
M  V30 11 C 0.703396 0.506814 3.503376 0
M  V30 12 N -0.312758 0.501163 1.233926 0
M  V30 13 C -0.953170 1.676010 1.189183 0
M  V30 14 C -0.806444 2.756551 2.024529 0
M  V30 15 C -1.554827 3.890135 1.811496 0
M  V30 16 C -2.466314 4.011397 0.783751 0
M  V30 17 C -2.606006 2.923011 -0.049538 0
M  V30 18 C -1.858368 1.790614 0.163498 0
M  V30 19 C -1.786933 0.591382 -0.503127 0
M  V30 20 C -2.432944 0.085556 -1.612419 0
M  V30 21 C -2.163913 -1.175077 -2.089599 0
M  V30 22 C -1.239095 -1.927469 -1.446002 0
M  V30 23 C -0.766003 -3.177492 -1.699267 0
M  V30 24 C -0.939400 -4.201122 -2.579371 0
M  V30 25 C -0.275828 -5.406135 -2.575439 0
M  V30 26 C 0.676559 -5.613835 -1.570340 0
M  V30 27 C 0.895534 -4.610769 -0.649095 0
M  V30 28 C 0.179297 -3.427352 -0.730331 0
M  V30 29 N 0.285578 -2.389404 0.078943 0
M  V30 30 C -0.594946 -1.427348 -0.341619 0
M  V30 31 C -0.849978 -0.160831 0.161132 0
M  V30 32 C -2.994087 -1.381695 -3.229206 0
M  V30 33 O -3.170345 -2.306245 -4.032611 0
M  V30 34 N -3.781977 -0.240511 -3.458153 0
M  V30 35 C -3.481439 0.772120 -2.450479 0
M  V30 36 H 3.354317 -3.200941 4.522534 0
M  V30 37 H 4.617239 -1.966595 4.319519 0
M  V30 38 H 3.180341 -1.708031 5.468791 0
M  V30 39 H 3.375889 1.185344 0.924089 0
M  V30 40 H 2.068142 -0.874275 -0.327460 0
M  V30 41 H 3.238950 -1.655028 0.733744 0
M  V30 42 H 1.665987 -3.044890 1.551638 0
M  V30 43 H 1.063050 -0.295258 4.249630 0
M  V30 44 H 1.484697 1.263008 3.655046 0
M  V30 45 H -0.291618 0.719032 3.936193 0
M  V30 46 H -0.099622 2.714630 2.828431 0
M  V30 47 H -1.396108 4.720854 2.510120 0
M  V30 48 H -3.022596 4.926213 0.669808 0
M  V30 49 H -3.304991 2.960555 -0.872016 0
M  V30 50 H -1.646065 -4.106459 -3.364043 0
M  V30 51 H -0.441986 -6.194786 -3.292557 0
M  V30 52 H 1.249002 -6.526512 -1.483637 0
M  V30 53 H 1.628435 -4.765552 0.127599 0
M  V30 54 H -4.492361 0.043997 -4.137777 0
M  V30 55 H -3.112616 1.689690 -2.916417 0
M  V30 56 H -4.408396 0.896054 -1.850136 0
M  V30 END ATOM
M  V30 BEGIN BOND
M  V30 1 1 1 2
M  V30 2 1 2 3
M  V30 3 2 3 4
M  V30 4 1 3 5
M  V30 5 1 5 6 CFG=3
M  V30 6 1 5 7
M  V30 7 1 7 8
M  V30 8 1 8 9
M  V30 9 1 9 10
M  V30 10 1 10 11 CFG=1
M  V30 11 1 10 12
M  V30 12 1 12 13
M  V30 13 2 13 14
M  V30 14 1 14 15
M  V30 15 2 15 16
M  V30 16 1 16 17
M  V30 17 2 17 18
M  V30 18 1 18 19
M  V30 19 2 19 20
M  V30 20 1 20 21
M  V30 21 2 21 22
M  V30 22 1 22 23
M  V30 23 2 23 24
M  V30 24 1 24 25
M  V30 25 2 25 26
M  V30 26 1 26 27
M  V30 27 2 27 28
M  V30 28 1 28 29
M  V30 29 1 29 30
M  V30 30 2 30 31
M  V30 31 1 21 32
M  V30 32 2 32 33
M  V30 33 1 32 34
M  V30 34 1 34 35
M  V30 35 1 10 5
M  V30 36 1 31 12
M  V30 37 1 29 8
M  V30 38 1 18 13
M  V30 39 1 31 19
M  V30 40 1 35 20
M  V30 41 1 30 22
M  V30 42 1 28 23
M  V30 43 1 1 36
M  V30 44 1 1 37
M  V30 45 1 1 38
M  V30 46 1 6 39
M  V30 47 1 7 40
M  V30 48 1 7 41
M  V30 49 1 8 42 CFG=1
M  V30 50 1 11 43
M  V30 51 1 11 44
M  V30 52 1 11 45
M  V30 53 1 14 46
M  V30 54 1 15 47
M  V30 55 1 16 48
M  V30 56 1 17 49
M  V30 57 1 24 50
M  V30 58 1 25 51
M  V30 59 1 26 52
M  V30 60 1 27 53
M  V30 61 1 34 54
M  V30 62 1 35 55
M  V30 63 1 35 56
M  V30 END BOND
M  V30 END CTAB
M  END
>  <Dataset>  (15) 
ChEMBL_PKA

>  <Ligand_Instance>  (15) 
nan

>  <PDB_ID>  (15) 
nan

>  <Standardized_SMILES>  (15) 
COC(=O)[C@@]1(O)C[C@H]2O[C@]1(C)n1c3ccccc3c3c4c(c5c6ccccc6n2c5c31)C(=O)NC4

>  <Name>  (15) 
K-252A

>  <Pocket>  (15) 
nan

>  <ATP_Site>  (15) 
nan

>  <Peripheral>  (15) 
nan

>  <Num_H_Atoms_ProtBoundConf>  (15) 
nan

>  <Num_Resolved_Atoms>  (15) 
nan

>  <Num_Not_Resolved_Atoms>  (15) 
nan

$$$$
CHEMBL3099612
     RDKit          3D

  0  0  0  0  0  0  0  0  0  0999 V3000
M  V30 BEGIN CTAB
M  V30 COUNTS 29 31 0 0 0
M  V30 BEGIN ATOM
M  V30 1 O 1.429662 -2.251952 4.751375 0
M  V30 2 C 0.661771 -2.461934 3.776991 0
M  V30 3 C -0.814748 -2.372896 3.790375 0
M  V30 4 C -1.241332 -2.557051 2.368840 0 CFG=1
M  V30 5 O -1.979253 -1.479310 1.860983 0
M  V30 6 C 0.021115 -2.818720 1.575994 0 CFG=1
M  V30 7 C 0.304279 -1.729609 0.590603 0
M  V30 8 C 0.378664 -1.970659 -0.717083 0
M  V30 9 C 0.651314 -0.943952 -1.709582 0
M  V30 10 O 0.707048 -1.244996 -2.929051 0
M  V30 11 C 0.851764 0.426476 -1.214385 0
M  V30 12 C 1.114597 1.432582 -2.138707 0
M  V30 13 C 1.307088 2.731031 -1.698211 0
M  V30 14 C 1.234023 2.996404 -0.356790 0
M  V30 15 C 0.976205 2.032543 0.595745 0
M  V30 16 C 0.783270 0.727553 0.147193 0
M  V30 17 C 0.502438 -0.377277 1.075303 0
M  V30 18 O 0.440770 -0.101566 2.310363 0
M  V30 19 O 1.083213 -2.814531 2.520349 0
M  V30 20 H -1.208303 -3.178895 4.465725 0
M  V30 21 H -1.121957 -1.374652 4.181007 0
M  V30 22 H -1.872898 -3.470921 2.315347 0
M  V30 23 H -1.729395 -1.409846 0.884894 0
M  V30 24 H 0.046147 -3.812905 1.102998 0
M  V30 25 H 0.222403 -2.994909 -1.015535 0
M  V30 26 H 1.167394 1.199742 -3.189751 0
M  V30 27 H 1.512760 3.530810 -2.396677 0
M  V30 28 H 1.378977 4.007856 0.041838 0
M  V30 29 H 0.915881 2.229184 1.658544 0
M  V30 END ATOM
M  V30 BEGIN BOND
M  V30 1 2 1 2
M  V30 2 1 2 3
M  V30 3 1 3 4
M  V30 4 1 4 5
M  V30 5 1 4 6
M  V30 6 1 6 7
M  V30 7 2 7 8
M  V30 8 1 8 9
M  V30 9 2 9 10
M  V30 10 1 9 11
M  V30 11 2 11 12
M  V30 12 1 12 13
M  V30 13 2 13 14
M  V30 14 1 14 15
M  V30 15 2 15 16
M  V30 16 1 16 17
M  V30 17 2 17 18
M  V30 18 1 6 19
M  V30 19 1 19 2
M  V30 20 1 17 7
M  V30 21 1 16 11
M  V30 22 1 3 20
M  V30 23 1 3 21
M  V30 24 1 4 22 CFG=1
M  V30 25 1 5 23
M  V30 26 1 6 24 CFG=3
M  V30 27 1 8 25
M  V30 28 1 12 26
M  V30 29 1 13 27
M  V30 30 1 14 28
M  V30 31 1 15 29
M  V30 END BOND
M  V30 END CTAB
M  END
>  <Dataset>  (16) 
ChEMBL_PKA

>  <Ligand_Instance>  (16) 
nan

>  <PDB_ID>  (16) 
nan

>  <Standardized_SMILES>  (16) 
O=C1C[C@@H](O)[C@@H](C2=CC(=O)c3ccccc3C2=O)O1

>  <Name>  (16) 
nan

>  <Pocket>  (16) 
nan

>  <ATP_Site>  (16) 
nan

>  <Peripheral>  (16) 
nan

>  <Num_H_Atoms_ProtBoundConf>  (16) 
nan

>  <Num_Resolved_Atoms>  (16) 
nan

>  <Num_Not_Resolved_Atoms>  (16) 
nan

$$$$
CHEMBL3128043
     RDKit          3D

  0  0  0  0  0  0  0  0  0  0999 V3000
M  V30 BEGIN CTAB
M  V30 COUNTS 65 69 0 0 0
M  V30 BEGIN ATOM
M  V30 1 C 0.460926 3.573924 5.990151 0
M  V30 2 C 1.345655 3.551666 4.776087 0
M  V30 3 N 2.165181 2.478981 4.735880 0
M  V30 4 C 2.977193 2.444620 3.634720 0
M  V30 5 N 3.926336 1.422844 3.368317 0
M  V30 6 C 3.722309 0.215903 2.687002 0
M  V30 7 N 4.705054 -0.688626 2.479829 0
M  V30 8 N 4.196429 -1.699134 1.823580 0
M  V30 9 C 2.894363 -1.473409 1.595834 0
M  V30 10 C 2.547464 -0.243084 2.139143 0
M  V30 11 C 1.119090 0.019771 1.896461 0
M  V30 12 N 0.675342 -1.088947 1.056009 0
M  V30 13 C -0.611971 -1.087950 0.452564 0
M  V30 14 O -0.846349 0.019025 0.966245 0
M  V30 15 N -1.098080 -2.144078 -0.370645 0
M  V30 16 C -2.426133 -2.105267 -0.974026 0 CFG=2
M  V30 17 C -3.348982 -3.108034 -0.397955 0
M  V30 18 N -4.661331 -3.152344 -0.908226 0
M  V30 19 C -4.868729 -3.626951 -2.230025 0
M  V30 20 C -5.491191 -2.001679 -0.656341 0
M  V30 21 C -2.348766 -2.032014 -2.443043 0
M  V30 22 C -3.036193 -1.229524 -3.333262 0
M  V30 23 C -2.809814 -1.303730 -4.682568 0
M  V30 24 C -1.881372 -2.189501 -5.193381 0
M  V30 25 C -1.182703 -3.001062 -4.326004 0
M  V30 26 C -1.419575 -2.919313 -2.948413 0
M  V30 27 C 1.720807 -2.116219 0.956503 0
M  V30 28 C 1.299216 -3.352042 1.689731 0
M  V30 29 C 2.097218 -2.383072 -0.491888 0
M  V30 30 C 2.912810 3.445114 2.692333 0
M  V30 31 S 3.823510 3.652184 1.204615 0
M  V30 32 C 2.943991 5.269437 0.767533 0
M  V30 33 C 2.021969 5.490103 1.829786 0
M  V30 34 C 2.076959 4.513471 2.759941 0
M  V30 35 N 1.274349 4.529798 3.866374 0
M  V30 36 H -0.468205 2.985675 5.828846 0
M  V30 37 H 0.963451 3.139095 6.859996 0
M  V30 38 H 0.226149 4.638817 6.215312 0
M  V30 39 H 4.817611 1.723691 3.770680 0
M  V30 40 H 4.773207 -2.535349 1.543548 0
M  V30 41 H 0.954647 0.957307 1.293910 0
M  V30 42 H 0.560342 0.068407 2.846705 0
M  V30 43 H -0.408576 -2.926899 -0.485743 0
M  V30 44 H -2.830038 -1.096899 -0.648216 0
M  V30 45 H -3.423488 -2.888990 0.697205 0
M  V30 46 H -2.952246 -4.158455 -0.449710 0
M  V30 47 H -4.012303 -4.106304 -2.710045 0
M  V30 48 H -5.634610 -4.470559 -2.137761 0
M  V30 49 H -5.337254 -2.859710 -2.910105 0
M  V30 50 H -6.468248 -2.407952 -0.279771 0
M  V30 51 H -5.114163 -1.379760 0.178838 0
M  V30 52 H -5.744400 -1.421284 -1.568348 0
M  V30 53 H -3.743602 -0.569369 -2.814187 0
M  V30 54 H -3.417486 -0.617276 -5.265211 0
M  V30 55 H -1.753753 -2.193583 -6.280541 0
M  V30 56 H -0.464074 -3.679496 -4.786574 0
M  V30 57 H -0.801995 -3.610443 -2.408885 0
M  V30 58 H 1.646818 -4.227309 1.072454 0
M  V30 59 H 0.207485 -3.399049 1.860217 0
M  V30 60 H 1.821562 -3.374822 2.656229 0
M  V30 61 H 3.173035 -2.214498 -0.677602 0
M  V30 62 H 1.541614 -1.674217 -1.103802 0
M  V30 63 H 1.916754 -3.452760 -0.716440 0
M  V30 64 H 3.003475 6.089565 -0.160588 0
M  V30 65 H 1.412243 6.373754 1.771516 0
M  V30 END ATOM
M  V30 BEGIN BOND
M  V30 1 1 1 2
M  V30 2 2 2 3
M  V30 3 1 3 4
M  V30 4 1 4 5
M  V30 5 1 5 6
M  V30 6 2 6 7
M  V30 7 1 7 8
M  V30 8 1 8 9
M  V30 9 2 9 10
M  V30 10 1 10 11
M  V30 11 1 11 12
M  V30 12 1 12 13
M  V30 13 2 13 14
M  V30 14 1 13 15
M  V30 15 1 15 16
M  V30 16 1 16 17
M  V30 17 1 17 18
M  V30 18 1 18 19
M  V30 19 1 18 20
M  V30 20 1 16 21
M  V30 21 2 21 22
M  V30 22 1 22 23
M  V30 23 2 23 24
M  V30 24 1 24 25
M  V30 25 2 25 26
M  V30 26 1 12 27
M  V30 27 1 27 28
M  V30 28 1 27 29
M  V30 29 2 4 30
M  V30 30 1 30 31
M  V30 31 1 31 32
M  V30 32 2 32 33
M  V30 33 1 33 34
M  V30 34 2 34 35
M  V30 35 1 35 2
M  V30 36 1 10 6
M  V30 37 1 26 21
M  V30 38 1 34 30
M  V30 39 1 27 9
M  V30 40 1 1 36
M  V30 41 1 1 37
M  V30 42 1 1 38
M  V30 43 1 5 39
M  V30 44 1 8 40
M  V30 45 1 11 41
M  V30 46 1 11 42
M  V30 47 1 15 43
M  V30 48 1 16 44 CFG=1
M  V30 49 1 17 45
M  V30 50 1 17 46
M  V30 51 1 19 47
M  V30 52 1 19 48
M  V30 53 1 19 49
M  V30 54 1 20 50
M  V30 55 1 20 51
M  V30 56 1 20 52
M  V30 57 1 22 53
M  V30 58 1 23 54
M  V30 59 1 24 55
M  V30 60 1 25 56
M  V30 61 1 26 57
M  V30 62 1 28 58
M  V30 63 1 28 59
M  V30 64 1 28 60
M  V30 65 1 29 61
M  V30 66 1 29 62
M  V30 67 1 29 63
M  V30 68 1 32 64
M  V30 69 1 33 65
M  V30 END BOND
M  V30 END CTAB
M  END
>  <Dataset>  (17) 
ChEMBL_PKA

>  <Ligand_Instance>  (17) 
nan

>  <PDB_ID>  (17) 
nan

>  <Standardized_SMILES>  (17) 
Cc1nc(Nc2n[nH]c3c2CN(C(=O)N[C@H](CN(C)C)c2ccccc2)C3(C)C)c2sccc2n1

>  <Name>  (17) 
PF-03758309

>  <Pocket>  (17) 
nan

>  <ATP_Site>  (17) 
nan

>  <Peripheral>  (17) 
nan

>  <Num_H_Atoms_ProtBoundConf>  (17) 
nan

>  <Num_Resolved_Atoms>  (17) 
nan

>  <Num_Not_Resolved_Atoms>  (17) 
nan

$$$$
CHEMBL3137336
     RDKit          3D

  0  0  0  0  0  0  0  0  0  0999 V3000
M  V30 BEGIN CTAB
M  V30 COUNTS 44 46 0 0 0
M  V30 BEGIN ATOM
M  V30 1 C -0.036993 -3.883561 0.862006 0
M  V30 2 N 0.830216 -4.668758 -0.012203 0
M  V30 3 N 0.687038 -5.983812 -0.098157 0
M  V30 4 C 1.588033 -6.479016 -0.954318 0
M  V30 5 C 2.275016 -5.366510 -1.369799 0
M  V30 6 Cl 3.539081 -5.703434 -2.514291 0
M  V30 7 C 1.820964 -4.212496 -0.794316 0
M  V30 8 C 2.291987 -2.865966 -0.985313 0
M  V30 9 C 1.751498 -1.776901 -0.347413 0
M  V30 10 C 2.386317 -0.579500 -0.701703 0
M  V30 11 C 2.205908 0.822061 -0.323234 0
M  V30 12 O 2.921081 1.746072 -0.789932 0
M  V30 13 N 1.159727 1.116990 0.622094 0
M  V30 14 C 0.982812 2.526502 0.998750 0 CFG=2
M  V30 15 C 1.051596 2.643035 2.501541 0
M  V30 16 N 0.898131 3.967520 3.005953 0
M  V30 17 C -0.450417 2.871300 0.588692 0
M  V30 18 C -1.451875 2.022888 1.275562 0
M  V30 19 C -2.068238 2.279305 2.482293 0
M  V30 20 C -2.993726 1.422436 3.039160 0
M  V30 21 C -3.352648 0.255544 2.411566 0
M  V30 22 F -4.265067 -0.558876 2.991279 0
M  V30 23 C -2.765801 -0.048406 1.202026 0
M  V30 24 F -3.136185 -1.192826 0.614680 0
M  V30 25 C -1.843457 0.827115 0.668873 0
M  V30 26 O 3.327671 -0.958416 -1.570663 0
M  V30 27 C 3.263297 -2.257564 -1.722546 0
M  V30 28 Cl 4.379632 -3.024319 -2.803559 0
M  V30 29 H 0.522660 -3.412793 1.704470 0
M  V30 30 H -0.716439 -4.622960 1.383065 0
M  V30 31 H -0.681309 -3.213277 0.289873 0
M  V30 32 H 1.593622 -7.542507 -1.128531 0
M  V30 33 H 0.967817 -1.586397 0.355552 0
M  V30 34 H 0.544934 0.383537 1.035217 0
M  V30 35 H 1.709572 3.162511 0.499453 0
M  V30 36 H 0.327178 1.928985 2.948079 0
M  V30 37 H 2.053947 2.268628 2.858802 0
M  V30 38 H 0.163160 4.540906 2.578805 0
M  V30 39 H 1.818467 4.415751 3.091500 0
M  V30 40 H -0.675766 3.928416 0.830815 0
M  V30 41 H -0.558079 2.771351 -0.513930 0
M  V30 42 H -1.785166 3.199419 2.974650 0
M  V30 43 H -3.436996 1.688130 3.989264 0
M  V30 44 H -1.445314 0.479075 -0.296525 0
M  V30 END ATOM
M  V30 BEGIN BOND
M  V30 1 1 1 2
M  V30 2 1 2 3
M  V30 3 2 3 4
M  V30 4 1 4 5
M  V30 5 1 5 6
M  V30 6 2 5 7
M  V30 7 1 7 8
M  V30 8 1 8 9
M  V30 9 2 9 10
M  V30 10 1 10 11
M  V30 11 2 11 12
M  V30 12 1 11 13
M  V30 13 1 13 14
M  V30 14 1 14 15
M  V30 15 1 15 16
M  V30 16 1 14 17
M  V30 17 1 17 18
M  V30 18 2 18 19
M  V30 19 1 19 20
M  V30 20 2 20 21
M  V30 21 1 21 22
M  V30 22 1 21 23
M  V30 23 1 23 24
M  V30 24 2 23 25
M  V30 25 1 10 26
M  V30 26 1 26 27
M  V30 27 1 27 28
M  V30 28 1 7 2
M  V30 29 2 27 8
M  V30 30 1 25 18
M  V30 31 1 1 29
M  V30 32 1 1 30
M  V30 33 1 1 31
M  V30 34 1 4 32
M  V30 35 1 9 33
M  V30 36 1 13 34
M  V30 37 1 14 35 CFG=3
M  V30 38 1 15 36
M  V30 39 1 15 37
M  V30 40 1 16 38
M  V30 41 1 16 39
M  V30 42 1 17 40
M  V30 43 1 17 41
M  V30 44 1 19 42
M  V30 45 1 20 43
M  V30 46 1 25 44
M  V30 END BOND
M  V30 END CTAB
M  END
>  <Dataset>  (18) 
ChEMBL_PKA

>  <Ligand_Instance>  (18) 
nan

>  <PDB_ID>  (18) 
nan

>  <Standardized_SMILES>  (18) 
Cn1ncc(Cl)c1-c1cc(C(=O)N[C@H](CN)Cc2ccc(F)c(F)c2)oc1Cl

>  <Name>  (18) 
UPROSERTIB

>  <Pocket>  (18) 
nan

>  <ATP_Site>  (18) 
nan

>  <Peripheral>  (18) 
nan

>  <Num_H_Atoms_ProtBoundConf>  (18) 
nan

>  <Num_Resolved_Atoms>  (18) 
nan

>  <Num_Not_Resolved_Atoms>  (18) 
nan

$$$$
CHEMBL3401979
     RDKit          3D

  0  0  0  0  0  0  0  0  0  0999 V3000
M  V30 BEGIN CTAB
M  V30 COUNTS 52 57 0 0 0
M  V30 BEGIN ATOM
M  V30 1 O -2.130271 2.355343 5.711182 0
M  V30 2 C -1.087051 2.055433 4.875220 0
M  V30 3 C -0.945554 2.037164 3.506511 0
M  V30 4 C 0.344137 1.653365 3.205705 0
M  V30 5 C 0.866628 1.519773 1.845358 0 CFG=1
M  V30 6 C 1.945770 2.575944 1.660924 0
M  V30 7 C 3.221169 2.020842 2.243735 0
M  V30 8 C 3.726679 0.955344 1.288837 0
M  V30 9 C 2.535613 0.382099 0.531123 0
M  V30 10 C 2.108428 1.461837 -0.467274 0
M  V30 11 C 2.197826 2.834868 0.188411 0
M  V30 12 C 1.410113 0.111634 1.553100 0 CFG=2
M  V30 13 N 0.412954 -0.587151 0.845087 0
M  V30 14 C 0.370879 -1.954499 0.500988 0
M  V30 15 N -0.594389 -2.566637 -0.223324 0
M  V30 16 C -0.622105 -3.868324 -0.523103 0
M  V30 17 C -1.739606 -4.373071 -1.317487 0
M  V30 18 C -1.928957 -5.678947 -1.719820 0
M  V30 19 N -3.078922 -5.745071 -2.438241 0
M  V30 20 C -3.642108 -4.515804 -2.513292 0
M  V30 21 N -4.789306 -4.094771 -3.123190 0
M  V30 22 C -5.128589 -2.785935 -3.043836 0
M  V30 23 C -4.343210 -1.879534 -2.364299 0
M  V30 24 F -4.632038 -0.549384 -2.249232 0
M  V30 25 C -3.167071 -2.307094 -1.738112 0
M  V30 26 C -2.810454 -3.657815 -1.816035 0
M  V30 27 N 0.338900 -4.716769 -0.118629 0
M  V30 28 C 1.355429 -4.180720 0.620936 0
M  V30 29 C 1.343174 -2.830509 0.907057 0
M  V30 30 F 2.397436 -2.471550 1.650792 0
M  V30 31 N 0.930214 1.454908 4.413734 0
M  V30 32 O 0.064766 1.699635 5.336627 0
M  V30 33 H -2.627246 1.586821 6.186319 0
M  V30 34 H -1.788420 2.303106 2.853374 0
M  V30 35 H 0.049230 1.779736 1.142320 0
M  V30 36 H 1.603074 3.494651 2.126661 0
M  V30 37 H 3.000258 1.616162 3.251263 0
M  V30 38 H 3.924815 2.884892 2.335329 0
M  V30 39 H 4.120419 0.120140 1.920722 0
M  V30 40 H 4.474353 1.325934 0.584416 0
M  V30 41 H 2.789367 -0.496304 -0.049264 0
M  V30 42 H 2.905502 1.455777 -1.238386 0
M  V30 43 H 1.144227 1.264353 -0.932776 0
M  V30 44 H 1.487619 3.559557 -0.243897 0
M  V30 45 H 3.208053 3.285140 0.116243 0
M  V30 46 H 1.882111 -0.342631 2.409711 0
M  V30 47 H -0.459327 -0.087432 0.486069 0
M  V30 48 H -1.304042 -6.540358 -1.526121 0
M  V30 49 H -3.522686 -6.596523 -2.896517 0
M  V30 50 H -6.019025 -2.359188 -3.495464 0
M  V30 51 H -2.540206 -1.611985 -1.201686 0
M  V30 52 H 2.105781 -4.892993 0.925917 0
M  V30 END ATOM
M  V30 BEGIN BOND
M  V30 1 1 1 2
M  V30 2 2 2 3
M  V30 3 1 3 4
M  V30 4 1 4 5
M  V30 5 1 5 6
M  V30 6 1 6 7
M  V30 7 1 7 8
M  V30 8 1 8 9
M  V30 9 1 9 10
M  V30 10 1 10 11
M  V30 11 1 9 12
M  V30 12 1 12 13
M  V30 13 1 13 14
M  V30 14 2 14 15
M  V30 15 1 15 16
M  V30 16 1 16 17
M  V30 17 2 17 18
M  V30 18 1 18 19
M  V30 19 1 19 20
M  V30 20 2 20 21
M  V30 21 1 21 22
M  V30 22 2 22 23
M  V30 23 1 23 24
M  V30 24 1 23 25
M  V30 25 2 25 26
M  V30 26 2 16 27
M  V30 27 1 27 28
M  V30 28 2 28 29
M  V30 29 1 29 30
M  V30 30 2 4 31
M  V30 31 1 31 32
M  V30 32 1 32 2
M  V30 33 1 12 5
M  V30 34 1 29 14
M  V30 35 1 11 6
M  V30 36 1 26 17
M  V30 37 1 26 20
M  V30 38 1 1 33
M  V30 39 1 3 34
M  V30 40 1 5 35 CFG=3
M  V30 41 1 6 36
M  V30 42 1 7 37
M  V30 43 1 7 38
M  V30 44 1 8 39
M  V30 45 1 8 40
M  V30 46 1 9 41
M  V30 47 1 10 42
M  V30 48 1 10 43
M  V30 49 1 11 44
M  V30 50 1 11 45
M  V30 51 1 12 46 CFG=1
M  V30 52 1 13 47
M  V30 53 1 18 48
M  V30 54 1 19 49
M  V30 55 1 22 50
M  V30 56 1 25 51
M  V30 57 1 28 52
M  V30 END BOND
M  V30 END CTAB
M  END
>  <Dataset>  (19) 
ChEMBL_PKA

>  <Ligand_Instance>  (19) 
nan

>  <PDB_ID>  (19) 
nan

>  <Standardized_SMILES>  (19) 
Oc1cc([C@H]2C3CCC(CC3)[C@@H]2Nc2nc(-c3c[nH]c4ncc(F)cc34)ncc2F)no1

>  <Name>  (19) 
nan

>  <Pocket>  (19) 
nan

>  <ATP_Site>  (19) 
nan

>  <Peripheral>  (19) 
nan

>  <Num_H_Atoms_ProtBoundConf>  (19) 
nan

>  <Num_Resolved_Atoms>  (19) 
nan

>  <Num_Not_Resolved_Atoms>  (19) 
nan

$$$$
CHEMBL3401983
     RDKit          3D

  0  0  0  0  0  0  0  0  0  0999 V3000
M  V30 BEGIN CTAB
M  V30 COUNTS 50 54 0 0 0
M  V30 BEGIN ATOM
M  V30 1 N 2.995194 0.288529 -2.875387 0
M  V30 2 S 3.939938 -0.432629 -1.583416 0
M  V30 3 O 4.852769 0.667382 -1.085768 0
M  V30 4 O 4.720997 -1.545097 -2.189752 0
M  V30 5 C 2.872867 -0.955539 -0.294976 0 CFG=1
M  V30 6 C 3.592619 -1.802165 0.719259 0
M  V30 7 C 2.654223 -2.226015 1.840462 0
M  V30 8 C 1.923380 -1.037983 2.411978 0
M  V30 9 C 2.496545 0.216815 1.802599 0
M  V30 10 C 3.990913 0.227964 1.963013 0
M  V30 11 C 4.671938 -0.985553 1.378963 0
M  V30 12 C 2.097147 0.195558 0.313837 0 CFG=2
M  V30 13 N 0.685655 -0.149972 0.315437 0
M  V30 14 C -0.518668 0.598621 0.543431 0
M  V30 15 N -1.743908 0.044879 0.559242 0
M  V30 16 C -2.799629 0.811111 0.753928 0
M  V30 17 C -4.083896 0.124025 0.755047 0
M  V30 18 C -5.317823 0.711926 0.938126 0
M  V30 19 N -6.286330 -0.219603 0.878665 0
M  V30 20 C -5.750998 -1.433981 0.659325 0
M  V30 21 N -6.267772 -2.675185 0.519055 0
M  V30 22 C -5.450261 -3.721501 0.301954 0
M  V30 23 C -4.077082 -3.572376 0.215381 0
M  V30 24 F -3.329970 -4.657787 -0.001879 0
M  V30 25 C -3.568494 -2.297792 0.361166 0
M  V30 26 C -4.394943 -1.207472 0.585390 0
M  V30 27 N -2.763780 2.142143 0.944902 0
M  V30 28 C -1.567960 2.783029 0.943695 0
M  V30 29 C -0.447321 1.970682 0.736833 0
M  V30 30 F 0.699236 2.682970 0.727481 0
M  V30 31 H 2.044846 -0.152274 -2.831432 0
M  V30 32 H 3.410412 0.064075 -3.803362 0
M  V30 33 H 2.144462 -1.666831 -0.774811 0
M  V30 34 H 3.982178 -2.693594 0.202641 0
M  V30 35 H 3.310242 -2.621860 2.670350 0
M  V30 36 H 1.978656 -3.040840 1.549197 0
M  V30 37 H 0.836068 -1.064118 2.105996 0
M  V30 38 H 1.993306 -1.003193 3.524034 0
M  V30 39 H 2.098286 1.123065 2.281054 0
M  V30 40 H 4.189448 0.208891 3.075747 0
M  V30 41 H 4.461521 1.146690 1.582619 0
M  V30 42 H 5.172395 -1.592180 2.182333 0
M  V30 43 H 5.423611 -0.661183 0.649197 0
M  V30 44 H 2.329643 1.140781 -0.182372 0
M  V30 45 H 0.467210 -1.163087 0.107803 0
M  V30 46 H -5.462970 1.788620 1.106611 0
M  V30 47 H -7.311713 0.006396 0.992509 0
M  V30 48 H -5.947642 -4.672758 0.202454 0
M  V30 49 H -2.516193 -2.183724 0.294790 0
M  V30 50 H -1.526832 3.850704 1.095917 0
M  V30 END ATOM
M  V30 BEGIN BOND
M  V30 1 1 1 2
M  V30 2 2 2 3
M  V30 3 2 2 4
M  V30 4 1 2 5
M  V30 5 1 5 6
M  V30 6 1 6 7
M  V30 7 1 7 8
M  V30 8 1 8 9
M  V30 9 1 9 10
M  V30 10 1 10 11
M  V30 11 1 9 12
M  V30 12 1 12 13
M  V30 13 1 13 14
M  V30 14 2 14 15
M  V30 15 1 15 16
M  V30 16 1 16 17
M  V30 17 2 17 18
M  V30 18 1 18 19
M  V30 19 1 19 20
M  V30 20 2 20 21
M  V30 21 1 21 22
M  V30 22 2 22 23
M  V30 23 1 23 24
M  V30 24 1 23 25
M  V30 25 2 25 26
M  V30 26 2 16 27
M  V30 27 1 27 28
M  V30 28 2 28 29
M  V30 29 1 29 30
M  V30 30 1 12 5
M  V30 31 1 29 14
M  V30 32 1 11 6
M  V30 33 1 26 17
M  V30 34 1 26 20
M  V30 35 1 1 31
M  V30 36 1 1 32
M  V30 37 1 5 33 CFG=3
M  V30 38 1 6 34
M  V30 39 1 7 35
M  V30 40 1 7 36
M  V30 41 1 8 37
M  V30 42 1 8 38
M  V30 43 1 9 39
M  V30 44 1 10 40
M  V30 45 1 10 41
M  V30 46 1 11 42
M  V30 47 1 11 43
M  V30 48 1 12 44 CFG=3
M  V30 49 1 13 45
M  V30 50 1 18 46
M  V30 51 1 19 47
M  V30 52 1 22 48
M  V30 53 1 25 49
M  V30 54 1 28 50
M  V30 END BOND
M  V30 END CTAB
M  END
>  <Dataset>  (20) 
ChEMBL_PKA

>  <Ligand_Instance>  (20) 
nan

>  <PDB_ID>  (20) 
nan

>  <Standardized_SMILES>  (20) 
NS(=O)(=O)[C@H]1C2CCC(CC2)[C@@H]1Nc1nc(-c2c[nH]c3ncc(F)cc23)ncc1F

>  <Name>  (20) 
nan

>  <Pocket>  (20) 
nan

>  <ATP_Site>  (20) 
nan

>  <Peripheral>  (20) 
nan

>  <Num_H_Atoms_ProtBoundConf>  (20) 
nan

>  <Num_Resolved_Atoms>  (20) 
nan

>  <Num_Not_Resolved_Atoms>  (20) 
nan

$$$$
CHEMBL3401984
     RDKit          3D

  0  0  0  0  0  0  0  0  0  0999 V3000
M  V30 BEGIN CTAB
M  V30 COUNTS 53 57 0 0 0
M  V30 BEGIN ATOM
M  V30 1 O -0.398858 3.266653 3.209393 0
M  V30 2 C 0.031400 1.963241 3.361673 0
M  V30 3 C 1.126247 1.522100 2.440910 0
M  V30 4 O 2.190180 2.431138 2.664869 0
M  V30 5 C 0.725361 1.375111 1.036032 0 CFG=1
M  V30 6 C 0.238402 2.639278 0.411109 0
M  V30 7 C -0.718648 2.217785 -0.723661 0
M  V30 8 C -0.081639 1.001686 -1.363889 0
M  V30 9 C 1.428970 1.093961 -1.253016 0
M  V30 10 C 1.805886 2.573454 -1.509821 0
M  V30 11 C 1.352855 3.374322 -0.334698 0
M  V30 12 C 1.844858 0.812853 0.157447 0 CFG=2
M  V30 13 N 2.249593 -0.503444 0.450712 0
M  V30 14 C 1.640847 -1.753785 0.580461 0
M  V30 15 N 0.338057 -2.023345 0.447000 0
M  V30 16 C -0.261608 -3.208364 0.566793 0
M  V30 17 C -1.704280 -3.363353 0.394432 0
M  V30 18 C -2.572092 -2.332164 0.098844 0
M  V30 19 N -3.796618 -2.899068 0.026737 0
M  V30 20 C -3.699474 -4.239615 0.268850 0
M  V30 21 N -4.623378 -5.236236 0.311473 0
M  V30 22 C -4.266722 -6.507429 0.577495 0
M  V30 23 C -2.958200 -6.898951 0.824707 0
M  V30 24 F -2.566920 -8.153509 1.092680 0
M  V30 25 C -2.026830 -5.871476 0.777854 0
M  V30 26 C -2.387629 -4.557156 0.503901 0
M  V30 27 N 0.519199 -4.264104 0.854708 0
M  V30 28 C 1.849302 -4.150648 1.018586 0
M  V30 29 C 2.369900 -2.887052 0.874477 0
M  V30 30 F 3.724407 -2.813035 1.048393 0
M  V30 31 H -0.589624 3.706881 4.078253 0
M  V30 32 H -0.872670 1.279610 3.271788 0
M  V30 33 H 0.340202 1.788843 4.440223 0
M  V30 34 H 1.490135 0.525019 2.855838 0
M  V30 35 H 3.057081 1.961072 2.590046 0
M  V30 36 H -0.125727 0.625614 1.019095 0
M  V30 37 H -0.281224 3.346596 1.042034 0
M  V30 38 H -1.715188 1.983924 -0.316565 0
M  V30 39 H -0.834114 3.025003 -1.456819 0
M  V30 40 H -0.542961 0.142420 -0.900632 0
M  V30 41 H -0.281734 1.082237 -2.458623 0
M  V30 42 H 1.953815 0.527747 -2.023356 0
M  V30 43 H 1.311585 2.857927 -2.466843 0
M  V30 44 H 2.890586 2.629758 -1.617069 0
M  V30 45 H 0.861875 4.291359 -0.734372 0
M  V30 46 H 2.148486 3.709614 0.348188 0
M  V30 47 H 2.699974 1.549306 0.381535 0
M  V30 48 H 3.309168 -0.542332 0.612163 0
M  V30 49 H -2.370540 -1.273999 -0.053906 0
M  V30 50 H -4.705428 -2.402046 -0.183370 0
M  V30 51 H -5.005294 -7.315192 0.613439 0
M  V30 52 H -0.991075 -6.118554 0.962816 0
M  V30 53 H 2.466168 -5.003642 1.249289 0
M  V30 END ATOM
M  V30 BEGIN BOND
M  V30 1 1 1 2
M  V30 2 1 2 3
M  V30 3 1 3 4
M  V30 4 1 3 5
M  V30 5 1 5 6
M  V30 6 1 6 7
M  V30 7 1 7 8
M  V30 8 1 8 9
M  V30 9 1 9 10
M  V30 10 1 10 11
M  V30 11 1 9 12
M  V30 12 1 12 13
M  V30 13 1 13 14
M  V30 14 2 14 15
M  V30 15 1 15 16
M  V30 16 1 16 17
M  V30 17 2 17 18
M  V30 18 1 18 19
M  V30 19 1 19 20
M  V30 20 2 20 21
M  V30 21 1 21 22
M  V30 22 2 22 23
M  V30 23 1 23 24
M  V30 24 1 23 25
M  V30 25 2 25 26
M  V30 26 2 16 27
M  V30 27 1 27 28
M  V30 28 2 28 29
M  V30 29 1 29 30
M  V30 30 1 12 5
M  V30 31 1 29 14
M  V30 32 1 11 6
M  V30 33 1 26 17
M  V30 34 1 26 20
M  V30 35 1 1 31
M  V30 36 1 2 32
M  V30 37 1 2 33
M  V30 38 1 3 34
M  V30 39 1 4 35
M  V30 40 1 5 36 CFG=1
M  V30 41 1 6 37
M  V30 42 1 7 38
M  V30 43 1 7 39
M  V30 44 1 8 40
M  V30 45 1 8 41
M  V30 46 1 9 42
M  V30 47 1 10 43
M  V30 48 1 10 44
M  V30 49 1 11 45
M  V30 50 1 11 46
M  V30 51 1 12 47 CFG=1
M  V30 52 1 13 48
M  V30 53 1 18 49
M  V30 54 1 19 50
M  V30 55 1 22 51
M  V30 56 1 25 52
M  V30 57 1 28 53
M  V30 END BOND
M  V30 END CTAB
M  END
>  <Dataset>  (21) 
ChEMBL_PKA

>  <Ligand_Instance>  (21) 
nan

>  <PDB_ID>  (21) 
nan

>  <Standardized_SMILES>  (21) 
OCC(O)[C@H]1C2CCC(CC2)[C@@H]1Nc1nc(-c2c[nH]c3ncc(F)cc23)ncc1F

>  <Name>  (21) 
nan

>  <Pocket>  (21) 
nan

>  <ATP_Site>  (21) 
nan

>  <Peripheral>  (21) 
nan

>  <Num_H_Atoms_ProtBoundConf>  (21) 
nan

>  <Num_Resolved_Atoms>  (21) 
nan

>  <Num_Not_Resolved_Atoms>  (21) 
nan

$$$$
CHEMBL3401988
     RDKit          3D

  0  0  0  0  0  0  0  0  0  0999 V3000
M  V30 BEGIN CTAB
M  V30 COUNTS 53 58 0 0 0
M  V30 BEGIN ATOM
M  V30 1 C -1.359112 -2.828623 3.846382 0
M  V30 2 C -0.701991 -2.549742 2.545648 0
M  V30 3 N -1.297788 -2.639444 1.348082 0
M  V30 4 O -0.444559 -2.329367 0.417674 0
M  V30 5 C 0.708347 -2.030869 0.912077 0
M  V30 6 C 1.933240 -1.632251 0.243305 0 CFG=1
M  V30 7 C 2.325958 -2.470707 -0.951660 0
M  V30 8 C 3.861575 -2.460359 -0.978585 0
M  V30 9 C 4.267218 -1.023543 -0.662066 0
M  V30 10 C 3.166169 -0.059320 -1.129601 0
M  V30 11 C 2.807612 -0.595650 -2.525309 0
M  V30 12 C 1.924960 -1.807870 -2.266333 0
M  V30 13 C 1.934867 -0.195651 -0.292986 0 CFG=2
M  V30 14 N 1.770330 0.746109 0.754369 0
M  V30 15 C 0.662014 1.168272 1.519799 0
M  V30 16 N -0.607625 0.768263 1.339222 0
M  V30 17 C -1.617796 1.197119 2.128186 0
M  V30 18 C -3.008287 0.813312 1.931377 0
M  V30 19 C -4.083991 1.077869 2.753693 0
M  V30 20 N -5.216247 0.580704 2.230840 0
M  V30 21 C -4.954649 -0.022307 1.065537 0
M  V30 22 N -5.749887 -0.651543 0.183591 0
M  V30 23 C -5.207719 -1.170614 -0.938465 0
M  V30 24 C -3.857311 -1.071807 -1.203987 0
M  V30 25 F -3.392635 -1.613349 -2.342680 0
M  V30 26 C -3.090082 -0.420254 -0.271581 0
M  V30 27 C -3.594566 0.129220 0.895002 0
M  V30 28 N -1.378799 2.040033 3.122216 0
M  V30 29 C -0.148864 2.482962 3.366088 0
M  V30 30 C 0.873063 2.044963 2.561359 0
M  V30 31 F 2.115779 2.511235 2.830086 0
M  V30 32 N 0.554172 -2.167958 2.263669 0
M  V30 33 H -2.131526 -3.613931 3.759485 0
M  V30 34 H -1.792818 -1.900139 4.287572 0
M  V30 35 H -0.616921 -3.202249 4.599680 0
M  V30 36 H 2.781472 -1.627889 1.002825 0
M  V30 37 H 1.926930 -3.494691 -0.935099 0
M  V30 38 H 4.176384 -3.162950 -0.192489 0
M  V30 39 H 4.163082 -2.765808 -1.999079 0
M  V30 40 H 5.126478 -0.786736 -1.355014 0
M  V30 41 H 4.563024 -0.865125 0.372192 0
M  V30 42 H 3.585195 0.950045 -1.164937 0
M  V30 43 H 3.733358 -0.962715 -3.021917 0
M  V30 44 H 2.291326 0.168288 -3.135946 0
M  V30 45 H 2.133328 -2.570982 -3.053217 0
M  V30 46 H 0.853953 -1.598617 -2.322728 0
M  V30 47 H 1.041171 -0.074963 -0.985302 0
M  V30 48 H 2.700181 1.187626 0.959025 0
M  V30 49 H -4.042878 1.619385 3.710096 0
M  V30 50 H -6.166306 0.668061 2.696087 0
M  V30 51 H -5.944961 -1.651228 -1.569138 0
M  V30 52 H -2.042200 -0.327370 -0.464278 0
M  V30 53 H 0.054398 3.179174 4.184835 0
M  V30 END ATOM
M  V30 BEGIN BOND
M  V30 1 1 1 2
M  V30 2 2 2 3
M  V30 3 1 3 4
M  V30 4 1 4 5
M  V30 5 1 5 6
M  V30 6 1 6 7
M  V30 7 1 7 8
M  V30 8 1 8 9
M  V30 9 1 9 10
M  V30 10 1 10 11
M  V30 11 1 11 12
M  V30 12 1 10 13
M  V30 13 1 13 14
M  V30 14 1 14 15
M  V30 15 2 15 16
M  V30 16 1 16 17
M  V30 17 1 17 18
M  V30 18 2 18 19
M  V30 19 1 19 20
M  V30 20 1 20 21
M  V30 21 2 21 22
M  V30 22 1 22 23
M  V30 23 2 23 24
M  V30 24 1 24 25
M  V30 25 1 24 26
M  V30 26 2 26 27
M  V30 27 2 17 28
M  V30 28 1 28 29
M  V30 29 2 29 30
M  V30 30 1 30 31
M  V30 31 2 5 32
M  V30 32 1 32 2
M  V30 33 1 13 6
M  V30 34 1 30 15
M  V30 35 1 12 7
M  V30 36 1 27 18
M  V30 37 1 27 21
M  V30 38 1 1 33
M  V30 39 1 1 34
M  V30 40 1 1 35
M  V30 41 1 6 36 CFG=1
M  V30 42 1 7 37
M  V30 43 1 8 38
M  V30 44 1 8 39
M  V30 45 1 9 40
M  V30 46 1 9 41
M  V30 47 1 10 42
M  V30 48 1 11 43
M  V30 49 1 11 44
M  V30 50 1 12 45
M  V30 51 1 12 46
M  V30 52 1 13 47 CFG=3
M  V30 53 1 14 48
M  V30 54 1 19 49
M  V30 55 1 20 50
M  V30 56 1 23 51
M  V30 57 1 26 52
M  V30 58 1 29 53
M  V30 END BOND
M  V30 END CTAB
M  END
>  <Dataset>  (22) 
ChEMBL_PKA

>  <Ligand_Instance>  (22) 
nan

>  <PDB_ID>  (22) 
nan

>  <Standardized_SMILES>  (22) 
Cc1noc([C@H]2C3CCC(CC3)[C@@H]2Nc2nc(-c3c[nH]c4ncc(F)cc34)ncc2F)n1

>  <Name>  (22) 
nan

>  <Pocket>  (22) 
nan

>  <ATP_Site>  (22) 
nan

>  <Peripheral>  (22) 
nan

>  <Num_H_Atoms_ProtBoundConf>  (22) 
nan

>  <Num_Resolved_Atoms>  (22) 
nan

>  <Num_Not_Resolved_Atoms>  (22) 
nan

$$$$
CHEMBL3401990
     RDKit          3D

  0  0  0  0  0  0  0  0  0  0999 V3000
M  V30 BEGIN CTAB
M  V30 COUNTS 51 55 0 0 0
M  V30 BEGIN ATOM
M  V30 1 C -0.821514 0.912787 -1.429571 0
M  V30 2 S 0.835401 0.287184 -1.534265 0
M  V30 3 O 0.804548 -0.906709 -2.460880 0
M  V30 4 O 1.669984 1.347046 -2.161320 0
M  V30 5 C 1.457379 -0.225777 0.030305 0 CFG=1
M  V30 6 C 2.817741 -0.849648 -0.067921 0
M  V30 7 C 3.244199 -1.142327 1.392667 0
M  V30 8 C 3.646826 0.146847 2.070118 0
M  V30 9 C 2.995572 1.283960 1.272579 0
M  V30 10 C 3.813672 1.378508 0.016202 0
M  V30 11 C 3.822891 0.070297 -0.706802 0
M  V30 12 C 1.530780 0.912198 1.019021 0 CFG=2
M  V30 13 N 0.935328 0.648233 2.291126 0
M  V30 14 C -0.261728 0.014900 2.690014 0
M  V30 15 N -1.124814 -0.591913 1.854066 0
M  V30 16 C -2.244121 -1.127589 2.367718 0
M  V30 17 C -3.255213 -1.852166 1.607446 0
M  V30 18 C -4.516316 -2.305377 2.014179 0
M  V30 19 N -5.129896 -2.945162 1.026823 0
M  V30 20 C -4.360464 -2.968667 -0.067582 0
M  V30 21 N -4.588240 -3.505247 -1.256721 0
M  V30 22 C -3.670365 -3.430962 -2.244449 0
M  V30 23 C -2.489678 -2.766896 -1.940385 0
M  V30 24 F -1.591117 -2.711129 -2.950893 0
M  V30 25 C -2.264934 -2.211032 -0.694674 0
M  V30 26 C -3.202528 -2.290878 0.300093 0
M  V30 27 N -2.544774 -1.082830 3.698880 0
M  V30 28 C -1.735087 -0.497765 4.585778 0
M  V30 29 C -0.591826 0.047274 4.053333 0
M  V30 30 F 0.219596 0.641499 4.996504 0
M  V30 31 H -1.540524 0.270441 -1.994365 0
M  V30 32 H -0.894962 1.934859 -1.888902 0
M  V30 33 H -1.206535 1.024194 -0.418641 0
M  V30 34 H 0.785439 -1.040864 0.405694 0
M  V30 35 H 2.818850 -1.843791 -0.568837 0
M  V30 36 H 4.073121 -1.848105 1.445799 0
M  V30 37 H 2.329811 -1.507768 1.903850 0
M  V30 38 H 3.382009 0.235681 3.114127 0
M  V30 39 H 4.751170 0.312658 2.008653 0
M  V30 40 H 3.015447 2.221841 1.837681 0
M  V30 41 H 4.881853 1.514581 0.395179 0
M  V30 42 H 3.631765 2.271648 -0.593853 0
M  V30 43 H 3.580463 0.228792 -1.759922 0
M  V30 44 H 4.832671 -0.434211 -0.635498 0
M  V30 45 H 1.062698 1.796108 0.559307 0
M  V30 46 H 1.530026 1.022321 3.098336 0
M  V30 47 H -4.934156 -2.152784 3.004784 0
M  V30 48 H -6.088956 -3.370676 1.106286 0
M  V30 49 H -3.854193 -3.867108 -3.213425 0
M  V30 50 H -1.341104 -1.710639 -0.476950 0
M  V30 51 H -1.968492 -0.462544 5.623969 0
M  V30 END ATOM
M  V30 BEGIN BOND
M  V30 1 1 1 2
M  V30 2 2 2 3
M  V30 3 2 2 4
M  V30 4 1 2 5
M  V30 5 1 5 6
M  V30 6 1 6 7
M  V30 7 1 7 8
M  V30 8 1 8 9
M  V30 9 1 9 10
M  V30 10 1 10 11
M  V30 11 1 9 12
M  V30 12 1 12 13
M  V30 13 1 13 14
M  V30 14 2 14 15
M  V30 15 1 15 16
M  V30 16 1 16 17
M  V30 17 2 17 18
M  V30 18 1 18 19
M  V30 19 1 19 20
M  V30 20 2 20 21
M  V30 21 1 21 22
M  V30 22 2 22 23
M  V30 23 1 23 24
M  V30 24 1 23 25
M  V30 25 2 25 26
M  V30 26 2 16 27
M  V30 27 1 27 28
M  V30 28 2 28 29
M  V30 29 1 29 30
M  V30 30 1 12 5
M  V30 31 1 29 14
M  V30 32 1 11 6
M  V30 33 1 26 17
M  V30 34 1 26 20
M  V30 35 1 1 31
M  V30 36 1 1 32
M  V30 37 1 1 33
M  V30 38 1 5 34 CFG=1
M  V30 39 1 6 35
M  V30 40 1 7 36
M  V30 41 1 7 37
M  V30 42 1 8 38
M  V30 43 1 8 39
M  V30 44 1 9 40
M  V30 45 1 10 41
M  V30 46 1 10 42
M  V30 47 1 11 43
M  V30 48 1 11 44
M  V30 49 1 12 45 CFG=3
M  V30 50 1 13 46
M  V30 51 1 18 47
M  V30 52 1 19 48
M  V30 53 1 22 49
M  V30 54 1 25 50
M  V30 55 1 28 51
M  V30 END BOND
M  V30 END CTAB
M  END
>  <Dataset>  (23) 
ChEMBL_PKA

>  <Ligand_Instance>  (23) 
nan

>  <PDB_ID>  (23) 
nan

>  <Standardized_SMILES>  (23) 
CS(=O)(=O)[C@H]1C2CCC(CC2)[C@@H]1Nc1nc(-c2c[nH]c3ncc(F)cc23)ncc1F

>  <Name>  (23) 
nan

>  <Pocket>  (23) 
nan

>  <ATP_Site>  (23) 
nan

>  <Peripheral>  (23) 
nan

>  <Num_H_Atoms_ProtBoundConf>  (23) 
nan

>  <Num_Resolved_Atoms>  (23) 
nan

>  <Num_Not_Resolved_Atoms>  (23) 
nan

$$$$
CHEMBL3544960
     RDKit          3D

  0  0  0  0  0  0  0  0  0  0999 V3000
M  V30 BEGIN CTAB
M  V30 COUNTS 38 40 0 0 0
M  V30 BEGIN ATOM
M  V30 1 N -3.175844 -2.446352 1.642038 0
M  V30 2 C -2.236369 -1.368874 1.797781 0
M  V30 3 C -0.884142 -1.801718 1.313376 0 CFG=1
M  V30 4 O -0.522498 -2.902487 2.098983 0
M  V30 5 C -0.932626 -2.257722 -0.092853 0
M  V30 6 C 0.151832 -2.911404 -0.637838 0
M  V30 7 C 0.122962 -3.341604 -1.950797 0
M  V30 8 C -0.977745 -3.145049 -2.782868 0
M  V30 9 Cl -0.954310 -3.711779 -4.436353 0
M  V30 10 C -2.044388 -2.487056 -2.202557 0
M  V30 11 C -2.023998 -2.059405 -0.907974 0
M  V30 12 C 0.133643 -0.706302 1.485387 0
M  V30 13 C -0.163806 0.418155 0.708525 0
M  V30 14 C 0.690318 1.523497 0.761946 0
M  V30 15 C 1.795428 1.440815 1.591284 0
M  V30 16 C 2.659078 2.616981 1.617041 0
M  V30 17 C 2.863234 3.466457 0.525217 0
M  V30 18 N 3.706919 4.473457 0.826606 0
M  V30 19 N 4.038836 4.266199 2.105174 0
M  V30 20 C 3.430302 3.172038 2.595174 0
M  V30 21 C 2.094217 0.332768 2.360880 0
M  V30 22 C 1.249274 -0.758631 2.306850 0
M  V30 23 H -2.806822 -3.273176 1.167377 0
M  V30 24 H -3.665513 -2.720780 2.529487 0
M  V30 25 H -2.611034 -0.465567 1.233994 0
M  V30 26 H -2.223533 -1.114935 2.881673 0
M  V30 27 H -0.876491 -3.704587 1.642780 0
M  V30 28 H 1.057555 -3.124559 -0.105016 0
M  V30 29 H 0.978131 -3.859582 -2.388930 0
M  V30 30 H -2.892128 -2.346906 -2.875756 0
M  V30 31 H -2.902882 -1.552604 -0.538766 0
M  V30 32 H -1.013443 0.503616 0.060113 0
M  V30 33 H 0.472589 2.393637 0.169162 0
M  V30 34 H 2.405828 3.352828 -0.469550 0
M  V30 35 H 4.693522 4.912151 2.599267 0
M  V30 36 H 3.509193 2.762013 3.593878 0
M  V30 37 H 2.951266 0.280558 2.997850 0
M  V30 38 H 1.378162 -1.675225 2.859597 0
M  V30 END ATOM
M  V30 BEGIN BOND
M  V30 1 1 1 2
M  V30 2 1 2 3
M  V30 3 1 3 4 CFG=1
M  V30 4 1 3 5
M  V30 5 2 5 6
M  V30 6 1 6 7
M  V30 7 2 7 8
M  V30 8 1 8 9
M  V30 9 1 8 10
M  V30 10 2 10 11
M  V30 11 1 3 12
M  V30 12 2 12 13
M  V30 13 1 13 14
M  V30 14 2 14 15
M  V30 15 1 15 16
M  V30 16 1 16 17
M  V30 17 2 17 18
M  V30 18 1 18 19
M  V30 19 1 19 20
M  V30 20 1 15 21
M  V30 21 2 21 22
M  V30 22 1 11 5
M  V30 23 1 22 12
M  V30 24 2 20 16
M  V30 25 1 1 23
M  V30 26 1 1 24
M  V30 27 1 2 25
M  V30 28 1 2 26
M  V30 29 1 4 27
M  V30 30 1 6 28
M  V30 31 1 7 29
M  V30 32 1 10 30
M  V30 33 1 11 31
M  V30 34 1 13 32
M  V30 35 1 14 33
M  V30 36 1 17 34
M  V30 37 1 19 35
M  V30 38 1 20 36
M  V30 39 1 21 37
M  V30 40 1 22 38
M  V30 END BOND
M  V30 END CTAB
M  END
>  <Dataset>  (24) 
ChEMBL_PKA

>  <Ligand_Instance>  (24) 
nan

>  <PDB_ID>  (24) 
nan

>  <Standardized_SMILES>  (24) 
NC[C@@](O)(c1ccc(Cl)cc1)c1ccc(-c2cn[nH]c2)cc1

>  <Name>  (24) 
AT-13148

>  <Pocket>  (24) 
nan

>  <ATP_Site>  (24) 
nan

>  <Peripheral>  (24) 
nan

>  <Num_H_Atoms_ProtBoundConf>  (24) 
nan

>  <Num_Resolved_Atoms>  (24) 
nan

>  <Num_Not_Resolved_Atoms>  (24) 
nan

$$$$
CHEMBL3545396
     RDKit          3D

  0  0  0  0  0  0  0  0  0  0999 V3000
M  V30 BEGIN CTAB
M  V30 COUNTS 51 54 0 0 0
M  V30 BEGIN ATOM
M  V30 1 C 2.936643 -2.893405 2.950923 0
M  V30 2 O 2.654066 -3.542257 1.748876 0
M  V30 3 C 2.360359 -2.963695 0.542997 0
M  V30 4 C 2.111283 -3.826951 -0.520743 0
M  V30 5 C 1.806245 -3.319718 -1.776984 0
M  V30 6 C 1.737081 -1.961756 -2.025227 0
M  V30 7 C 1.983503 -1.081215 -0.974089 0
M  V30 8 N 1.950516 0.353181 -1.052725 0
M  V30 9 C 2.238898 1.274082 -0.019888 0
M  V30 10 N 3.571560 1.562830 0.066422 0
M  V30 11 C 3.913662 2.444299 1.035903 0
M  V30 12 N 3.062998 3.036445 1.891045 0
M  V30 13 N 1.766722 2.743357 1.792230 0
M  V30 14 C 0.690655 3.162821 2.481461 0
M  V30 15 C -0.403157 2.529048 1.942074 0
M  V30 16 C 0.012144 1.698136 0.893391 0
M  V30 17 C -0.891223 0.865119 0.098006 0
M  V30 18 N -0.917839 -0.522748 0.410839 0
M  V30 19 C -1.296061 -0.839750 1.755470 0
M  V30 20 C -2.756661 -0.855809 2.037538 0
M  V30 21 C -3.450767 -1.771579 1.034308 0 CFG=1
M  V30 22 N -4.872717 -1.780491 1.292882 0
M  V30 23 C -3.199468 -1.132530 -0.325156 0 CFG=2
M  V30 24 O -3.838253 -1.908192 -1.275815 0
M  V30 25 C -1.710165 -1.204645 -0.585625 0
M  V30 26 C 1.367566 1.880706 0.856386 0
M  V30 27 C 2.283500 -1.617188 0.260780 0
M  V30 28 H 4.026704 -2.988232 3.173243 0
M  V30 29 H 2.360996 -3.331739 3.795282 0
M  V30 30 H 2.708245 -1.808099 2.951641 0
M  V30 31 H 2.138339 -4.913230 -0.439282 0
M  V30 32 H 1.604758 -3.973540 -2.634757 0
M  V30 33 H 1.511621 -1.493487 -2.950578 0
M  V30 34 H 1.684738 0.769471 -1.974527 0
M  V30 35 H 4.978773 2.707874 1.142565 0
M  V30 36 H 0.694121 3.872070 3.308856 0
M  V30 37 H -1.418931 2.657713 2.280457 0
M  V30 38 H -0.682055 0.943970 -1.010813 0
M  V30 39 H -1.933587 1.241137 0.191165 0
M  V30 40 H -0.907950 -1.861091 2.040176 0
M  V30 41 H -0.757483 -0.147872 2.429838 0
M  V30 42 H -3.175040 0.147337 1.903694 0
M  V30 43 H -2.891336 -1.253539 3.066285 0
M  V30 44 H -2.975256 -2.754831 1.022528 0
M  V30 45 H -5.119069 -1.269326 2.174163 0
M  V30 46 H -5.420084 -1.306006 0.540697 0
M  V30 47 H -3.518994 -0.081472 -0.292581 0
M  V30 48 H -3.337660 -2.751879 -1.348290 0
M  V30 49 H -1.546262 -0.657997 -1.554249 0
M  V30 50 H -1.369802 -2.233814 -0.732071 0
M  V30 51 H 2.481826 -0.968222 1.105941 0
M  V30 END ATOM
M  V30 BEGIN BOND
M  V30 1 1 1 2
M  V30 2 1 2 3
M  V30 3 2 3 4
M  V30 4 1 4 5
M  V30 5 2 5 6
M  V30 6 1 6 7
M  V30 7 1 7 8
M  V30 8 1 8 9
M  V30 9 2 9 10
M  V30 10 1 10 11
M  V30 11 2 11 12
M  V30 12 1 12 13
M  V30 13 1 13 14
M  V30 14 2 14 15
M  V30 15 1 15 16
M  V30 16 1 16 17
M  V30 17 1 17 18
M  V30 18 1 18 19
M  V30 19 1 19 20
M  V30 20 1 20 21
M  V30 21 1 21 22
M  V30 22 1 21 23
M  V30 23 1 23 24
M  V30 24 1 23 25
M  V30 25 2 16 26
M  V30 26 2 7 27
M  V30 27 1 27 3
M  V30 28 1 26 9
M  V30 29 1 26 13
M  V30 30 1 25 18
M  V30 31 1 1 28
M  V30 32 1 1 29
M  V30 33 1 1 30
M  V30 34 1 4 31
M  V30 35 1 5 32
M  V30 36 1 6 33
M  V30 37 1 8 34
M  V30 38 1 11 35
M  V30 39 1 14 36
M  V30 40 1 15 37
M  V30 41 1 17 38
M  V30 42 1 17 39
M  V30 43 1 19 40
M  V30 44 1 19 41
M  V30 45 1 20 42
M  V30 46 1 20 43
M  V30 47 1 21 44 CFG=3
M  V30 48 1 22 45
M  V30 49 1 22 46
M  V30 50 1 23 47 CFG=1
M  V30 51 1 24 48
M  V30 52 1 25 49
M  V30 53 1 25 50
M  V30 54 1 27 51
M  V30 END BOND
M  V30 END CTAB
M  END
>  <Dataset>  (25) 
ChEMBL_PKA

>  <Ligand_Instance>  (25) 
nan

>  <PDB_ID>  (25) 
nan

>  <Standardized_SMILES>  (25) 
COc1cccc(Nc2ncnn3ccc(CN4CC[C@@H](N)[C@H](O)C4)c23)c1

>  <Name>  (25) 
BMS-690514

>  <Pocket>  (25) 
nan

>  <ATP_Site>  (25) 
nan

>  <Peripheral>  (25) 
nan

>  <Num_H_Atoms_ProtBoundConf>  (25) 
nan

>  <Num_Resolved_Atoms>  (25) 
nan

>  <Num_Not_Resolved_Atoms>  (25) 
nan

$$$$
CHEMBL3580669
     RDKit          3D

  0  0  0  0  0  0  0  0  0  0999 V3000
M  V30 BEGIN CTAB
M  V30 COUNTS 43 45 0 0 0
M  V30 BEGIN ATOM
M  V30 1 C 3.717417 -2.788627 3.332708 0
M  V30 2 S 5.361934 -2.107420 3.150587 0
M  V30 3 O 6.228109 -3.019037 2.384569 0
M  V30 4 O 5.943481 -2.062375 4.559722 0
M  V30 5 N 5.297104 -0.493266 2.614767 0
M  V30 6 C 4.684724 -0.381242 1.353902 0
M  V30 7 C 4.913990 -1.176604 0.251233 0
M  V30 8 C 4.234361 -0.952793 -0.937836 0
M  V30 9 C 3.314846 0.072625 -1.037054 0
M  V30 10 C 3.058902 0.891061 0.048705 0
M  V30 11 C 2.068965 2.025257 0.002505 0
M  V30 12 C 0.757398 1.416613 0.420213 0
M  V30 13 O 1.171895 0.243898 0.599414 0
M  V30 14 N -0.486901 2.050197 0.540506 0
M  V30 15 C -1.596702 1.255159 0.957907 0
M  V30 16 C -2.492273 0.540391 0.244237 0
M  V30 17 C -3.486843 -0.153525 0.878267 0
M  V30 18 C -4.504116 -0.956142 0.206618 0
M  V30 19 C -5.758816 -1.072094 0.768546 0
M  V30 20 C -6.664394 -1.838006 0.088480 0
M  V30 21 N -6.385793 -2.460672 -1.068045 0
M  V30 22 C -5.166906 -2.355378 -1.625596 0
M  V30 23 F -4.848444 -2.974257 -2.800366 0
M  V30 24 C -4.202518 -1.594328 -0.988276 0
M  V30 25 C -3.479245 -0.047067 2.321499 0
M  V30 26 S -2.020869 1.057555 2.636785 0
M  V30 27 C 3.751859 0.643597 1.220846 0
M  V30 28 H 3.481814 -3.081982 4.362870 0
M  V30 29 H 2.951142 -2.062667 2.953599 0
M  V30 30 H 3.603529 -3.703034 2.715013 0
M  V30 31 H 5.654957 0.348916 3.123465 0
M  V30 32 H 5.626284 -1.953110 0.365887 0
M  V30 33 H 4.418392 -1.584969 -1.809623 0
M  V30 34 H 2.765267 0.270902 -1.961794 0
M  V30 35 H 2.364078 2.806035 0.729875 0
M  V30 36 H 2.033348 2.406780 -1.022728 0
M  V30 37 H -0.479554 3.073865 0.305517 0
M  V30 38 H -2.387606 0.543016 -0.830543 0
M  V30 39 H -5.931473 -0.554871 1.694003 0
M  V30 40 H -7.663264 -1.937571 0.524434 0
M  V30 41 H -3.208681 -1.493432 -1.418881 0
M  V30 42 H -4.191382 -0.530474 2.969349 0
M  V30 43 H 3.526951 1.309694 2.063504 0
M  V30 END ATOM
M  V30 BEGIN BOND
M  V30 1 1 1 2
M  V30 2 2 2 3
M  V30 3 2 2 4
M  V30 4 1 2 5
M  V30 5 1 5 6
M  V30 6 2 6 7
M  V30 7 1 7 8
M  V30 8 2 8 9
M  V30 9 1 9 10
M  V30 10 1 10 11
M  V30 11 1 11 12
M  V30 12 2 12 13
M  V30 13 1 12 14
M  V30 14 1 14 15
M  V30 15 2 15 16
M  V30 16 1 16 17
M  V30 17 1 17 18
M  V30 18 2 18 19
M  V30 19 1 19 20
M  V30 20 2 20 21
M  V30 21 1 21 22
M  V30 22 1 22 23
M  V30 23 2 22 24
M  V30 24 2 17 25
M  V30 25 1 25 26
M  V30 26 2 10 27
M  V30 27 1 27 6
M  V30 28 1 26 15
M  V30 29 1 24 18
M  V30 30 1 1 28
M  V30 31 1 1 29
M  V30 32 1 1 30
M  V30 33 1 5 31
M  V30 34 1 7 32
M  V30 35 1 8 33
M  V30 36 1 9 34
M  V30 37 1 11 35
M  V30 38 1 11 36
M  V30 39 1 14 37
M  V30 40 1 16 38
M  V30 41 1 19 39
M  V30 42 1 20 40
M  V30 43 1 24 41
M  V30 44 1 25 42
M  V30 45 1 27 43
M  V30 END BOND
M  V30 END CTAB
M  END
>  <Dataset>  (26) 
ChEMBL_PKA

>  <Ligand_Instance>  (26) 
nan

>  <PDB_ID>  (26) 
nan

>  <Standardized_SMILES>  (26) 
CS(=O)(=O)Nc1cccc(CC(=O)Nc2cc(-c3ccnc(F)c3)cs2)c1

>  <Name>  (26) 
nan

>  <Pocket>  (26) 
nan

>  <ATP_Site>  (26) 
nan

>  <Peripheral>  (26) 
nan

>  <Num_H_Atoms_ProtBoundConf>  (26) 
nan

>  <Num_Resolved_Atoms>  (26) 
nan

>  <Num_Not_Resolved_Atoms>  (26) 
nan

$$$$
CHEMBL3581116
     RDKit          3D

  0  0  0  0  0  0  0  0  0  0999 V3000
M  V30 BEGIN CTAB
M  V30 COUNTS 34 36 0 0 0
M  V30 BEGIN ATOM
M  V30 1 O 1.289248 -1.150264 0.666589 0
M  V30 2 C 1.240257 -0.826089 1.899807 0
M  V30 3 C 1.775050 -1.900588 2.779860 0
M  V30 4 C 2.207102 -3.037521 1.925156 0
M  V30 5 C 1.411139 -4.096624 1.542906 0
M  V30 6 C 1.890781 -5.116699 0.744305 0
M  V30 7 C 3.211635 -5.076720 0.312917 0
M  V30 8 C 4.047239 -4.021060 0.679339 0
M  V30 9 C 3.529133 -3.016672 1.481491 0
M  V30 10 N 0.752071 0.387481 2.450935 0
M  V30 11 C 0.280587 1.280165 1.357591 0
M  V30 12 N -0.753644 1.342495 0.907347 0
M  V30 13 C -1.220079 2.121322 -0.067102 0
M  V30 14 C -2.570025 2.148786 -0.599415 0
M  V30 15 C -3.560702 1.322618 -0.120433 0
M  V30 16 C -4.850412 1.330252 -0.609889 0
M  V30 17 N -5.174445 2.178308 -1.602309 0
M  V30 18 C -4.258785 3.015533 -2.120662 0
M  V30 19 C -2.978554 2.984920 -1.611135 0
M  V30 20 C -0.210707 3.012704 -0.606124 0
M  V30 21 S 1.302180 2.556357 0.427727 0
M  V30 22 H 2.580339 -1.546469 3.445027 0
M  V30 23 H 0.919257 -2.247178 3.422293 0
M  V30 24 H 0.387971 -4.066570 1.914929 0
M  V30 25 H 1.178696 -5.892260 0.509013 0
M  V30 26 H 3.554314 -5.891159 -0.310783 0
M  V30 27 H 5.061133 -4.023034 0.327938 0
M  V30 28 H 4.219306 -2.224469 1.734672 0
M  V30 29 H 0.779927 0.499832 3.476190 0
M  V30 30 H -3.311662 0.625043 0.689358 0
M  V30 31 H -5.566369 0.640716 -0.168714 0
M  V30 32 H -4.522336 3.696038 -2.918332 0
M  V30 33 H -2.281130 3.674965 -2.059751 0
M  V30 34 H -0.360121 3.772356 -1.442496 0
M  V30 END ATOM
M  V30 BEGIN BOND
M  V30 1 2 1 2
M  V30 2 1 2 3
M  V30 3 1 3 4
M  V30 4 2 4 5
M  V30 5 1 5 6
M  V30 6 2 6 7
M  V30 7 1 7 8
M  V30 8 2 8 9
M  V30 9 1 2 10
M  V30 10 1 10 11
M  V30 11 2 11 12
M  V30 12 1 12 13
M  V30 13 1 13 14
M  V30 14 2 14 15
M  V30 15 1 15 16
M  V30 16 2 16 17
M  V30 17 1 17 18
M  V30 18 2 18 19
M  V30 19 2 13 20
M  V30 20 1 20 21
M  V30 21 1 9 4
M  V30 22 1 21 11
M  V30 23 1 19 14
M  V30 24 1 3 22
M  V30 25 1 3 23
M  V30 26 1 5 24
M  V30 27 1 6 25
M  V30 28 1 7 26
M  V30 29 1 8 27
M  V30 30 1 9 28
M  V30 31 1 10 29
M  V30 32 1 15 30
M  V30 33 1 16 31
M  V30 34 1 18 32
M  V30 35 1 19 33
M  V30 36 1 20 34
M  V30 END BOND
M  V30 END CTAB
M  END
>  <Dataset>  (27) 
ChEMBL_PKA

>  <Ligand_Instance>  (27) 
nan

>  <PDB_ID>  (27) 
nan

>  <Standardized_SMILES>  (27) 
O=C(Cc1ccccc1)Nc1nc(-c2ccncc2)cs1

>  <Name>  (27) 
nan

>  <Pocket>  (27) 
nan

>  <ATP_Site>  (27) 
nan

>  <Peripheral>  (27) 
nan

>  <Num_H_Atoms_ProtBoundConf>  (27) 
nan

>  <Num_Resolved_Atoms>  (27) 
nan

>  <Num_Not_Resolved_Atoms>  (27) 
nan

$$$$
CHEMBL3581117
     RDKit          3D

  0  0  0  0  0  0  0  0  0  0999 V3000
M  V30 BEGIN CTAB
M  V30 COUNTS 34 36 0 0 0
M  V30 BEGIN ATOM
M  V30 1 O 0.258146 -1.938968 1.183284 0
M  V30 2 C 1.004757 -1.345879 2.036653 0
M  V30 3 C 2.161427 -2.173164 2.474398 0
M  V30 4 C 2.036883 -3.458589 1.723315 0
M  V30 5 C 1.582801 -4.681297 2.216834 0
M  V30 6 C 1.534057 -5.765952 1.367279 0
M  V30 7 C 1.908236 -5.726755 0.044264 0
M  V30 8 C 2.359732 -4.514994 -0.450024 0
M  V30 9 C 2.414493 -3.417030 0.389902 0
M  V30 10 F 2.868763 -2.265744 -0.167272 0
M  V30 11 N 0.745785 -0.036607 2.507576 0
M  V30 12 C -0.451747 0.659026 1.976811 0
M  V30 13 N -0.613164 1.354293 1.038681 0
M  V30 14 C -1.793926 1.894913 0.724282 0
M  V30 15 C -1.915219 2.743288 -0.457681 0
M  V30 16 C -0.877091 3.057284 -1.324750 0
M  V30 17 C -1.036932 3.858265 -2.429958 0
M  V30 18 N -2.223129 4.399486 -2.751418 0
M  V30 19 C -3.266676 4.134310 -1.953014 0
M  V30 20 C -3.115628 3.332134 -0.842965 0
M  V30 21 C -2.899739 1.643110 1.523442 0
M  V30 22 S -2.119798 0.518056 2.836941 0
M  V30 23 H 2.158180 -2.330669 3.562316 0
M  V30 24 H 3.096266 -1.668265 2.109911 0
M  V30 25 H 1.303431 -4.665950 3.246176 0
M  V30 26 H 1.171402 -6.717961 1.782385 0
M  V30 27 H 1.824610 -6.653401 -0.527245 0
M  V30 28 H 2.650212 -4.496043 -1.488230 0
M  V30 29 H 1.380904 0.389659 3.191640 0
M  V30 30 H 0.098606 2.616073 -1.064017 0
M  V30 31 H -0.119428 4.015291 -3.019545 0
M  V30 32 H -4.242757 4.552496 -2.179526 0
M  V30 33 H -4.006585 3.160277 -0.239613 0
M  V30 34 H -3.878478 1.985825 1.417410 0
M  V30 END ATOM
M  V30 BEGIN BOND
M  V30 1 2 1 2
M  V30 2 1 2 3
M  V30 3 1 3 4
M  V30 4 2 4 5
M  V30 5 1 5 6
M  V30 6 2 6 7
M  V30 7 1 7 8
M  V30 8 2 8 9
M  V30 9 1 9 10
M  V30 10 1 2 11
M  V30 11 1 11 12
M  V30 12 2 12 13
M  V30 13 1 13 14
M  V30 14 1 14 15
M  V30 15 2 15 16
M  V30 16 1 16 17
M  V30 17 2 17 18
M  V30 18 1 18 19
M  V30 19 2 19 20
M  V30 20 2 14 21
M  V30 21 1 21 22
M  V30 22 1 9 4
M  V30 23 1 22 12
M  V30 24 1 20 15
M  V30 25 1 3 23
M  V30 26 1 3 24
M  V30 27 1 5 25
M  V30 28 1 6 26
M  V30 29 1 7 27
M  V30 30 1 8 28
M  V30 31 1 11 29
M  V30 32 1 16 30
M  V30 33 1 17 31
M  V30 34 1 19 32
M  V30 35 1 20 33
M  V30 36 1 21 34
M  V30 END BOND
M  V30 END CTAB
M  END
>  <Dataset>  (28) 
ChEMBL_PKA

>  <Ligand_Instance>  (28) 
nan

>  <PDB_ID>  (28) 
nan

>  <Standardized_SMILES>  (28) 
O=C(Cc1ccccc1F)Nc1nc(-c2ccncc2)cs1

>  <Name>  (28) 
nan

>  <Pocket>  (28) 
nan

>  <ATP_Site>  (28) 
nan

>  <Peripheral>  (28) 
nan

>  <Num_H_Atoms_ProtBoundConf>  (28) 
nan

>  <Num_Resolved_Atoms>  (28) 
nan

>  <Num_Not_Resolved_Atoms>  (28) 
nan

$$$$
CHEMBL3581118
     RDKit          3D

  0  0  0  0  0  0  0  0  0  0999 V3000
M  V30 BEGIN CTAB
M  V30 COUNTS 34 36 0 0 0
M  V30 BEGIN ATOM
M  V30 1 O 0.069732 -1.942038 0.957425 0
M  V30 2 C 0.953861 -1.383979 1.669959 0
M  V30 3 C 2.290618 -2.001313 1.818043 0
M  V30 4 C 2.416739 -3.267982 1.063486 0
M  V30 5 C 2.089685 -4.487408 1.659042 0
M  V30 6 C 2.181054 -5.717939 1.017850 0
M  V30 7 C 2.626148 -5.714718 -0.293183 0
M  V30 8 C 2.947642 -4.512782 -0.877634 0
M  V30 9 F 3.379649 -4.580316 -2.171463 0
M  V30 10 C 2.863072 -3.280076 -0.255828 0
M  V30 11 N 0.761813 -0.159889 2.370779 0
M  V30 12 C -0.610280 0.436035 2.194783 0
M  V30 13 N -0.874543 1.242972 1.263887 0
M  V30 14 C -2.084683 1.749228 1.133722 0
M  V30 15 C -2.337814 2.688330 0.026714 0
M  V30 16 C -1.396371 3.086962 -0.899037 0
M  V30 17 C -1.683266 3.968153 -1.916282 0
M  V30 18 N -2.919469 4.481580 -2.044357 0
M  V30 19 C -3.889449 4.139224 -1.179134 0
M  V30 20 C -3.578368 3.255546 -0.169179 0
M  V30 21 C -3.057223 1.382754 2.031303 0
M  V30 22 S -2.038328 0.200534 3.120589 0
M  V30 23 H 2.416635 -2.247699 2.898133 0
M  V30 24 H 3.085838 -1.301906 1.499440 0
M  V30 25 H 1.748142 -4.423064 2.685257 0
M  V30 26 H 1.897871 -6.586630 1.590075 0
M  V30 27 H 2.694319 -6.659947 -0.779775 0
M  V30 28 H 3.125025 -2.366664 -0.751961 0
M  V30 29 H 1.503982 0.280681 2.951174 0
M  V30 30 H -0.383738 2.666174 -0.793848 0
M  V30 31 H -0.852511 4.205551 -2.584986 0
M  V30 32 H -4.865565 4.555262 -1.294042 0
M  V30 33 H -4.398039 3.022392 0.489204 0
M  V30 34 H -4.083786 1.729485 2.028087 0
M  V30 END ATOM
M  V30 BEGIN BOND
M  V30 1 2 1 2
M  V30 2 1 2 3
M  V30 3 1 3 4
M  V30 4 2 4 5
M  V30 5 1 5 6
M  V30 6 2 6 7
M  V30 7 1 7 8
M  V30 8 1 8 9
M  V30 9 2 8 10
M  V30 10 1 2 11
M  V30 11 1 11 12
M  V30 12 2 12 13
M  V30 13 1 13 14
M  V30 14 1 14 15
M  V30 15 2 15 16
M  V30 16 1 16 17
M  V30 17 2 17 18
M  V30 18 1 18 19
M  V30 19 2 19 20
M  V30 20 2 14 21
M  V30 21 1 21 22
M  V30 22 1 10 4
M  V30 23 1 22 12
M  V30 24 1 20 15
M  V30 25 1 3 23
M  V30 26 1 3 24
M  V30 27 1 5 25
M  V30 28 1 6 26
M  V30 29 1 7 27
M  V30 30 1 10 28
M  V30 31 1 11 29
M  V30 32 1 16 30
M  V30 33 1 17 31
M  V30 34 1 19 32
M  V30 35 1 20 33
M  V30 36 1 21 34
M  V30 END BOND
M  V30 END CTAB
M  END
>  <Dataset>  (29) 
ChEMBL_PKA

>  <Ligand_Instance>  (29) 
nan

>  <PDB_ID>  (29) 
nan

>  <Standardized_SMILES>  (29) 
O=C(Cc1cccc(F)c1)Nc1nc(-c2ccncc2)cs1

>  <Name>  (29) 
nan

>  <Pocket>  (29) 
nan

>  <ATP_Site>  (29) 
nan

>  <Peripheral>  (29) 
nan

>  <Num_H_Atoms_ProtBoundConf>  (29) 
nan

>  <Num_Resolved_Atoms>  (29) 
nan

>  <Num_Not_Resolved_Atoms>  (29) 
nan

$$$$
CHEMBL3581119
     RDKit          3D

  0  0  0  0  0  0  0  0  0  0999 V3000
M  V30 BEGIN CTAB
M  V30 COUNTS 34 36 0 0 0
M  V30 BEGIN ATOM
M  V30 1 O -0.406165 -1.605971 2.453756 0
M  V30 2 C 0.831208 -1.512710 2.498009 0
M  V30 3 C 1.893428 -2.542690 2.443798 0
M  V30 4 C 1.976750 -3.216901 1.122261 0
M  V30 5 C 1.424415 -4.385363 0.676230 0
M  V30 6 C 1.645894 -4.822975 -0.619939 0
M  V30 7 C 2.438879 -4.074730 -1.496684 0
M  V30 8 F 2.626017 -4.543386 -2.753425 0
M  V30 9 C 3.002230 -2.878549 -1.036645 0
M  V30 10 C 2.769630 -2.467309 0.247351 0
M  V30 11 N 1.255721 -0.149681 2.620091 0
M  V30 12 C 0.023451 0.712106 2.658779 0
M  V30 13 N -0.500612 1.039987 1.702703 0
M  V30 14 C -1.536605 1.773413 1.424774 0
M  V30 15 C -2.174861 2.146790 0.168793 0
M  V30 16 C -1.615766 1.648426 -0.990026 0
M  V30 17 C -2.103166 1.910338 -2.252322 0
M  V30 18 N -3.181013 2.698428 -2.295358 0
M  V30 19 C -3.755150 3.204358 -1.177789 0
M  V30 20 C -3.280237 2.951595 0.094933 0
M  V30 21 C -2.111719 2.252685 2.654192 0
M  V30 22 S -0.988071 1.511552 3.987349 0
M  V30 23 H 1.617527 -3.378551 3.165558 0
M  V30 24 H 2.846289 -2.115940 2.768088 0
M  V30 25 H 0.827674 -4.886747 1.435461 0
M  V30 26 H 1.170506 -5.764505 -0.897021 0
M  V30 27 H 3.610387 -2.344485 -1.782768 0
M  V30 28 H 3.268109 -1.530618 0.443553 0
M  V30 29 H 2.251853 0.169855 2.670451 0
M  V30 30 H -0.726424 0.996513 -0.944616 0
M  V30 31 H -1.645306 1.500205 -3.165544 0
M  V30 32 H -4.639746 3.850283 -1.230431 0
M  V30 33 H -3.733321 3.347449 0.990269 0
M  V30 34 H -3.083411 2.963642 2.874415 0
M  V30 END ATOM
M  V30 BEGIN BOND
M  V30 1 2 1 2
M  V30 2 1 2 3
M  V30 3 1 3 4
M  V30 4 2 4 5
M  V30 5 1 5 6
M  V30 6 2 6 7
M  V30 7 1 7 8
M  V30 8 1 7 9
M  V30 9 2 9 10
M  V30 10 1 2 11
M  V30 11 1 11 12
M  V30 12 2 12 13
M  V30 13 1 13 14
M  V30 14 1 14 15
M  V30 15 2 15 16
M  V30 16 1 16 17
M  V30 17 2 17 18
M  V30 18 1 18 19
M  V30 19 2 19 20
M  V30 20 2 14 21
M  V30 21 1 21 22
M  V30 22 1 10 4
M  V30 23 1 22 12
M  V30 24 1 20 15
M  V30 25 1 3 23
M  V30 26 1 3 24
M  V30 27 1 5 25
M  V30 28 1 6 26
M  V30 29 1 9 27
M  V30 30 1 10 28
M  V30 31 1 11 29
M  V30 32 1 16 30
M  V30 33 1 17 31
M  V30 34 1 19 32
M  V30 35 1 20 33
M  V30 36 1 21 34
M  V30 END BOND
M  V30 END CTAB
M  END
>  <Dataset>  (30) 
ChEMBL_PKA

>  <Ligand_Instance>  (30) 
nan

>  <PDB_ID>  (30) 
nan

>  <Standardized_SMILES>  (30) 
O=C(Cc1ccc(F)cc1)Nc1nc(-c2ccncc2)cs1

>  <Name>  (30) 
nan

>  <Pocket>  (30) 
nan

>  <ATP_Site>  (30) 
nan

>  <Peripheral>  (30) 
nan

>  <Num_H_Atoms_ProtBoundConf>  (30) 
nan

>  <Num_Resolved_Atoms>  (30) 
nan

>  <Num_Not_Resolved_Atoms>  (30) 
nan

$$$$
CHEMBL3581121
     RDKit          3D

  0  0  0  0  0  0  0  0  0  0999 V3000
M  V30 BEGIN CTAB
M  V30 COUNTS 38 40 0 0 0
M  V30 BEGIN ATOM
M  V30 1 C 1.852830 -6.204006 0.926989 0
M  V30 2 O 1.523286 -5.025481 0.197723 0
M  V30 3 C 2.377483 -3.933731 0.162531 0
M  V30 4 C 3.599598 -3.929818 0.835684 0
M  V30 5 C 4.351126 -2.782836 0.718136 0
M  V30 6 C 3.966916 -1.686208 -0.003292 0
M  V30 7 C 2.764962 -1.685788 -0.667320 0
M  V30 8 C 2.259977 -0.545517 -1.475727 0
M  V30 9 C 1.466067 0.353962 -0.596075 0
M  V30 10 O 1.399950 -0.036803 0.598331 0
M  V30 11 N 0.862567 1.532646 -1.119004 0
M  V30 12 C 0.152209 2.195111 0.010757 0
M  V30 13 N -0.954317 2.043117 0.365929 0
M  V30 14 C -1.582692 2.623956 1.359171 0
M  V30 15 C -2.972894 2.342527 1.697993 0
M  V30 16 C -3.615408 2.964891 2.747362 0
M  V30 17 C -4.923318 2.740082 3.113514 0
M  V30 18 N -5.663148 1.857721 2.424566 0
M  V30 19 C -5.082562 1.224731 1.392559 0
M  V30 20 C -3.773827 1.445934 1.021725 0
M  V30 21 C -0.825589 3.531881 2.069974 0
M  V30 22 S 0.836357 3.441368 1.158276 0
M  V30 23 C 1.977999 -2.833310 -0.569093 0
M  V30 24 H 1.908025 -6.005635 2.014262 0
M  V30 25 H 2.861545 -6.599003 0.641995 0
M  V30 26 H 1.052921 -6.940152 0.690116 0
M  V30 27 H 3.851534 -4.818479 1.387489 0
M  V30 28 H 5.302719 -2.801330 1.252282 0
M  V30 29 H 4.591115 -0.798472 -0.070778 0
M  V30 30 H 1.538928 -0.950981 -2.232838 0
M  V30 31 H 3.052372 -0.020928 -2.038663 0
M  V30 32 H 0.958594 1.796855 -2.123444 0
M  V30 33 H -3.102065 3.685605 3.354120 0
M  V30 34 H -5.385636 3.250063 3.942334 0
M  V30 35 H -5.675627 0.516146 0.838761 0
M  V30 36 H -3.341299 0.906643 0.172541 0
M  V30 37 H -1.163467 4.158449 2.976870 0
M  V30 38 H 1.027490 -2.834342 -1.093578 0
M  V30 END ATOM
M  V30 BEGIN BOND
M  V30 1 1 1 2
M  V30 2 1 2 3
M  V30 3 2 3 4
M  V30 4 1 4 5
M  V30 5 2 5 6
M  V30 6 1 6 7
M  V30 7 1 7 8
M  V30 8 1 8 9
M  V30 9 2 9 10
M  V30 10 1 9 11
M  V30 11 1 11 12
M  V30 12 2 12 13
M  V30 13 1 13 14
M  V30 14 1 14 15
M  V30 15 2 15 16
M  V30 16 1 16 17
M  V30 17 2 17 18
M  V30 18 1 18 19
M  V30 19 2 19 20
M  V30 20 2 14 21
M  V30 21 1 21 22
M  V30 22 2 7 23
M  V30 23 1 23 3
M  V30 24 1 22 12
M  V30 25 1 20 15
M  V30 26 1 1 24
M  V30 27 1 1 25
M  V30 28 1 1 26
M  V30 29 1 4 27
M  V30 30 1 5 28
M  V30 31 1 6 29
M  V30 32 1 8 30
M  V30 33 1 8 31
M  V30 34 1 11 32
M  V30 35 1 16 33
M  V30 36 1 17 34
M  V30 37 1 19 35
M  V30 38 1 20 36
M  V30 39 1 21 37
M  V30 40 1 23 38
M  V30 END BOND
M  V30 END CTAB
M  END
>  <Dataset>  (31) 
ChEMBL_PKA

>  <Ligand_Instance>  (31) 
nan

>  <PDB_ID>  (31) 
nan

>  <Standardized_SMILES>  (31) 
COc1cccc(CC(=O)Nc2nc(-c3ccncc3)cs2)c1

>  <Name>  (31) 
nan

>  <Pocket>  (31) 
nan

>  <ATP_Site>  (31) 
nan

>  <Peripheral>  (31) 
nan

>  <Num_H_Atoms_ProtBoundConf>  (31) 
nan

>  <Num_Resolved_Atoms>  (31) 
nan

>  <Num_Not_Resolved_Atoms>  (31) 
nan

$$$$
CHEMBL3581123
     RDKit          3D

  0  0  0  0  0  0  0  0  0  0999 V3000
M  V30 BEGIN CTAB
M  V30 COUNTS 35 37 0 0 0
M  V30 BEGIN ATOM
M  V30 1 O 0.737997 0.122960 3.345498 0
M  V30 2 C 0.549809 -1.083880 3.068809 0
M  V30 3 C 1.252629 -2.389505 3.143672 0
M  V30 4 C 2.287981 -2.526849 2.077279 0
M  V30 5 C 1.769879 -3.077803 0.890072 0
M  V30 6 C 2.511476 -3.320274 -0.255696 0
M  V30 7 C 3.838776 -2.975736 -0.159334 0
M  V30 8 C 4.422615 -2.424587 0.983415 0
M  V30 9 O 5.747721 -2.080108 1.073696 0
M  V30 10 C 3.627552 -2.210023 2.086978 0
M  V30 11 N -0.750420 -1.191956 2.501914 0
M  V30 12 C -1.869962 -0.221537 2.189297 0
M  V30 13 N -1.770686 0.332198 1.117195 0
M  V30 14 C -2.588206 1.190982 0.592389 0
M  V30 15 C -2.498759 1.881629 -0.678753 0
M  V30 16 C -1.409685 1.677572 -1.545648 0
M  V30 17 C -1.143157 2.210916 -2.762216 0
M  V30 18 N -2.092579 3.064995 -3.168990 0
M  V30 19 C -3.167509 3.345946 -2.447720 0
M  V30 20 C -3.414018 2.772916 -1.187299 0
M  V30 21 C -3.736388 1.471861 1.453029 0
M  V30 22 S -3.322601 0.340268 2.922898 0
M  V30 23 H 0.535830 -3.217032 3.054874 0
M  V30 24 H 1.718826 -2.537512 4.154080 0
M  V30 25 H 0.718812 -3.350827 0.808123 0
M  V30 26 H 2.050476 -3.744638 -1.127553 0
M  V30 27 H 4.494071 -3.128866 -1.000574 0
M  V30 28 H 6.376713 -2.056056 0.267526 0
M  V30 29 H 3.937716 -1.784356 3.049317 0
M  V30 30 H -1.165419 -2.101458 2.179606 0
M  V30 31 H -0.672677 0.959107 -1.134049 0
M  V30 32 H -0.231363 1.912133 -3.271649 0
M  V30 33 H -3.923035 4.047359 -2.803857 0
M  V30 34 H -4.291005 3.007163 -0.604560 0
M  V30 35 H -4.637248 2.213541 1.217519 0
M  V30 END ATOM
M  V30 BEGIN BOND
M  V30 1 2 1 2
M  V30 2 1 2 3
M  V30 3 1 3 4
M  V30 4 2 4 5
M  V30 5 1 5 6
M  V30 6 2 6 7
M  V30 7 1 7 8
M  V30 8 1 8 9
M  V30 9 2 8 10
M  V30 10 1 2 11
M  V30 11 1 11 12
M  V30 12 2 12 13
M  V30 13 1 13 14
M  V30 14 1 14 15
M  V30 15 2 15 16
M  V30 16 1 16 17
M  V30 17 2 17 18
M  V30 18 1 18 19
M  V30 19 2 19 20
M  V30 20 2 14 21
M  V30 21 1 21 22
M  V30 22 1 10 4
M  V30 23 1 22 12
M  V30 24 1 20 15
M  V30 25 1 3 23
M  V30 26 1 3 24
M  V30 27 1 5 25
M  V30 28 1 6 26
M  V30 29 1 7 27
M  V30 30 1 9 28
M  V30 31 1 10 29
M  V30 32 1 11 30
M  V30 33 1 16 31
M  V30 34 1 17 32
M  V30 35 1 19 33
M  V30 36 1 20 34
M  V30 37 1 21 35
M  V30 END BOND
M  V30 END CTAB
M  END
>  <Dataset>  (32) 
ChEMBL_PKA

>  <Ligand_Instance>  (32) 
nan

>  <PDB_ID>  (32) 
nan

>  <Standardized_SMILES>  (32) 
O=C(Cc1cccc(O)c1)Nc1nc(-c2ccncc2)cs1

>  <Name>  (32) 
nan

>  <Pocket>  (32) 
nan

>  <ATP_Site>  (32) 
nan

>  <Peripheral>  (32) 
nan

>  <Num_H_Atoms_ProtBoundConf>  (32) 
nan

>  <Num_Resolved_Atoms>  (32) 
nan

>  <Num_Not_Resolved_Atoms>  (32) 
nan

$$$$
CHEMBL3581126
     RDKit          3D

  0  0  0  0  0  0  0  0  0  0999 V3000
M  V30 BEGIN CTAB
M  V30 COUNTS 37 40 0 0 0
M  V30 BEGIN ATOM
M  V30 1 O -0.161144 0.016742 0.591101 0
M  V30 2 C -1.180119 0.519628 1.176824 0
M  V30 3 C -1.275884 0.143496 2.605688 0
M  V30 4 C -0.150471 -0.733243 3.014564 0
M  V30 5 C 0.909653 -0.255816 3.757281 0
M  V30 6 C 1.982171 -1.056712 4.155094 0
M  V30 7 C 2.017144 -2.381721 3.810205 0
M  V30 8 C 0.954852 -2.880936 3.060311 0
M  V30 9 C -0.094837 -2.067754 2.679150 0
M  V30 10 Cl -1.437040 -2.697693 1.732570 0
M  V30 11 O 1.217564 -4.246551 2.835775 0
M  V30 12 C 2.638532 -4.390598 2.951820 0
M  V30 13 O 2.879816 -3.464195 4.009172 0
M  V30 14 N -2.122523 1.353833 0.521771 0
M  V30 15 C -1.672523 1.485132 -0.880275 0
M  V30 16 N -1.930973 0.825379 -1.830284 0
M  V30 17 C -1.486656 1.004142 -3.059292 0
M  V30 18 C -1.885182 0.115024 -4.145315 0
M  V30 19 C -2.736745 -0.970177 -4.025316 0
M  V30 20 C -3.112576 -1.806468 -5.045411 0
M  V30 21 N -2.603836 -1.542435 -6.270711 0
M  V30 22 C -1.770424 -0.522644 -6.515193 0
M  V30 23 C -1.436148 0.276243 -5.442705 0
M  V30 24 C -0.640810 2.060637 -3.251931 0
M  V30 25 S -0.556694 2.760776 -1.489424 0
M  V30 26 H -1.161627 1.103257 3.172577 0
M  V30 27 H -2.251613 -0.352120 2.847878 0
M  V30 28 H 0.945774 0.776962 4.062449 0
M  V30 29 H 2.789234 -0.658442 4.729876 0
M  V30 30 H 2.949590 -5.413635 3.182334 0
M  V30 31 H 3.148939 -3.941573 2.065235 0
M  V30 32 H -2.920948 1.732556 1.030473 0
M  V30 33 H -3.141417 -1.174469 -3.032276 0
M  V30 34 H -3.786109 -2.628531 -4.842458 0
M  V30 35 H -1.374680 -0.328839 -7.502308 0
M  V30 36 H -0.755958 1.096229 -5.676650 0
M  V30 37 H -0.147768 2.385736 -4.234103 0
M  V30 END ATOM
M  V30 BEGIN BOND
M  V30 1 2 1 2
M  V30 2 1 2 3
M  V30 3 1 3 4
M  V30 4 2 4 5
M  V30 5 1 5 6
M  V30 6 2 6 7
M  V30 7 1 7 8
M  V30 8 2 8 9
M  V30 9 1 9 10
M  V30 10 1 8 11
M  V30 11 1 11 12
M  V30 12 1 12 13
M  V30 13 1 2 14
M  V30 14 1 14 15
M  V30 15 2 15 16
M  V30 16 1 16 17
M  V30 17 1 17 18
M  V30 18 2 18 19
M  V30 19 1 19 20
M  V30 20 2 20 21
M  V30 21 1 21 22
M  V30 22 2 22 23
M  V30 23 2 17 24
M  V30 24 1 24 25
M  V30 25 1 9 4
M  V30 26 1 25 15
M  V30 27 1 13 7
M  V30 28 1 23 18
M  V30 29 1 3 26
M  V30 30 1 3 27
M  V30 31 1 5 28
M  V30 32 1 6 29
M  V30 33 1 12 30
M  V30 34 1 12 31
M  V30 35 1 14 32
M  V30 36 1 19 33
M  V30 37 1 20 34
M  V30 38 1 22 35
M  V30 39 1 23 36
M  V30 40 1 24 37
M  V30 END BOND
M  V30 END CTAB
M  END
>  <Dataset>  (33) 
ChEMBL_PKA

>  <Ligand_Instance>  (33) 
nan

>  <PDB_ID>  (33) 
nan

>  <Standardized_SMILES>  (33) 
O=C(Cc1ccc2c(c1Cl)OCO2)Nc1nc(-c2ccncc2)cs1

>  <Name>  (33) 
nan

>  <Pocket>  (33) 
nan

>  <ATP_Site>  (33) 
nan

>  <Peripheral>  (33) 
nan

>  <Num_H_Atoms_ProtBoundConf>  (33) 
nan

>  <Num_Resolved_Atoms>  (33) 
nan

>  <Num_Not_Resolved_Atoms>  (33) 
nan

$$$$
CHEMBL3581129
     RDKit          3D

  0  0  0  0  0  0  0  0  0  0999 V3000
M  V30 BEGIN CTAB
M  V30 COUNTS 45 48 0 0 0
M  V30 BEGIN ATOM
M  V30 1 C 2.436469 -3.653736 4.461459 0
M  V30 2 O 2.460978 -4.463607 3.322206 0
M  V30 3 C 2.426671 -3.985848 2.017898 0
M  V30 4 C 2.461166 -4.978234 1.060363 0
M  V30 5 C 2.432599 -4.635193 -0.275016 0
M  V30 6 C 2.368953 -3.271797 -0.584963 0
M  V30 7 C 2.334061 -2.269850 0.377337 0
M  V30 8 C 2.267223 -0.854678 -0.057961 0
M  V30 9 C 3.457172 -0.042663 0.319494 0
M  V30 10 C 3.234617 0.893130 1.461281 0
M  V30 11 C 2.136979 1.893030 1.199571 0
M  V30 12 N 1.006949 1.167065 0.716990 0
M  V30 13 C -0.314777 1.796128 0.605381 0
M  V30 14 N -1.390552 1.450981 0.253331 0
M  V30 15 C -2.485960 2.170559 0.220937 0
M  V30 16 C -3.752028 1.608237 -0.240736 0
M  V30 17 C -3.939029 0.312884 -0.677677 0
M  V30 18 C -5.152608 -0.178910 -1.105899 0
M  V30 19 N -6.236513 0.616316 -1.112891 0
M  V30 20 C -6.135698 1.898881 -0.699613 0
M  V30 21 C -4.910590 2.356294 -0.279193 0
M  V30 22 C -2.357146 3.480554 0.649271 0
M  V30 23 S -0.538634 3.536184 1.083692 0
M  V30 24 C 1.005694 -0.180001 0.304517 0
M  V30 25 O -0.056496 -0.884205 0.220023 0
M  V30 26 C 2.363971 -2.645562 1.701219 0
M  V30 27 H 3.484499 -3.490649 4.833201 0
M  V30 28 H 1.911481 -4.259046 5.253811 0
M  V30 29 H 1.909850 -2.699434 4.335102 0
M  V30 30 H 2.510525 -6.043583 1.260648 0
M  V30 31 H 2.457657 -5.372716 -1.046036 0
M  V30 32 H 2.348458 -3.052389 -1.660736 0
M  V30 33 H 2.261512 -0.901353 -1.186907 0
M  V30 34 H 3.898597 0.525254 -0.525442 0
M  V30 35 H 4.270301 -0.749150 0.653153 0
M  V30 36 H 4.172792 1.480128 1.578788 0
M  V30 37 H 3.076640 0.365337 2.432600 0
M  V30 38 H 2.500562 2.545982 0.352928 0
M  V30 39 H 1.971312 2.455180 2.123377 0
M  V30 40 H -3.068955 -0.345289 -0.678005 0
M  V30 41 H -5.171691 -1.226737 -1.428949 0
M  V30 42 H -7.022585 2.517281 -0.715168 0
M  V30 43 H -4.916505 3.384318 0.032056 0
M  V30 44 H -3.228334 4.274729 0.691047 0
M  V30 45 H 2.339247 -1.916827 2.473657 0
M  V30 END ATOM
M  V30 BEGIN BOND
M  V30 1 1 1 2
M  V30 2 1 2 3
M  V30 3 2 3 4
M  V30 4 1 4 5
M  V30 5 2 5 6
M  V30 6 1 6 7
M  V30 7 1 7 8
M  V30 8 1 8 9
M  V30 9 1 9 10
M  V30 10 1 10 11
M  V30 11 1 11 12
M  V30 12 1 12 13
M  V30 13 2 13 14
M  V30 14 1 14 15
M  V30 15 1 15 16
M  V30 16 2 16 17
M  V30 17 1 17 18
M  V30 18 2 18 19
M  V30 19 1 19 20
M  V30 20 2 20 21
M  V30 21 2 15 22
M  V30 22 1 22 23
M  V30 23 1 12 24
M  V30 24 2 24 25
M  V30 25 2 7 26
M  V30 26 1 26 3
M  V30 27 1 24 8
M  V30 28 1 23 13
M  V30 29 1 21 16
M  V30 30 1 1 27
M  V30 31 1 1 28
M  V30 32 1 1 29
M  V30 33 1 4 30
M  V30 34 1 5 31
M  V30 35 1 6 32
M  V30 36 1 8 33
M  V30 37 1 9 34
M  V30 38 1 9 35
M  V30 39 1 10 36
M  V30 40 1 10 37
M  V30 41 1 11 38
M  V30 42 1 11 39
M  V30 43 1 17 40
M  V30 44 1 18 41
M  V30 45 1 20 42
M  V30 46 1 21 43
M  V30 47 1 22 44
M  V30 48 1 26 45
M  V30 END BOND
M  V30 END CTAB
M  END
>  <Dataset>  (34) 
ChEMBL_PKA

>  <Ligand_Instance>  (34) 
nan

>  <PDB_ID>  (34) 
nan

>  <Standardized_SMILES>  (34) 
COc1cccc(C2CCCN(c3nc(-c4ccncc4)cs3)C2=O)c1

>  <Name>  (34) 
nan

>  <Pocket>  (34) 
nan

>  <ATP_Site>  (34) 
nan

>  <Peripheral>  (34) 
nan

>  <Num_H_Atoms_ProtBoundConf>  (34) 
nan

>  <Num_Resolved_Atoms>  (34) 
nan

>  <Num_Not_Resolved_Atoms>  (34) 
nan

$$$$
CHEMBL3581131
     RDKit          3D

  0  0  0  0  0  0  0  0  0  0999 V3000
M  V30 BEGIN CTAB
M  V30 COUNTS 38 40 0 0 0
M  V30 BEGIN ATOM
M  V30 1 C -0.575535 -6.114455 -0.210492 0
M  V30 2 O 0.795709 -5.856395 -0.434934 0
M  V30 3 C 1.274637 -4.691322 -0.992575 0
M  V30 4 C 2.645808 -4.637607 -1.125908 0
M  V30 5 C 3.279399 -3.554452 -1.659365 0
M  V30 6 C 2.513473 -2.486418 -2.074434 0
M  V30 7 C 1.140156 -2.485970 -1.965083 0
M  V30 8 C 0.266935 -1.345748 -2.403857 0
M  V30 9 C 0.144130 -0.466803 -1.208764 0
M  V30 10 O 0.879507 -1.385566 -0.765951 0
M  V30 11 N -0.573230 0.733839 -1.108357 0
M  V30 12 C -0.572502 1.453423 0.152148 0
M  V30 13 C 0.370523 2.402493 0.440211 0
M  V30 14 N 0.295977 3.007431 1.609658 0
M  V30 15 C -0.511019 2.806345 2.434597 0
M  V30 16 C -0.773160 3.359709 3.787424 0
M  V30 17 C 0.051902 4.339223 4.301260 0
M  V30 18 C -0.245410 4.810897 5.562384 0
M  V30 19 N -1.286783 4.349892 6.273580 0
M  V30 20 C -2.068223 3.404859 5.756555 0
M  V30 21 C -1.852288 2.870055 4.503473 0
M  V30 22 S -1.596829 1.476430 1.687112 0
M  V30 23 C 0.534460 -3.606710 -1.417094 0
M  V30 24 H -1.122392 -5.187373 0.015831 0
M  V30 25 H -0.735004 -6.815904 0.635132 0
M  V30 26 H -0.961876 -6.585154 -1.134154 0
M  V30 27 H 3.304447 -5.450980 -0.815848 0
M  V30 28 H 4.352224 -3.444197 -1.794109 0
M  V30 29 H 2.938924 -1.574175 -2.515089 0
M  V30 30 H -0.695357 -1.726716 -2.774883 0
M  V30 31 H 0.821184 -0.751560 -3.174686 0
M  V30 32 H -1.059834 1.018438 -1.967258 0
M  V30 33 H 1.197337 2.714226 -0.219687 0
M  V30 34 H 0.859831 4.642504 3.654124 0
M  V30 35 H 0.423539 5.579077 5.933440 0
M  V30 36 H -2.934111 2.993711 6.299068 0
M  V30 37 H -2.499102 2.092491 4.083617 0
M  V30 38 H -0.552724 -3.708669 -1.284907 0
M  V30 END ATOM
M  V30 BEGIN BOND
M  V30 1 1 1 2
M  V30 2 1 2 3
M  V30 3 2 3 4
M  V30 4 1 4 5
M  V30 5 2 5 6
M  V30 6 1 6 7
M  V30 7 1 7 8
M  V30 8 1 8 9
M  V30 9 2 9 10
M  V30 10 1 9 11
M  V30 11 1 11 12
M  V30 12 2 12 13
M  V30 13 1 13 14
M  V30 14 2 14 15
M  V30 15 1 15 16
M  V30 16 2 16 17
M  V30 17 1 17 18
M  V30 18 2 18 19
M  V30 19 1 19 20
M  V30 20 2 20 21
M  V30 21 1 15 22
M  V30 22 2 7 23
M  V30 23 1 23 3
M  V30 24 1 22 12
M  V30 25 1 21 16
M  V30 26 1 1 24
M  V30 27 1 1 25
M  V30 28 1 1 26
M  V30 29 1 4 27
M  V30 30 1 5 28
M  V30 31 1 6 29
M  V30 32 1 8 30
M  V30 33 1 8 31
M  V30 34 1 11 32
M  V30 35 1 13 33
M  V30 36 1 17 34
M  V30 37 1 18 35
M  V30 38 1 20 36
M  V30 39 1 21 37
M  V30 40 1 23 38
M  V30 END BOND
M  V30 END CTAB
M  END
>  <Dataset>  (35) 
ChEMBL_PKA

>  <Ligand_Instance>  (35) 
nan

>  <PDB_ID>  (35) 
nan

>  <Standardized_SMILES>  (35) 
COc1cccc(CC(=O)Nc2cnc(-c3ccncc3)s2)c1

>  <Name>  (35) 
nan

>  <Pocket>  (35) 
nan

>  <ATP_Site>  (35) 
nan

>  <Peripheral>  (35) 
nan

>  <Num_H_Atoms_ProtBoundConf>  (35) 
nan

>  <Num_Resolved_Atoms>  (35) 
nan

>  <Num_Not_Resolved_Atoms>  (35) 
nan

$$$$
CHEMBL3581132
     RDKit          3D

  0  0  0  0  0  0  0  0  0  0999 V3000
M  V30 BEGIN CTAB
M  V30 COUNTS 39 41 0 0 0
M  V30 BEGIN ATOM
M  V30 1 C -0.124638 -5.872989 -0.169207 0
M  V30 2 O 1.260688 -5.684900 -0.298901 0
M  V30 3 C 1.729134 -4.488758 -0.830761 0
M  V30 4 C 3.095781 -4.280834 -0.967329 0
M  V30 5 C 3.564773 -3.092274 -1.495463 0
M  V30 6 C 2.676645 -2.114654 -1.886217 0
M  V30 7 C 1.297066 -2.312657 -1.753454 0
M  V30 8 C 0.365123 -1.220143 -2.189074 0
M  V30 9 C 0.063977 -0.346203 -1.044977 0
M  V30 10 O 0.607993 -0.653859 0.046822 0
M  V30 11 N -0.787044 0.786888 -1.132639 0
M  V30 12 C -1.093528 1.660538 -0.001138 0
M  V30 13 C -0.736389 1.666334 1.259537 0
M  V30 14 C -1.225873 2.664431 2.064455 0
M  V30 15 C -0.880003 2.757126 3.509163 0
M  V30 16 C 0.365729 2.321779 3.918894 0
M  V30 17 C 0.736052 2.381699 5.247495 0
M  V30 18 N -0.143460 2.876816 6.154612 0
M  V30 19 C -1.342351 3.296142 5.762743 0
M  V30 20 C -1.766398 3.258604 4.439675 0
M  V30 21 C -2.053381 3.602684 1.537369 0
M  V30 22 S -2.141487 3.009245 -0.263885 0
M  V30 23 C 0.852622 -3.492281 -1.229816 0
M  V30 24 H -0.585573 -4.994258 0.330477 0
M  V30 25 H -0.360290 -6.735963 0.512392 0
M  V30 26 H -0.580034 -5.992670 -1.160279 0
M  V30 27 H 3.814699 -5.044357 -0.663321 0
M  V30 28 H 4.624697 -2.916256 -1.608174 0
M  V30 29 H 3.016301 -1.156169 -2.310203 0
M  V30 30 H -0.536049 -1.686922 -2.632193 0
M  V30 31 H 0.877228 -0.709357 -3.034299 0
M  V30 32 H -1.164645 0.929653 -2.070151 0
M  V30 33 H -0.074433 0.887963 1.612383 0
M  V30 34 H 1.031938 1.935224 3.159564 0
M  V30 35 H 1.732694 2.025892 5.528496 0
M  V30 36 H -2.050247 3.691279 6.472412 0
M  V30 37 H -2.735053 3.590973 4.081892 0
M  V30 38 H -2.532694 4.442946 1.982520 0
M  V30 39 H -0.212604 -3.631514 -1.133310 0
M  V30 END ATOM
M  V30 BEGIN BOND
M  V30 1 1 1 2
M  V30 2 1 2 3
M  V30 3 2 3 4
M  V30 4 1 4 5
M  V30 5 2 5 6
M  V30 6 1 6 7
M  V30 7 1 7 8
M  V30 8 1 8 9
M  V30 9 2 9 10
M  V30 10 1 9 11
M  V30 11 1 11 12
M  V30 12 2 12 13
M  V30 13 1 13 14
M  V30 14 1 14 15
M  V30 15 2 15 16
M  V30 16 1 16 17
M  V30 17 2 17 18
M  V30 18 1 18 19
M  V30 19 2 19 20
M  V30 20 2 14 21
M  V30 21 1 21 22
M  V30 22 2 7 23
M  V30 23 1 23 3
M  V30 24 1 22 12
M  V30 25 1 20 15
M  V30 26 1 1 24
M  V30 27 1 1 25
M  V30 28 1 1 26
M  V30 29 1 4 27
M  V30 30 1 5 28
M  V30 31 1 6 29
M  V30 32 1 8 30
M  V30 33 1 8 31
M  V30 34 1 11 32
M  V30 35 1 13 33
M  V30 36 1 16 34
M  V30 37 1 17 35
M  V30 38 1 19 36
M  V30 39 1 20 37
M  V30 40 1 21 38
M  V30 41 1 23 39
M  V30 END BOND
M  V30 END CTAB
M  END
>  <Dataset>  (36) 
ChEMBL_PKA

>  <Ligand_Instance>  (36) 
nan

>  <PDB_ID>  (36) 
nan

>  <Standardized_SMILES>  (36) 
COc1cccc(CC(=O)Nc2cc(-c3ccncc3)cs2)c1

>  <Name>  (36) 
nan

>  <Pocket>  (36) 
nan

>  <ATP_Site>  (36) 
nan

>  <Peripheral>  (36) 
nan

>  <Num_H_Atoms_ProtBoundConf>  (36) 
nan

>  <Num_Resolved_Atoms>  (36) 
nan

>  <Num_Not_Resolved_Atoms>  (36) 
nan

$$$$
CHEMBL3581133
     RDKit          3D

  0  0  0  0  0  0  0  0  0  0999 V3000
M  V30 BEGIN CTAB
M  V30 COUNTS 39 41 0 0 0
M  V30 BEGIN ATOM
M  V30 1 C 0.966090 -5.274277 -0.998083 0
M  V30 2 O 2.168702 -4.957801 -0.316768 0
M  V30 3 C 2.722814 -3.682165 -0.370232 0
M  V30 4 C 3.892291 -3.257531 0.255228 0
M  V30 5 C 4.393168 -1.986318 0.166751 0
M  V30 6 C 3.709547 -1.058362 -0.583380 0
M  V30 7 C 2.548908 -1.369339 -1.239291 0
M  V30 8 C 1.664180 -0.537286 -2.107070 0
M  V30 9 C 0.813585 0.255364 -1.206871 0
M  V30 10 O 1.298285 1.170816 -0.513662 0
M  V30 11 N -0.588142 0.077793 -1.027301 0
M  V30 12 C -1.232887 0.951138 -0.110436 0
M  V30 13 C -1.842318 2.086259 -0.690060 0
M  V30 14 S -2.565889 2.978478 0.816420 0
M  V30 15 C -2.004334 1.810812 1.938482 0
M  V30 16 C -2.228837 1.879382 3.426052 0
M  V30 17 C -2.943530 2.968859 3.847094 0
M  V30 18 C -3.168020 3.067305 5.201778 0
M  V30 19 N -2.692474 2.123935 6.020931 0
M  V30 20 C -2.000837 1.085960 5.537712 0
M  V30 21 C -1.697332 0.857437 4.182155 0
M  V30 22 C -1.371249 0.899344 1.249757 0
M  V30 23 C 2.085874 -2.677073 -1.114054 0
M  V30 24 H 0.130972 -4.620386 -0.660177 0
M  V30 25 H 0.710583 -6.332713 -0.805940 0
M  V30 26 H 1.175529 -5.206121 -2.076522 0
M  V30 27 H 4.407288 -4.010361 0.840173 0
M  V30 28 H 5.287932 -1.696680 0.654947 0
M  V30 29 H 4.000769 -0.019875 -0.733996 0
M  V30 30 H 2.357584 0.175432 -2.615796 0
M  V30 31 H 1.150450 -1.114852 -2.871417 0
M  V30 32 H -1.055796 -0.681827 -1.576590 0
M  V30 33 H -1.909147 2.419315 -1.757737 0
M  V30 34 H -3.330263 3.731136 3.204408 0
M  V30 35 H -3.730530 3.915307 5.549067 0
M  V30 36 H -1.646709 0.358952 6.276308 0
M  V30 37 H -1.141995 0.019185 3.816274 0
M  V30 38 H -0.914151 0.033819 1.740857 0
M  V30 39 H 1.166850 -3.023865 -1.602897 0
M  V30 END ATOM
M  V30 BEGIN BOND
M  V30 1 1 1 2
M  V30 2 1 2 3
M  V30 3 2 3 4
M  V30 4 1 4 5
M  V30 5 2 5 6
M  V30 6 1 6 7
M  V30 7 1 7 8
M  V30 8 1 8 9
M  V30 9 2 9 10
M  V30 10 1 9 11
M  V30 11 1 11 12
M  V30 12 2 12 13
M  V30 13 1 13 14
M  V30 14 1 14 15
M  V30 15 1 15 16
M  V30 16 2 16 17
M  V30 17 1 17 18
M  V30 18 2 18 19
M  V30 19 1 19 20
M  V30 20 2 20 21
M  V30 21 2 15 22
M  V30 22 2 7 23
M  V30 23 1 23 3
M  V30 24 1 22 12
M  V30 25 1 21 16
M  V30 26 1 1 24
M  V30 27 1 1 25
M  V30 28 1 1 26
M  V30 29 1 4 27
M  V30 30 1 5 28
M  V30 31 1 6 29
M  V30 32 1 8 30
M  V30 33 1 8 31
M  V30 34 1 11 32
M  V30 35 1 13 33
M  V30 36 1 17 34
M  V30 37 1 18 35
M  V30 38 1 20 36
M  V30 39 1 21 37
M  V30 40 1 22 38
M  V30 41 1 23 39
M  V30 END BOND
M  V30 END CTAB
M  END
>  <Dataset>  (37) 
ChEMBL_PKA

>  <Ligand_Instance>  (37) 
nan

>  <PDB_ID>  (37) 
nan

>  <Standardized_SMILES>  (37) 
COc1cccc(CC(=O)Nc2csc(-c3ccncc3)c2)c1

>  <Name>  (37) 
nan

>  <Pocket>  (37) 
nan

>  <ATP_Site>  (37) 
nan

>  <Peripheral>  (37) 
nan

>  <Num_H_Atoms_ProtBoundConf>  (37) 
nan

>  <Num_Resolved_Atoms>  (37) 
nan

>  <Num_Not_Resolved_Atoms>  (37) 
nan

$$$$
CHEMBL3581134
     RDKit          3D

  0  0  0  0  0  0  0  0  0  0999 V3000
M  V30 BEGIN CTAB
M  V30 COUNTS 39 41 0 0 0
M  V30 BEGIN ATOM
M  V30 1 C -0.018473 -5.841794 0.053910 0
M  V30 2 O 1.396601 -5.756066 -0.085975 0
M  V30 3 C 1.894896 -4.612519 -0.729041 0
M  V30 4 C 3.266590 -4.505578 -0.877343 0
M  V30 5 C 3.727224 -3.389605 -1.503198 0
M  V30 6 C 2.934758 -2.357714 -2.000830 0
M  V30 7 C 1.566342 -2.489137 -1.839689 0
M  V30 8 C 0.585037 -1.477290 -2.314046 0
M  V30 9 C 0.372696 -0.505305 -1.205380 0
M  V30 10 O 1.057330 -0.766837 -0.159385 0
M  V30 11 N -0.498875 0.609818 -1.278748 0
M  V30 12 C -0.512565 1.382368 -0.065285 0
M  V30 13 C 0.241554 2.426968 0.320340 0
M  V30 14 C 0.016128 2.984142 1.545733 0
M  V30 15 C -0.938601 2.488584 2.332636 0
M  V30 16 C -1.380206 2.884698 3.660841 0
M  V30 17 C -0.793489 3.947308 4.346299 0
M  V30 18 C -1.229402 4.305667 5.607020 0
M  V30 19 N -2.237069 3.632326 6.205636 0
M  V30 20 C -2.805402 2.599607 5.536408 0
M  V30 21 C -2.408929 2.193757 4.266527 0
M  V30 22 S -1.650728 1.135786 1.403542 0
M  V30 23 C 1.067732 -3.601985 -1.212977 0
M  V30 24 H -0.485204 -5.879721 -0.963793 0
M  V30 25 H -0.284713 -6.804921 0.545353 0
M  V30 26 H -0.447909 -5.018325 0.644940 0
M  V30 27 H 3.963236 -5.266790 -0.517700 0
M  V30 28 H 4.804589 -3.225884 -1.662194 0
M  V30 29 H 3.325021 -1.496059 -2.486349 0
M  V30 30 H -0.360698 -1.970058 -2.593953 0
M  V30 31 H 1.027502 -0.938997 -3.186496 0
M  V30 32 H -1.031522 0.770319 -2.161730 0
M  V30 33 H 1.010426 2.779138 -0.385728 0
M  V30 34 H 0.603410 3.842463 1.915175 0
M  V30 35 H 0.020420 4.462772 3.818991 0
M  V30 36 H -0.688672 5.159368 6.045051 0
M  V30 37 H -3.615041 2.056162 6.013652 0
M  V30 38 H -2.904506 1.353659 3.776116 0
M  V30 39 H -0.002523 -3.751132 -1.062215 0
M  V30 END ATOM
M  V30 BEGIN BOND
M  V30 1 1 1 2
M  V30 2 1 2 3
M  V30 3 2 3 4
M  V30 4 1 4 5
M  V30 5 2 5 6
M  V30 6 1 6 7
M  V30 7 1 7 8
M  V30 8 1 8 9
M  V30 9 2 9 10
M  V30 10 1 9 11
M  V30 11 1 11 12
M  V30 12 2 12 13
M  V30 13 1 13 14
M  V30 14 2 14 15
M  V30 15 1 15 16
M  V30 16 2 16 17
M  V30 17 1 17 18
M  V30 18 2 18 19
M  V30 19 1 19 20
M  V30 20 2 20 21
M  V30 21 1 15 22
M  V30 22 2 7 23
M  V30 23 1 23 3
M  V30 24 1 22 12
M  V30 25 1 21 16
M  V30 26 1 1 24
M  V30 27 1 1 25
M  V30 28 1 1 26
M  V30 29 1 4 27
M  V30 30 1 5 28
M  V30 31 1 6 29
M  V30 32 1 8 30
M  V30 33 1 8 31
M  V30 34 1 11 32
M  V30 35 1 13 33
M  V30 36 1 14 34
M  V30 37 1 17 35
M  V30 38 1 18 36
M  V30 39 1 20 37
M  V30 40 1 21 38
M  V30 41 1 23 39
M  V30 END BOND
M  V30 END CTAB
M  END
>  <Dataset>  (38) 
ChEMBL_PKA

>  <Ligand_Instance>  (38) 
nan

>  <PDB_ID>  (38) 
nan

>  <Standardized_SMILES>  (38) 
COc1cccc(CC(=O)Nc2ccc(-c3ccncc3)s2)c1

>  <Name>  (38) 
nan

>  <Pocket>  (38) 
nan

>  <ATP_Site>  (38) 
nan

>  <Peripheral>  (38) 
nan

>  <Num_H_Atoms_ProtBoundConf>  (38) 
nan

>  <Num_Resolved_Atoms>  (38) 
nan

>  <Num_Not_Resolved_Atoms>  (38) 
nan

$$$$
CHEMBL3581135
     RDKit          3D

  0  0  0  0  0  0  0  0  0  0999 V3000
M  V30 BEGIN CTAB
M  V30 COUNTS 37 39 0 0 0
M  V30 BEGIN ATOM
M  V30 1 C 1.631003 -6.254012 1.249632 0
M  V30 2 O 1.383311 -5.111001 0.455672 0
M  V30 3 C 2.239489 -4.039673 0.463444 0
M  V30 4 C 3.375986 -4.029623 1.243191 0
M  V30 5 C 4.233940 -2.938744 1.241534 0
M  V30 6 C 3.955459 -1.835212 0.447799 0
M  V30 7 C 2.797167 -1.895264 -0.319760 0
M  V30 8 C 2.495439 -0.714503 -1.171667 0
M  V30 9 C 1.658895 0.263819 -0.396315 0
M  V30 10 O 1.469590 -0.221295 0.744801 0
M  V30 11 N 1.263208 1.467409 -1.042159 0
M  V30 12 C 0.446285 2.234227 -0.027260 0
M  V30 13 N -0.840739 1.962243 -0.066820 0
M  V30 14 C -1.527958 2.656781 0.841722 0
M  V30 15 C -2.978371 2.591245 1.063936 0
M  V30 16 C -3.906507 3.581851 0.830436 0
M  V30 17 C -5.236993 3.343623 1.099085 0
M  V30 18 N -5.643688 2.146522 1.590282 0
M  V30 19 C -4.753016 1.155904 1.828911 0
M  V30 20 C -3.406026 1.366841 1.567935 0
M  V30 21 N -0.943843 3.592994 1.759457 0
M  V30 22 S 0.796104 3.345020 1.131355 0
M  V30 23 C 1.921126 -2.965455 -0.341870 0
M  V30 24 H 1.705122 -6.019246 2.319837 0
M  V30 25 H 2.570738 -6.744214 0.918817 0
M  V30 26 H 0.818504 -6.998493 1.135292 0
M  V30 27 H 3.606317 -4.872193 1.861461 0
M  V30 28 H 5.131632 -2.921973 1.852622 0
M  V30 29 H 4.586812 -0.945821 0.399368 0
M  V30 30 H 1.904067 -1.005410 -2.054513 0
M  V30 31 H 3.444995 -0.242423 -1.535543 0
M  V30 32 H 1.559909 1.624783 -2.006516 0
M  V30 33 H -3.495529 4.501726 0.439522 0
M  V30 34 H -5.922282 4.153139 0.898258 0
M  V30 35 H -5.059739 0.178935 2.226338 0
M  V30 36 H -2.726080 0.529225 1.779715 0
M  V30 37 H 1.043320 -2.898155 -0.985024 0
M  V30 END ATOM
M  V30 BEGIN BOND
M  V30 1 1 1 2
M  V30 2 1 2 3
M  V30 3 2 3 4
M  V30 4 1 4 5
M  V30 5 2 5 6
M  V30 6 1 6 7
M  V30 7 1 7 8
M  V30 8 1 8 9
M  V30 9 2 9 10
M  V30 10 1 9 11
M  V30 11 1 11 12
M  V30 12 2 12 13
M  V30 13 1 13 14
M  V30 14 1 14 15
M  V30 15 2 15 16
M  V30 16 1 16 17
M  V30 17 2 17 18
M  V30 18 1 18 19
M  V30 19 2 19 20
M  V30 20 2 14 21
M  V30 21 1 21 22
M  V30 22 2 7 23
M  V30 23 1 23 3
M  V30 24 1 22 12
M  V30 25 1 20 15
M  V30 26 1 1 24
M  V30 27 1 1 25
M  V30 28 1 1 26
M  V30 29 1 4 27
M  V30 30 1 5 28
M  V30 31 1 6 29
M  V30 32 1 8 30
M  V30 33 1 8 31
M  V30 34 1 11 32
M  V30 35 1 16 33
M  V30 36 1 17 34
M  V30 37 1 19 35
M  V30 38 1 20 36
M  V30 39 1 23 37
M  V30 END BOND
M  V30 END CTAB
M  END
>  <Dataset>  (39) 
ChEMBL_PKA

>  <Ligand_Instance>  (39) 
nan

>  <PDB_ID>  (39) 
nan

>  <Standardized_SMILES>  (39) 
COc1cccc(CC(=O)Nc2nc(-c3ccncc3)ns2)c1

>  <Name>  (39) 
nan

>  <Pocket>  (39) 
nan

>  <ATP_Site>  (39) 
nan

>  <Peripheral>  (39) 
nan

>  <Num_H_Atoms_ProtBoundConf>  (39) 
nan

>  <Num_Resolved_Atoms>  (39) 
nan

>  <Num_Not_Resolved_Atoms>  (39) 
nan

$$$$
CHEMBL3581136
     RDKit          3D

  0  0  0  0  0  0  0  0  0  0999 V3000
M  V30 BEGIN CTAB
M  V30 COUNTS 37 39 0 0 0
M  V30 BEGIN ATOM
M  V30 1 C 3.896319 -6.201622 0.648095 0
M  V30 2 O 3.288144 -5.153459 -0.077400 0
M  V30 3 C 3.650560 -3.839479 0.179755 0
M  V30 4 C 4.579043 -3.410645 1.103995 0
M  V30 5 C 4.899927 -2.109740 1.319211 0
M  V30 6 C 4.254170 -1.149944 0.562696 0
M  V30 7 C 3.306726 -1.494470 -0.388817 0
M  V30 8 C 2.598358 -0.459411 -1.217274 0
M  V30 9 C 1.342587 -0.027389 -0.506710 0
M  V30 10 O 0.860963 -0.398634 0.599465 0
M  V30 11 N 0.606240 0.960833 -1.230947 0
M  V30 12 C -0.619548 1.347304 -0.482487 0
M  V30 13 N -0.683079 2.210337 0.298191 0
M  V30 14 N -1.721897 2.588475 0.977125 0
M  V30 15 C -2.783659 2.102402 0.903161 0
M  V30 16 C -4.151488 2.173591 1.421775 0
M  V30 17 C -4.456664 3.144727 2.377611 0
M  V30 18 C -5.735043 3.239450 2.887325 0
M  V30 19 N -6.723625 2.416866 2.493676 0
M  V30 20 C -6.455594 1.459463 1.562314 0
M  V30 21 C -5.183311 1.349235 1.041005 0
M  V30 22 S -2.441577 0.757310 -0.394611 0
M  V30 23 C 3.020658 -2.851124 -0.562895 0
M  V30 24 H 4.035013 -5.971252 1.725701 0
M  V30 25 H 4.917945 -6.446834 0.241894 0
M  V30 26 H 3.278104 -7.127839 0.634456 0
M  V30 27 H 5.070366 -4.187527 1.683843 0
M  V30 28 H 5.635082 -1.807498 2.054373 0
M  V30 29 H 4.438445 -0.088268 0.657832 0
M  V30 30 H 3.278229 0.413039 -1.264059 0
M  V30 31 H 2.287845 -0.864536 -2.185474 0
M  V30 32 H 0.780048 1.415824 -2.128602 0
M  V30 33 H -3.646687 3.784189 2.669795 0
M  V30 34 H -5.890311 4.028388 3.632863 0
M  V30 35 H -7.219316 0.770062 1.210820 0
M  V30 36 H -4.983642 0.597943 0.313742 0
M  V30 37 H 2.268317 -3.126193 -1.318473 0
M  V30 END ATOM
M  V30 BEGIN BOND
M  V30 1 1 1 2
M  V30 2 1 2 3
M  V30 3 2 3 4
M  V30 4 1 4 5
M  V30 5 2 5 6
M  V30 6 1 6 7
M  V30 7 1 7 8
M  V30 8 1 8 9
M  V30 9 2 9 10
M  V30 10 1 9 11
M  V30 11 1 11 12
M  V30 12 2 12 13
M  V30 13 1 13 14
M  V30 14 2 14 15
M  V30 15 1 15 16
M  V30 16 2 16 17
M  V30 17 1 17 18
M  V30 18 2 18 19
M  V30 19 1 19 20
M  V30 20 2 20 21
M  V30 21 1 15 22
M  V30 22 2 7 23
M  V30 23 1 23 3
M  V30 24 1 22 12
M  V30 25 1 21 16
M  V30 26 1 1 24
M  V30 27 1 1 25
M  V30 28 1 1 26
M  V30 29 1 4 27
M  V30 30 1 5 28
M  V30 31 1 6 29
M  V30 32 1 8 30
M  V30 33 1 8 31
M  V30 34 1 11 32
M  V30 35 1 17 33
M  V30 36 1 18 34
M  V30 37 1 20 35
M  V30 38 1 21 36
M  V30 39 1 23 37
M  V30 END BOND
M  V30 END CTAB
M  END
>  <Dataset>  (40) 
ChEMBL_PKA

>  <Ligand_Instance>  (40) 
nan

>  <PDB_ID>  (40) 
nan

>  <Standardized_SMILES>  (40) 
COc1cccc(CC(=O)Nc2nnc(-c3ccncc3)s2)c1

>  <Name>  (40) 
nan

>  <Pocket>  (40) 
nan

>  <ATP_Site>  (40) 
nan

>  <Peripheral>  (40) 
nan

>  <Num_H_Atoms_ProtBoundConf>  (40) 
nan

>  <Num_Resolved_Atoms>  (40) 
nan

>  <Num_Not_Resolved_Atoms>  (40) 
nan

$$$$
CHEMBL3581138
     RDKit          3D

  0  0  0  0  0  0  0  0  0  0999 V3000
M  V30 BEGIN CTAB
M  V30 COUNTS 38 40 0 0 0
M  V30 BEGIN ATOM
M  V30 1 C -0.087009 -5.657202 0.497385 0
M  V30 2 O 1.105060 -5.404005 -0.179531 0
M  V30 3 C 1.390272 -4.351116 -1.004587 0
M  V30 4 C 2.625080 -4.231470 -1.610466 0
M  V30 5 C 2.902931 -3.172921 -2.436171 0
M  V30 6 C 1.905696 -2.223301 -2.646004 0
M  V30 7 C 0.660632 -2.332670 -2.042623 0
M  V30 8 C -0.414087 -1.305207 -2.271472 0
M  V30 9 C -0.190604 -0.288636 -1.183842 0
M  V30 10 O 0.769033 -1.015302 -0.818249 0
M  V30 11 N -0.947112 0.895244 -0.955476 0
M  V30 12 C -0.541809 1.710622 0.147731 0
M  V30 13 C -0.841247 1.782351 1.440340 0
M  V30 14 C -0.229347 2.728099 2.214009 0
M  V30 15 C -0.535261 2.833673 3.635519 0
M  V30 16 C 0.067318 3.776927 4.434662 0
M  V30 17 C -0.240927 3.854990 5.778496 0
M  V30 18 N -1.134031 3.018765 6.350534 0
M  V30 19 C -1.713460 2.102587 5.553449 0
M  V30 20 N -1.417043 2.021745 4.243122 0
M  V30 21 C 0.694055 3.577811 1.576032 0
M  V30 22 S 0.650054 2.960890 -0.195758 0
M  V30 23 C 0.404508 -3.395541 -1.223284 0
M  V30 24 H 0.158654 -6.242062 1.426761 0
M  V30 25 H -0.483348 -4.684535 0.898614 0
M  V30 26 H -0.835113 -6.218035 -0.079601 0
M  V30 27 H 3.415389 -4.951359 -1.466012 0
M  V30 28 H 3.848586 -3.033286 -2.932250 0
M  V30 29 H 2.093180 -1.360692 -3.302286 0
M  V30 30 H -1.396581 -1.774457 -2.227074 0
M  V30 31 H -0.216940 -0.852755 -3.282633 0
M  V30 32 H -1.711542 1.031710 -1.620700 0
M  V30 33 H -1.569986 1.047966 1.744331 0
M  V30 34 H 0.791857 4.481618 4.052789 0
M  V30 35 H 0.245872 4.605335 6.387573 0
M  V30 36 H -2.452126 1.356624 5.856681 0
M  V30 37 H 1.251114 4.374250 2.078550 0
M  V30 38 H -0.546997 -3.487789 -0.756377 0
M  V30 END ATOM
M  V30 BEGIN BOND
M  V30 1 1 1 2
M  V30 2 1 2 3
M  V30 3 2 3 4
M  V30 4 1 4 5
M  V30 5 2 5 6
M  V30 6 1 6 7
M  V30 7 1 7 8
M  V30 8 1 8 9
M  V30 9 2 9 10
M  V30 10 1 9 11
M  V30 11 1 11 12
M  V30 12 2 12 13
M  V30 13 1 13 14
M  V30 14 1 14 15
M  V30 15 2 15 16
M  V30 16 1 16 17
M  V30 17 2 17 18
M  V30 18 1 18 19
M  V30 19 2 19 20
M  V30 20 2 14 21
M  V30 21 1 21 22
M  V30 22 2 7 23
M  V30 23 1 23 3
M  V30 24 1 22 12
M  V30 25 1 20 15
M  V30 26 1 1 24
M  V30 27 1 1 25
M  V30 28 1 1 26
M  V30 29 1 4 27
M  V30 30 1 5 28
M  V30 31 1 6 29
M  V30 32 1 8 30
M  V30 33 1 8 31
M  V30 34 1 11 32
M  V30 35 1 13 33
M  V30 36 1 16 34
M  V30 37 1 17 35
M  V30 38 1 19 36
M  V30 39 1 21 37
M  V30 40 1 23 38
M  V30 END BOND
M  V30 END CTAB
M  END
>  <Dataset>  (41) 
ChEMBL_PKA

>  <Ligand_Instance>  (41) 
nan

>  <PDB_ID>  (41) 
nan

>  <Standardized_SMILES>  (41) 
COc1cccc(CC(=O)Nc2cc(-c3ccncn3)cs2)c1

>  <Name>  (41) 
nan

>  <Pocket>  (41) 
nan

>  <ATP_Site>  (41) 
nan

>  <Peripheral>  (41) 
nan

>  <Num_H_Atoms_ProtBoundConf>  (41) 
nan

>  <Num_Resolved_Atoms>  (41) 
nan

>  <Num_Not_Resolved_Atoms>  (41) 
nan

$$$$
CHEMBL3581140
     RDKit          3D

  0  0  0  0  0  0  0  0  0  0999 V3000
M  V30 BEGIN CTAB
M  V30 COUNTS 40 42 0 0 0
M  V30 BEGIN ATOM
M  V30 1 C 1.620674 -5.090746 -3.750982 0
M  V30 2 O 2.791875 -4.732366 -3.060240 0
M  V30 3 C 2.916396 -3.459858 -2.550799 0
M  V30 4 C 4.130954 -3.267952 -1.898012 0
M  V30 5 C 4.457876 -2.054225 -1.311805 0
M  V30 6 C 3.565616 -0.988976 -1.365260 0
M  V30 7 C 2.365385 -1.191186 -2.014790 0
M  V30 8 C 1.334810 -0.117368 -2.131868 0
M  V30 9 C 0.416604 -0.201230 -0.955879 0
M  V30 10 O 0.849634 -1.165178 -0.275595 0
M  V30 11 N -0.635575 0.717380 -0.857039 0
M  V30 12 C -1.486414 0.538657 0.356894 0
M  V30 13 N -1.298650 1.060857 1.392308 0
M  V30 14 C -2.054499 0.909444 2.490532 0
M  V30 15 C -1.751220 1.599256 3.748024 0
M  V30 16 C -0.683432 2.454841 3.928572 0
M  V30 17 C -0.410859 3.097122 5.117842 0
M  V30 18 N -1.225876 2.889921 6.182451 0
M  V30 19 C -2.274830 2.078710 6.084138 0
M  V30 20 N -3.126867 1.864131 7.202447 0
M  V30 21 C -2.518699 1.453855 4.884666 0
M  V30 22 C -3.145350 0.063696 2.382113 0
M  V30 23 S -2.977587 -0.483086 0.571457 0
M  V30 24 C 2.036548 -2.395700 -2.598678 0
M  V30 25 H 0.905541 -5.525616 -3.009474 0
M  V30 26 H 1.216309 -4.268908 -4.342868 0
M  V30 27 H 1.921898 -5.908453 -4.458006 0
M  V30 28 H 4.909541 -4.023784 -1.790091 0
M  V30 29 H 5.394268 -1.877481 -0.798394 0
M  V30 30 H 3.733130 -0.000811 -0.935495 0
M  V30 31 H 0.774584 -0.215207 -3.067707 0
M  V30 32 H 1.887217 0.847165 -2.115582 0
M  V30 33 H -0.756384 1.423203 -1.584369 0
M  V30 34 H -0.017230 2.631663 3.078403 0
M  V30 35 H 0.446384 3.764382 5.209912 0
M  V30 36 H -3.944900 2.483723 7.015745 0
M  V30 37 H -3.035129 1.251834 8.051992 0
M  V30 38 H -3.390418 0.801488 4.861499 0
M  V30 39 H -3.858283 -0.181095 3.142691 0
M  V30 40 H 1.120436 -2.630547 -3.122927 0
M  V30 END ATOM
M  V30 BEGIN BOND
M  V30 1 1 1 2
M  V30 2 1 2 3
M  V30 3 2 3 4
M  V30 4 1 4 5
M  V30 5 2 5 6
M  V30 6 1 6 7
M  V30 7 1 7 8
M  V30 8 1 8 9
M  V30 9 2 9 10
M  V30 10 1 9 11
M  V30 11 1 11 12
M  V30 12 2 12 13
M  V30 13 1 13 14
M  V30 14 1 14 15
M  V30 15 2 15 16
M  V30 16 1 16 17
M  V30 17 2 17 18
M  V30 18 1 18 19
M  V30 19 1 19 20
M  V30 20 2 19 21
M  V30 21 2 14 22
M  V30 22 1 22 23
M  V30 23 2 7 24
M  V30 24 1 24 3
M  V30 25 1 23 12
M  V30 26 1 21 15
M  V30 27 1 1 25
M  V30 28 1 1 26
M  V30 29 1 1 27
M  V30 30 1 4 28
M  V30 31 1 5 29
M  V30 32 1 6 30
M  V30 33 1 8 31
M  V30 34 1 8 32
M  V30 35 1 11 33
M  V30 36 1 16 34
M  V30 37 1 17 35
M  V30 38 1 20 36
M  V30 39 1 20 37
M  V30 40 1 21 38
M  V30 41 1 22 39
M  V30 42 1 24 40
M  V30 END BOND
M  V30 END CTAB
M  END
>  <Dataset>  (42) 
ChEMBL_PKA

>  <Ligand_Instance>  (42) 
nan

>  <PDB_ID>  (42) 
nan

>  <Standardized_SMILES>  (42) 
COc1cccc(CC(=O)Nc2nc(-c3ccnc(N)c3)cs2)c1

>  <Name>  (42) 
nan

>  <Pocket>  (42) 
nan

>  <ATP_Site>  (42) 
nan

>  <Peripheral>  (42) 
nan

>  <Num_H_Atoms_ProtBoundConf>  (42) 
nan

>  <Num_Resolved_Atoms>  (42) 
nan

>  <Num_Not_Resolved_Atoms>  (42) 
nan

$$$$
CHEMBL3581146
     RDKit          3D

  0  0  0  0  0  0  0  0  0  0999 V3000
M  V30 BEGIN CTAB
M  V30 COUNTS 39 41 0 0 0
M  V30 BEGIN ATOM
M  V30 1 C -0.007573 -5.929900 -0.125226 0
M  V30 2 O 1.359260 -5.632883 0.068475 0
M  V30 3 C 1.873160 -4.434903 -0.391078 0
M  V30 4 C 3.217293 -4.225296 -0.160246 0
M  V30 5 C 3.869206 -3.089630 -0.554932 0
M  V30 6 C 3.083525 -2.138864 -1.215739 0
M  V30 7 C 1.720265 -2.340445 -1.455217 0
M  V30 8 C 0.970415 -1.249791 -2.173746 0
M  V30 9 C 0.456673 -0.363662 -1.121047 0
M  V30 10 O 0.738682 -0.696021 0.057922 0
M  V30 11 N -0.302043 0.787077 -1.363777 0
M  V30 12 C -0.826471 1.687674 -0.330303 0
M  V30 13 C -0.748888 1.673913 0.974627 0
M  V30 14 C -1.366305 2.691844 1.661039 0
M  V30 15 C -1.340370 2.771652 3.144714 0
M  V30 16 C -0.209301 2.277785 3.801669 0
M  V30 17 C -0.167999 2.340328 5.181625 0
M  V30 18 N -1.188976 2.865165 5.918951 0
M  V30 19 C -2.249331 3.324957 5.248609 0
M  V30 20 F -3.282185 3.853814 5.960508 0
M  V30 21 C -2.381349 3.305553 3.874955 0
M  V30 22 C -2.027851 3.666906 0.984380 0
M  V30 23 S -1.739720 3.072350 -0.792891 0
M  V30 24 C 1.109491 -3.491657 -1.042774 0
M  V30 25 H -0.270198 -6.822070 0.478655 0
M  V30 26 H -0.591598 -5.018872 0.180102 0
M  V30 27 H -0.151790 -6.120123 -1.212436 0
M  V30 28 H 3.828323 -4.971040 0.357111 0
M  V30 29 H 4.913834 -2.942474 -0.367864 0
M  V30 30 H 3.535249 -1.208463 -1.559620 0
M  V30 31 H 0.193960 -1.699307 -2.825423 0
M  V30 32 H 1.692630 -0.775832 -2.863349 0
M  V30 33 H -0.471182 0.959807 -2.373972 0
M  V30 34 H -0.208532 0.871801 1.455096 0
M  V30 35 H 0.584084 1.867942 3.196943 0
M  V30 36 H 0.716671 1.954027 5.694996 0
M  V30 37 H -3.249218 3.683204 3.346933 0
M  V30 38 H -2.555891 4.516144 1.308489 0
M  V30 39 H 0.061014 -3.661517 -1.220047 0
M  V30 END ATOM
M  V30 BEGIN BOND
M  V30 1 1 1 2
M  V30 2 1 2 3
M  V30 3 2 3 4
M  V30 4 1 4 5
M  V30 5 2 5 6
M  V30 6 1 6 7
M  V30 7 1 7 8
M  V30 8 1 8 9
M  V30 9 2 9 10
M  V30 10 1 9 11
M  V30 11 1 11 12
M  V30 12 2 12 13
M  V30 13 1 13 14
M  V30 14 1 14 15
M  V30 15 2 15 16
M  V30 16 1 16 17
M  V30 17 2 17 18
M  V30 18 1 18 19
M  V30 19 1 19 20
M  V30 20 2 19 21
M  V30 21 2 14 22
M  V30 22 1 22 23
M  V30 23 2 7 24
M  V30 24 1 24 3
M  V30 25 1 23 12
M  V30 26 1 21 15
M  V30 27 1 1 25
M  V30 28 1 1 26
M  V30 29 1 1 27
M  V30 30 1 4 28
M  V30 31 1 5 29
M  V30 32 1 6 30
M  V30 33 1 8 31
M  V30 34 1 8 32
M  V30 35 1 11 33
M  V30 36 1 13 34
M  V30 37 1 16 35
M  V30 38 1 17 36
M  V30 39 1 21 37
M  V30 40 1 22 38
M  V30 41 1 24 39
M  V30 END BOND
M  V30 END CTAB
M  END
>  <Dataset>  (43) 
ChEMBL_PKA

>  <Ligand_Instance>  (43) 
nan

>  <PDB_ID>  (43) 
nan

>  <Standardized_SMILES>  (43) 
COc1cccc(CC(=O)Nc2cc(-c3ccnc(F)c3)cs2)c1

>  <Name>  (43) 
nan

>  <Pocket>  (43) 
nan

>  <ATP_Site>  (43) 
nan

>  <Peripheral>  (43) 
nan

>  <Num_H_Atoms_ProtBoundConf>  (43) 
nan

>  <Num_Resolved_Atoms>  (43) 
nan

>  <Num_Not_Resolved_Atoms>  (43) 
nan

$$$$
CHEMBL3581147
     RDKit          3D

  0  0  0  0  0  0  0  0  0  0999 V3000
M  V30 BEGIN CTAB
M  V30 COUNTS 39 41 0 0 0
M  V30 BEGIN ATOM
M  V30 1 C 1.064436 -5.611243 -1.018240 0
M  V30 2 O 2.284645 -5.233685 -0.411077 0
M  V30 3 C 2.768094 -3.932688 -0.481396 0
M  V30 4 C 3.971565 -3.583824 0.123960 0
M  V30 5 C 4.455597 -2.310628 0.061537 0
M  V30 6 C 3.729577 -1.335245 -0.623874 0
M  V30 7 C 2.518723 -1.663896 -1.238981 0
M  V30 8 C 1.768589 -0.580263 -1.967753 0
M  V30 9 C 0.878427 0.019104 -0.965924 0
M  V30 10 O 0.947512 -0.479095 0.185935 0
M  V30 11 N -0.002190 1.071684 -1.226361 0
M  V30 12 C -0.903245 1.690623 -0.247043 0
M  V30 13 C -1.106938 1.442872 1.022795 0
M  V30 14 C -2.034474 2.205319 1.689241 0
M  V30 15 C -2.358754 2.026217 3.128174 0
M  V30 16 C -1.340514 1.601712 3.960687 0
M  V30 17 C -1.600154 1.418739 5.308321 0
M  V30 18 N -2.841198 1.649767 5.827423 0
M  V30 19 C -3.784646 2.058977 4.970928 0
M  V30 20 Cl -5.372745 2.345729 5.681999 0
M  V30 21 C -3.621013 2.266188 3.629504 0
M  V30 22 C -2.708793 3.193744 0.999541 0
M  V30 23 S -1.929561 2.981232 -0.718649 0
M  V30 24 C 2.057357 -2.942998 -1.161761 0
M  V30 25 H 0.936810 -6.702290 -0.910268 0
M  V30 26 H 0.212560 -5.100501 -0.530879 0
M  V30 27 H 1.156743 -5.397298 -2.099175 0
M  V30 28 H 4.552277 -4.324156 0.661396 0
M  V30 29 H 5.392462 -1.967419 0.513490 0
M  V30 30 H 4.088520 -0.307750 -0.692776 0
M  V30 31 H 1.239393 -1.088587 -2.793233 0
M  V30 32 H 2.532756 0.113574 -2.353498 0
M  V30 33 H 0.029438 1.398827 -2.211430 0
M  V30 34 H -0.551799 0.656999 1.515286 0
M  V30 35 H -0.357003 1.416475 3.560826 0
M  V30 36 H -0.754290 1.080424 5.923567 0
M  V30 37 H -4.402374 2.597187 2.962303 0
M  V30 38 H -3.443662 3.876938 1.313966 0
M  V30 39 H 1.114837 -3.191571 -1.642447 0
M  V30 END ATOM
M  V30 BEGIN BOND
M  V30 1 1 1 2
M  V30 2 1 2 3
M  V30 3 2 3 4
M  V30 4 1 4 5
M  V30 5 2 5 6
M  V30 6 1 6 7
M  V30 7 1 7 8
M  V30 8 1 8 9
M  V30 9 2 9 10
M  V30 10 1 9 11
M  V30 11 1 11 12
M  V30 12 2 12 13
M  V30 13 1 13 14
M  V30 14 1 14 15
M  V30 15 2 15 16
M  V30 16 1 16 17
M  V30 17 2 17 18
M  V30 18 1 18 19
M  V30 19 1 19 20
M  V30 20 2 19 21
M  V30 21 2 14 22
M  V30 22 1 22 23
M  V30 23 2 7 24
M  V30 24 1 24 3
M  V30 25 1 23 12
M  V30 26 1 21 15
M  V30 27 1 1 25
M  V30 28 1 1 26
M  V30 29 1 1 27
M  V30 30 1 4 28
M  V30 31 1 5 29
M  V30 32 1 6 30
M  V30 33 1 8 31
M  V30 34 1 8 32
M  V30 35 1 11 33
M  V30 36 1 13 34
M  V30 37 1 16 35
M  V30 38 1 17 36
M  V30 39 1 21 37
M  V30 40 1 22 38
M  V30 41 1 24 39
M  V30 END BOND
M  V30 END CTAB
M  END
>  <Dataset>  (44) 
ChEMBL_PKA

>  <Ligand_Instance>  (44) 
nan

>  <PDB_ID>  (44) 
nan

>  <Standardized_SMILES>  (44) 
COc1cccc(CC(=O)Nc2cc(-c3ccnc(Cl)c3)cs2)c1

>  <Name>  (44) 
nan

>  <Pocket>  (44) 
nan

>  <ATP_Site>  (44) 
nan

>  <Peripheral>  (44) 
nan

>  <Num_H_Atoms_ProtBoundConf>  (44) 
nan

>  <Num_Resolved_Atoms>  (44) 
nan

>  <Num_Not_Resolved_Atoms>  (44) 
nan

$$$$
CHEMBL3581149
     RDKit          3D

  0  0  0  0  0  0  0  0  0  0999 V3000
M  V30 BEGIN CTAB
M  V30 COUNTS 41 43 0 0 0
M  V30 BEGIN ATOM
M  V30 1 C 0.326122 -6.258443 -0.108241 0
M  V30 2 O 1.674243 -5.892456 0.109734 0
M  V30 3 C 2.229420 -4.717761 -0.369913 0
M  V30 4 C 3.551163 -4.542685 -0.053312 0
M  V30 5 C 4.230609 -3.399523 -0.476330 0
M  V30 6 C 3.524533 -2.454529 -1.223278 0
M  V30 7 C 2.178642 -2.658730 -1.531258 0
M  V30 8 C 1.471694 -1.602820 -2.338788 0
M  V30 9 C 0.896155 -0.656913 -1.349878 0
M  V30 10 O 1.122351 -0.952921 -0.151424 0
M  V30 11 N 0.156853 0.482620 -1.671197 0
M  V30 12 C -0.410054 1.411179 -0.736140 0
M  V30 13 C -0.405325 1.455191 0.586643 0
M  V30 14 C -1.044077 2.487570 1.224271 0
M  V30 15 C -1.099139 2.630097 2.700944 0
M  V30 16 C -0.015994 2.163125 3.416734 0
M  V30 17 C 0.020495 2.251373 4.794531 0
M  V30 18 N -1.048892 2.815069 5.423200 0
M  V30 19 C -2.091272 3.260572 4.682784 0
M  V30 20 N -3.170495 3.838712 5.430598 0
M  V30 21 C -2.192854 3.204377 3.314137 0
M  V30 22 C -1.663422 3.434100 0.430857 0
M  V30 23 S -1.294668 2.785609 -1.279043 0
M  V30 24 C 1.521364 -3.792467 -1.106362 0
M  V30 25 H -0.029866 -6.972005 0.677463 0
M  V30 26 H 0.203492 -6.661800 -1.125733 0
M  V30 27 H -0.298919 -5.329568 -0.046764 0
M  V30 28 H 4.148780 -5.256201 0.531133 0
M  V30 29 H 5.272961 -3.164185 -0.280602 0
M  V30 30 H 4.000289 -1.538931 -1.583876 0
M  V30 31 H 0.660879 -2.103433 -2.902878 0
M  V30 32 H 2.236059 -1.141200 -2.990338 0
M  V30 33 H 0.049855 0.601571 -2.700576 0
M  V30 34 H 0.105294 0.670320 1.128133 0
M  V30 35 H 0.846253 1.711025 2.937982 0
M  V30 36 H 0.820791 1.915159 5.442432 0
M  V30 37 H -4.102640 3.567605 5.822969 0
M  V30 38 H -4.064081 3.391780 5.745398 0
M  V30 39 H -3.024837 3.563031 2.762768 0
M  V30 40 H -2.218520 4.322825 0.756744 0
M  V30 41 H 0.479593 -3.962389 -1.338443 0
M  V30 END ATOM
M  V30 BEGIN BOND
M  V30 1 1 1 2
M  V30 2 1 2 3
M  V30 3 2 3 4
M  V30 4 1 4 5
M  V30 5 2 5 6
M  V30 6 1 6 7
M  V30 7 1 7 8
M  V30 8 1 8 9
M  V30 9 2 9 10
M  V30 10 1 9 11
M  V30 11 1 11 12
M  V30 12 2 12 13
M  V30 13 1 13 14
M  V30 14 1 14 15
M  V30 15 2 15 16
M  V30 16 1 16 17
M  V30 17 2 17 18
M  V30 18 1 18 19
M  V30 19 1 19 20
M  V30 20 2 19 21
M  V30 21 2 14 22
M  V30 22 1 22 23
M  V30 23 2 7 24
M  V30 24 1 24 3
M  V30 25 1 23 12
M  V30 26 1 21 15
M  V30 27 1 1 25
M  V30 28 1 1 26
M  V30 29 1 1 27
M  V30 30 1 4 28
M  V30 31 1 5 29
M  V30 32 1 6 30
M  V30 33 1 8 31
M  V30 34 1 8 32
M  V30 35 1 11 33
M  V30 36 1 13 34
M  V30 37 1 16 35
M  V30 38 1 17 36
M  V30 39 1 20 37
M  V30 40 1 20 38
M  V30 41 1 21 39
M  V30 42 1 22 40
M  V30 43 1 24 41
M  V30 END BOND
M  V30 END CTAB
M  END
>  <Dataset>  (45) 
ChEMBL_PKA

>  <Ligand_Instance>  (45) 
nan

>  <PDB_ID>  (45) 
nan

>  <Standardized_SMILES>  (45) 
COc1cccc(CC(=O)Nc2cc(-c3ccnc(N)c3)cs2)c1

>  <Name>  (45) 
nan

>  <Pocket>  (45) 
nan

>  <ATP_Site>  (45) 
nan

>  <Peripheral>  (45) 
nan

>  <Num_H_Atoms_ProtBoundConf>  (45) 
nan

>  <Num_Resolved_Atoms>  (45) 
nan

>  <Num_Not_Resolved_Atoms>  (45) 
nan

$$$$
CHEMBL3581150
     RDKit          3D

  0  0  0  0  0  0  0  0  0  0999 V3000
M  V30 BEGIN CTAB
M  V30 COUNTS 45 47 0 0 0
M  V30 BEGIN ATOM
M  V30 1 C 3.633825 -3.911947 0.647571 0
M  V30 2 S 3.741760 -4.503593 -1.001412 0
M  V30 3 O 5.079382 -4.188179 -1.599630 0
M  V30 4 O 3.614009 -5.987962 -0.967430 0
M  V30 5 N 2.550656 -3.775743 -2.009487 0
M  V30 6 C 2.491734 -2.380185 -2.254511 0
M  V30 7 C 2.294241 -2.086046 -3.608444 0
M  V30 8 C 2.211428 -0.778106 -4.039578 0
M  V30 9 C 2.320703 0.264127 -3.151700 0
M  V30 10 C 2.516225 -0.019559 -1.810230 0
M  V30 11 C 2.656244 0.980387 -0.710627 0
M  V30 12 C 1.281605 1.219207 -0.217034 0
M  V30 13 O 1.067669 0.378609 -1.128554 0
M  V30 14 N 1.004882 2.107848 0.828827 0
M  V30 15 C -0.460169 2.233316 1.209569 0
M  V30 16 C -1.116344 1.512629 2.106712 0
M  V30 17 C -2.430512 1.775276 2.307330 0
M  V30 18 C -3.276028 1.041012 3.281063 0
M  V30 19 C -4.623078 0.846389 3.060581 0
M  V30 20 C -5.314846 0.145767 4.038350 0
M  V30 21 N -4.757343 -0.338300 5.155061 0
M  V30 22 C -3.434927 -0.161517 5.397454 0
M  V30 23 N -2.821075 -0.662200 6.568243 0
M  V30 24 C -2.723976 0.532091 4.440618 0
M  V30 25 C -3.009943 2.789527 1.555352 0
M  V30 26 S -1.516442 3.352571 0.521310 0
M  V30 27 C 2.599516 -1.324508 -1.375313 0
M  V30 28 H 4.275781 -3.032128 0.857553 0
M  V30 29 H 3.950859 -4.703259 1.363829 0
M  V30 30 H 2.585149 -3.663569 0.915458 0
M  V30 31 H 1.837883 -4.424647 -2.456562 0
M  V30 32 H 2.190337 -2.795414 -4.421041 0
M  V30 33 H 2.059152 -0.485464 -5.075995 0
M  V30 34 H 2.274234 1.324004 -3.355481 0
M  V30 35 H 3.375128 0.649216 0.036100 0
M  V30 36 H 3.083518 1.883730 -1.209382 0
M  V30 37 H 1.812179 2.585358 1.234800 0
M  V30 38 H -0.577514 0.736449 2.649827 0
M  V30 39 H -5.090064 1.232163 2.160973 0
M  V30 40 H -6.374960 -0.010035 3.869658 0
M  V30 41 H -2.813191 -1.711847 6.654324 0
M  V30 42 H -2.363927 -0.197695 7.383035 0
M  V30 43 H -1.653896 0.678145 4.631238 0
M  V30 44 H -4.070851 3.138373 1.589391 0
M  V30 45 H 2.749822 -1.637296 -0.351673 0
M  V30 END ATOM
M  V30 BEGIN BOND
M  V30 1 1 1 2
M  V30 2 2 2 3
M  V30 3 2 2 4
M  V30 4 1 2 5
M  V30 5 1 5 6
M  V30 6 2 6 7
M  V30 7 1 7 8
M  V30 8 2 8 9
M  V30 9 1 9 10
M  V30 10 1 10 11
M  V30 11 1 11 12
M  V30 12 2 12 13
M  V30 13 1 12 14
M  V30 14 1 14 15
M  V30 15 2 15 16
M  V30 16 1 16 17
M  V30 17 1 17 18
M  V30 18 2 18 19
M  V30 19 1 19 20
M  V30 20 2 20 21
M  V30 21 1 21 22
M  V30 22 1 22 23
M  V30 23 2 22 24
M  V30 24 2 17 25
M  V30 25 1 25 26
M  V30 26 2 10 27
M  V30 27 1 27 6
M  V30 28 1 26 15
M  V30 29 1 24 18
M  V30 30 1 1 28
M  V30 31 1 1 29
M  V30 32 1 1 30
M  V30 33 1 5 31
M  V30 34 1 7 32
M  V30 35 1 8 33
M  V30 36 1 9 34
M  V30 37 1 11 35
M  V30 38 1 11 36
M  V30 39 1 14 37
M  V30 40 1 16 38
M  V30 41 1 19 39
M  V30 42 1 20 40
M  V30 43 1 23 41
M  V30 44 1 23 42
M  V30 45 1 24 43
M  V30 46 1 25 44
M  V30 47 1 27 45
M  V30 END BOND
M  V30 END CTAB
M  END
>  <Dataset>  (46) 
ChEMBL_PKA

>  <Ligand_Instance>  (46) 
nan

>  <PDB_ID>  (46) 
nan

>  <Standardized_SMILES>  (46) 
CS(=O)(=O)Nc1cccc(CC(=O)Nc2cc(-c3ccnc(N)c3)cs2)c1

>  <Name>  (46) 
nan

>  <Pocket>  (46) 
nan

>  <ATP_Site>  (46) 
nan

>  <Peripheral>  (46) 
nan

>  <Num_H_Atoms_ProtBoundConf>  (46) 
nan

>  <Num_Resolved_Atoms>  (46) 
nan

>  <Num_Not_Resolved_Atoms>  (46) 
nan

$$$$
CHEMBL3787112
     RDKit          3D

  0  0  0  0  0  0  0  0  0  0999 V3000
M  V30 BEGIN CTAB
M  V30 COUNTS 49 53 0 0 0
M  V30 BEGIN ATOM
M  V30 1 N 4.205292 0.826445 1.051206 0
M  V30 2 C 3.513262 -0.223676 1.695632 0
M  V30 3 N 4.046613 -0.675327 2.828069 0
M  V30 4 C 3.437846 -1.695356 3.487959 0
M  V30 5 N 2.318963 -2.201190 2.960251 0
M  V30 6 C 1.771358 -1.763351 1.830825 0
M  V30 7 C 2.364307 -0.730767 1.139363 0
M  V30 8 C 1.676213 -0.413560 0.007937 0
M  V30 9 C 1.899471 0.607042 -1.005900 0
M  V30 10 C 1.953977 0.270973 -2.358943 0
M  V30 11 C 2.148150 1.259555 -3.330458 0
M  V30 12 C 2.284546 2.572955 -2.924581 0
M  V30 13 C 2.235193 2.948843 -1.575211 0
M  V30 14 O 2.380044 4.285577 -1.238934 0
M  V30 15 C 2.039636 1.930006 -0.642066 0
M  V30 16 C 0.610425 -1.311826 0.024036 0
M  V30 17 N 0.659829 -2.128279 1.118334 0
M  V30 18 C -0.194847 -3.184623 1.562575 0 CFG=1
M  V30 19 C -0.888599 -2.977081 2.889043 0
M  V30 20 C -2.193704 -2.568863 2.176991 0 CFG=1
M  V30 21 C -2.379995 -1.119497 2.349090 0
M  V30 22 N -3.491338 -0.469272 1.809049 0
M  V30 23 C -3.676042 -0.301923 0.412552 0
M  V30 24 C -4.690595 -1.439375 0.461375 0
M  V30 25 C -4.794158 -1.058649 1.919316 0
M  V30 26 C -1.560135 -3.096227 0.922869 0
M  V30 27 H 4.689182 1.585706 0.588997 0
M  V30 28 H 5.219041 0.905878 0.784258 0
M  V30 29 H 3.818914 -2.106495 4.407747 0
M  V30 30 H 1.846434 -0.768106 -2.689493 0
M  V30 31 H 2.189563 0.988828 -4.390821 0
M  V30 32 H 2.439374 3.383852 -3.653530 0
M  V30 33 H 1.652565 4.681733 -0.637338 0
M  V30 34 H 2.002983 2.302130 0.357780 0
M  V30 35 H -0.154809 -1.355989 -0.732853 0
M  V30 36 H 0.308877 -4.173244 1.464127 0
M  V30 37 H -0.980600 -3.948111 3.411876 0
M  V30 38 H -0.455809 -2.223219 3.541697 0
M  V30 39 H -3.016261 -3.239932 2.493457 0
M  V30 40 H -1.457521 -0.619208 1.921347 0
M  V30 41 H -2.287191 -0.881781 3.452796 0
M  V30 42 H -2.816405 -0.436064 -0.238453 0
M  V30 43 H -4.161030 0.689873 0.171942 0
M  V30 44 H -4.279354 -2.417903 0.220861 0
M  V30 45 H -5.580554 -1.140004 -0.160692 0
M  V30 46 H -4.974066 -1.840782 2.645858 0
M  V30 47 H -5.547247 -0.241698 2.015934 0
M  V30 48 H -1.646699 -2.458699 0.049946 0
M  V30 49 H -1.892198 -4.136771 0.649777 0
M  V30 END ATOM
M  V30 BEGIN BOND
M  V30 1 1 1 2
M  V30 2 2 2 3
M  V30 3 1 3 4
M  V30 4 2 4 5
M  V30 5 1 5 6
M  V30 6 2 6 7
M  V30 7 1 7 8
M  V30 8 1 8 9
M  V30 9 2 9 10
M  V30 10 1 10 11
M  V30 11 2 11 12
M  V30 12 1 12 13
M  V30 13 1 13 14
M  V30 14 2 13 15
M  V30 15 2 8 16
M  V30 16 1 16 17
M  V30 17 1 17 18
M  V30 18 1 18 19
M  V30 19 1 19 20
M  V30 20 1 20 21
M  V30 21 1 21 22
M  V30 22 1 22 23
M  V30 23 1 23 24
M  V30 24 1 24 25
M  V30 25 1 20 26
M  V30 26 1 7 2
M  V30 27 1 15 9
M  V30 28 1 26 18
M  V30 29 1 17 6
M  V30 30 1 25 22
M  V30 31 1 1 27
M  V30 32 1 1 28
M  V30 33 1 4 29
M  V30 34 1 10 30
M  V30 35 1 11 31
M  V30 36 1 12 32
M  V30 37 1 14 33
M  V30 38 1 15 34
M  V30 39 1 16 35
M  V30 40 1 18 36 CFG=1
M  V30 41 1 19 37
M  V30 42 1 19 38
M  V30 43 1 20 39 CFG=1
M  V30 44 1 21 40
M  V30 45 1 21 41
M  V30 46 1 23 42
M  V30 47 1 23 43
M  V30 48 1 24 44
M  V30 49 1 24 45
M  V30 50 1 25 46
M  V30 51 1 25 47
M  V30 52 1 26 48
M  V30 53 1 26 49
M  V30 END BOND
M  V30 END CTAB
M  END
>  <Dataset>  (47) 
ChEMBL_PKA

>  <Ligand_Instance>  (47) 
nan

>  <PDB_ID>  (47) 
nan

>  <Standardized_SMILES>  (47) 
Nc1ncnc2c1c(-c1cccc(O)c1)cn2[C@H]1C[C@@H](CN2CCC2)C1

>  <Name>  (47) 
nan

>  <Pocket>  (47) 
nan

>  <ATP_Site>  (47) 
nan

>  <Peripheral>  (47) 
nan

>  <Num_H_Atoms_ProtBoundConf>  (47) 
nan

>  <Num_Resolved_Atoms>  (47) 
nan

>  <Num_Not_Resolved_Atoms>  (47) 
nan

$$$$
CHEMBL38380
     RDKit          3D

  0  0  0  0  0  0  0  0  0  0999 V3000
M  V30 BEGIN CTAB
M  V30 COUNTS 37 39 0 0 0
M  V30 BEGIN ATOM
M  V30 1 O 1.577255 -1.714559 3.194716 0
M  V30 2 S 0.848803 -0.737678 2.286557 0
M  V30 3 O 0.382799 0.368539 3.232518 0
M  V30 4 C 1.971353 -0.145827 1.131271 0
M  V30 5 C 3.257668 -0.693127 1.050982 0
M  V30 6 C 4.242527 -0.333258 0.162400 0
M  V30 7 C 3.963830 0.661996 -0.750884 0
M  V30 8 C 2.723234 1.252556 -0.738995 0
M  V30 9 C 2.377436 2.268359 -1.626840 0
M  V30 10 N 1.149931 2.866023 -1.615858 0
M  V30 11 C 0.218379 2.459941 -0.703390 0
M  V30 12 C 0.586605 1.462833 0.152747 0
M  V30 13 C 1.810323 0.832273 0.176979 0
M  V30 14 N -0.527896 -1.506856 1.706019 0
M  V30 15 C -1.722938 -0.814130 2.031743 0
M  V30 16 C -2.574654 -0.494251 0.831054 0
M  V30 17 C -2.218635 -1.515669 -0.250786 0
M  V30 18 N -2.445092 -2.821501 0.280136 0
M  V30 19 C -1.218539 -3.512745 0.629929 0
M  V30 20 C -0.591290 -2.925729 1.881153 0
M  V30 21 H 3.539979 -1.490789 1.752821 0
M  V30 22 H 5.206199 -0.808446 0.171250 0
M  V30 23 H 4.704126 0.960358 -1.448997 0
M  V30 24 H 3.168493 2.544989 -2.329690 0
M  V30 25 H -0.756170 2.928244 -0.687605 0
M  V30 26 H -0.170123 1.179351 0.861917 0
M  V30 27 H -1.520204 0.153384 2.559203 0
M  V30 28 H -2.325670 -1.488591 2.702429 0
M  V30 29 H -2.444834 0.537412 0.447684 0
M  V30 30 H -3.644623 -0.617262 1.097232 0
M  V30 31 H -1.179281 -1.348823 -0.588476 0
M  V30 32 H -2.909829 -1.321472 -1.096716 0
M  V30 33 H -3.047471 -3.403157 -0.325915 0
M  V30 34 H -0.497753 -3.533989 -0.217912 0
M  V30 35 H -1.507667 -4.573796 0.786405 0
M  V30 36 H -1.235708 -3.260925 2.727685 0
M  V30 37 H 0.407085 -3.370100 1.970205 0
M  V30 END ATOM
M  V30 BEGIN BOND
M  V30 1 2 1 2
M  V30 2 2 2 3
M  V30 3 1 2 4
M  V30 4 2 4 5
M  V30 5 1 5 6
M  V30 6 2 6 7
M  V30 7 1 7 8
M  V30 8 2 8 9
M  V30 9 1 9 10
M  V30 10 2 10 11
M  V30 11 1 11 12
M  V30 12 2 12 13
M  V30 13 1 2 14
M  V30 14 1 14 15
M  V30 15 1 15 16
M  V30 16 1 16 17
M  V30 17 1 17 18
M  V30 18 1 18 19
M  V30 19 1 19 20
M  V30 20 1 13 4
M  V30 21 1 20 14
M  V30 22 1 13 8
M  V30 23 1 5 21
M  V30 24 1 6 22
M  V30 25 1 7 23
M  V30 26 1 9 24
M  V30 27 1 11 25
M  V30 28 1 12 26
M  V30 29 1 15 27
M  V30 30 1 15 28
M  V30 31 1 16 29
M  V30 32 1 16 30
M  V30 33 1 17 31
M  V30 34 1 17 32
M  V30 35 1 18 33
M  V30 36 1 19 34
M  V30 37 1 19 35
M  V30 38 1 20 36
M  V30 39 1 20 37
M  V30 END BOND
M  V30 END CTAB
M  END
>  <Dataset>  (48) 
ChEMBL_PKA

>  <Ligand_Instance>  (48) 
nan

>  <PDB_ID>  (48) 
nan

>  <Standardized_SMILES>  (48) 
O=S(=O)(c1cccc2cnccc12)N1CCCNCC1

>  <Name>  (48) 
FASUDIL

>  <Pocket>  (48) 
nan

>  <ATP_Site>  (48) 
nan

>  <Peripheral>  (48) 
nan

>  <Num_H_Atoms_ProtBoundConf>  (48) 
nan

>  <Num_Resolved_Atoms>  (48) 
nan

>  <Num_Not_Resolved_Atoms>  (48) 
nan

$$$$
CHEMBL3884319
     RDKit          3D

  0  0  0  0  0  0  0  0  0  0999 V3000
M  V30 BEGIN CTAB
M  V30 COUNTS 51 55 0 0 0
M  V30 BEGIN ATOM
M  V30 1 C 0.163686 -2.543675 4.670201 0
M  V30 2 C 0.938520 -2.460998 3.384732 0
M  V30 3 C 2.185904 -3.293554 3.428708 0
M  V30 4 C 1.177367 -1.044496 3.072207 0
M  V30 5 O 1.904768 -0.305926 3.781571 0
M  V30 6 N 0.501725 -0.612777 1.894008 0
M  V30 7 C 0.465881 0.664368 1.248628 0 CFG=1
M  V30 8 C -0.044660 1.783235 2.109892 0
M  V30 9 C 0.284922 2.962399 1.185428 0
M  V30 10 C 1.669756 2.566465 0.767742 0
M  V30 11 C 2.767842 3.315273 0.380819 0
M  V30 12 O 2.669140 4.698184 0.339539 0
M  V30 13 C 3.962310 2.714071 0.034184 0
M  V30 14 C 4.088835 1.337457 0.066324 0
M  V30 15 C 2.986221 0.578804 0.455198 0
M  V30 16 C 1.774451 1.175676 0.807537 0
M  V30 17 C -0.185913 -1.800808 1.451207 0
M  V30 18 N -0.978087 -1.974240 0.385741 0
M  V30 19 C -1.588185 -3.101624 0.027047 0
M  V30 20 N -2.427116 -3.295942 -1.096420 0
M  V30 21 C -2.793122 -2.338994 -2.071269 0
M  V30 22 C -2.398655 -1.028217 -2.111352 0
M  V30 23 C -2.767285 -0.112142 -3.070915 0
M  V30 24 C -3.602455 -0.523915 -4.086644 0
M  V30 25 C -4.027569 -1.819363 -4.098007 0
M  V30 26 C -3.623863 -2.688123 -3.109768 0
M  V30 27 N -1.345331 -4.128428 0.855607 0
M  V30 28 C -0.569437 -4.041105 1.937540 0
M  V30 29 C 0.038940 -2.872241 2.274463 0
M  V30 30 H -0.226133 -3.560135 4.841583 0
M  V30 31 H -0.728634 -1.889088 4.563074 0
M  V30 32 H 0.737143 -2.163364 5.539084 0
M  V30 33 H 1.915637 -4.303249 3.025295 0
M  V30 34 H 2.970042 -2.824798 2.817862 0
M  V30 35 H 2.450655 -3.454910 4.487488 0
M  V30 36 H -0.177318 0.644002 0.327440 0
M  V30 37 H 0.617805 1.911257 3.000988 0
M  V30 38 H -1.109155 1.736170 2.350190 0
M  V30 39 H 0.251669 3.926499 1.714090 0
M  V30 40 H -0.389431 2.859436 0.331915 0
M  V30 41 H 1.936568 5.207967 0.798440 0
M  V30 42 H 4.842734 3.269903 -0.273708 0
M  V30 43 H 4.980425 0.780530 -0.186741 0
M  V30 44 H 2.984386 -0.502232 0.512479 0
M  V30 45 H -2.828574 -4.263652 -1.227041 0
M  V30 46 H -1.751444 -0.643474 -1.354809 0
M  V30 47 H -2.428814 0.908488 -3.056859 0
M  V30 48 H -3.906401 0.170712 -4.849569 0
M  V30 49 H -4.679908 -2.122673 -4.899916 0
M  V30 50 H -4.020232 -3.697837 -3.212626 0
M  V30 51 H -0.421911 -4.925623 2.562054 0
M  V30 END ATOM
M  V30 BEGIN BOND
M  V30 1 1 1 2
M  V30 2 1 2 3
M  V30 3 1 2 4
M  V30 4 2 4 5
M  V30 5 1 4 6
M  V30 6 1 6 7
M  V30 7 1 7 8
M  V30 8 1 8 9
M  V30 9 1 9 10
M  V30 10 2 10 11
M  V30 11 1 11 12
M  V30 12 1 11 13
M  V30 13 2 13 14
M  V30 14 1 14 15
M  V30 15 2 15 16
M  V30 16 1 6 17
M  V30 17 2 17 18
M  V30 18 1 18 19
M  V30 19 1 19 20
M  V30 20 1 20 21
M  V30 21 2 21 22
M  V30 22 1 22 23
M  V30 23 2 23 24
M  V30 24 1 24 25
M  V30 25 2 25 26
M  V30 26 2 19 27
M  V30 27 1 27 28
M  V30 28 2 28 29
M  V30 29 1 29 2
M  V30 30 1 16 7
M  V30 31 1 29 17
M  V30 32 1 16 10
M  V30 33 1 26 21
M  V30 34 1 1 30
M  V30 35 1 1 31
M  V30 36 1 1 32
M  V30 37 1 3 33
M  V30 38 1 3 34
M  V30 39 1 3 35
M  V30 40 1 7 36 CFG=3
M  V30 41 1 8 37
M  V30 42 1 8 38
M  V30 43 1 9 39
M  V30 44 1 9 40
M  V30 45 1 12 41
M  V30 46 1 13 42
M  V30 47 1 14 43
M  V30 48 1 15 44
M  V30 49 1 20 45
M  V30 50 1 22 46
M  V30 51 1 23 47
M  V30 52 1 24 48
M  V30 53 1 25 49
M  V30 54 1 26 50
M  V30 55 1 28 51
M  V30 END BOND
M  V30 END CTAB
M  END
>  <Dataset>  (49) 
ChEMBL_PKA

>  <Ligand_Instance>  (49) 
nan

>  <PDB_ID>  (49) 
nan

>  <Standardized_SMILES>  (49) 
CC1(C)C(=O)N([C@H]2CCc3c(O)cccc32)c2nc(Nc3ccccc3)ncc21

>  <Name>  (49) 
nan

>  <Pocket>  (49) 
nan

>  <ATP_Site>  (49) 
nan

>  <Peripheral>  (49) 
nan

>  <Num_H_Atoms_ProtBoundConf>  (49) 
nan

>  <Num_Resolved_Atoms>  (49) 
nan

>  <Num_Not_Resolved_Atoms>  (49) 
nan

$$$$
CHEMBL388978
     RDKit          3D

  0  0  0  0  0  0  0  0  0  0999 V3000
M  V30 BEGIN CTAB
M  V30 COUNTS 61 68 0 0 0
M  V30 BEGIN ATOM
M  V30 1 C 3.655712 -2.153289 3.696406 0
M  V30 2 N 3.340911 -0.948655 2.951971 0
M  V30 3 C 1.912493 -0.772310 2.948228 0 CFG=2
M  V30 4 C 1.300597 -1.991046 2.284671 0
M  V30 5 C -0.199194 -1.864910 2.305160 0 CFG=1
M  V30 6 O -0.686553 -0.629326 2.543473 0
M  V30 7 C -0.009284 0.464134 2.022117 0 CFG=1
M  V30 8 C -0.483786 1.629971 2.909106 0
M  V30 9 C 1.474514 0.407567 2.130941 0 CFG=2
M  V30 10 O 2.104558 0.300493 0.890792 0
M  V30 11 C 3.019528 1.335241 0.686860 0
M  V30 12 N -0.472147 0.643319 0.660455 0
M  V30 13 C -0.577975 1.741516 -0.078644 0
M  V30 14 C -0.259103 3.050936 0.191458 0
M  V30 15 C -0.433034 4.058821 -0.706331 0
M  V30 16 C -0.947938 3.822392 -1.962423 0
M  V30 17 C -1.274154 2.521357 -2.257747 0
M  V30 18 C -1.090299 1.520481 -1.336626 0
M  V30 19 C -1.328935 0.179491 -1.411641 0
M  V30 20 C -1.823032 -0.667436 -2.378499 0
M  V30 21 C -1.937881 -2.015201 -2.143006 0
M  V30 22 C -1.559144 -2.523039 -0.940943 0
M  V30 23 C -1.569297 -3.798309 -0.489628 0
M  V30 24 C -1.903681 -5.054046 -0.887086 0
M  V30 25 C -1.782550 -6.204261 -0.142751 0
M  V30 26 C -1.266815 -6.091576 1.152535 0
M  V30 27 C -0.909307 -4.836336 1.610166 0
M  V30 28 C -1.067638 -3.743108 0.790680 0
M  V30 29 N -0.770297 -2.470099 1.085881 0
M  V30 30 C -1.067982 -1.673587 0.018526 0
M  V30 31 C -0.947900 -0.310542 -0.204649 0
M  V30 32 C -2.480723 -2.571873 -3.352683 0
M  V30 33 O -2.792694 -3.711318 -3.720312 0
M  V30 34 N -2.690388 -1.551895 -4.313457 0
M  V30 35 C -2.283263 -0.277043 -3.750628 0
M  V30 36 H 4.640863 -1.964094 4.181277 0
M  V30 37 H 2.855040 -2.379040 4.419483 0
M  V30 38 H 3.733923 -3.008116 2.986170 0
M  V30 39 H 3.850405 -0.117266 3.324886 0
M  V30 40 H 1.469679 -0.675911 3.959764 0
M  V30 41 H 1.671940 -2.084172 1.245326 0
M  V30 42 H 1.677995 -2.891706 2.830274 0
M  V30 43 H -0.540923 -2.520590 3.134536 0
M  V30 44 H -1.361076 2.144777 2.494956 0
M  V30 45 H 0.351803 2.282385 3.225204 0
M  V30 46 H -0.866167 1.230349 3.907697 0
M  V30 47 H 1.902707 1.325224 2.616975 0
M  V30 48 H 3.820817 1.363873 1.436823 0
M  V30 49 H 2.518081 2.343873 0.634673 0
M  V30 50 H 3.476856 1.196018 -0.300507 0
M  V30 51 H 0.155702 3.300493 1.142750 0
M  V30 52 H -0.171654 5.088268 -0.464587 0
M  V30 53 H -1.093698 4.604561 -2.687125 0
M  V30 54 H -1.679440 2.309342 -3.235813 0
M  V30 55 H -2.301377 -5.222299 -1.855250 0
M  V30 56 H -2.052444 -7.178881 -0.478118 0
M  V30 57 H -1.128005 -6.925285 1.824324 0
M  V30 58 H -0.511540 -4.741059 2.606009 0
M  V30 59 H -3.055079 -1.528944 -5.283854 0
M  V30 60 H -1.446511 0.155931 -4.305303 0
M  V30 61 H -3.139031 0.415140 -3.727510 0
M  V30 END ATOM
M  V30 BEGIN BOND
M  V30 1 1 1 2
M  V30 2 1 2 3
M  V30 3 1 3 4
M  V30 4 1 4 5
M  V30 5 1 5 6
M  V30 6 1 6 7
M  V30 7 1 7 8 CFG=1
M  V30 8 1 7 9
M  V30 9 1 9 10
M  V30 10 1 10 11
M  V30 11 1 7 12
M  V30 12 1 12 13
M  V30 13 2 13 14
M  V30 14 1 14 15
M  V30 15 2 15 16
M  V30 16 1 16 17
M  V30 17 2 17 18
M  V30 18 1 18 19
M  V30 19 2 19 20
M  V30 20 1 20 21
M  V30 21 2 21 22
M  V30 22 1 22 23
M  V30 23 2 23 24
M  V30 24 1 24 25
M  V30 25 2 25 26
M  V30 26 1 26 27
M  V30 27 2 27 28
M  V30 28 1 28 29
M  V30 29 1 29 30
M  V30 30 2 30 31
M  V30 31 1 21 32
M  V30 32 2 32 33
M  V30 33 1 32 34
M  V30 34 1 34 35
M  V30 35 1 9 3
M  V30 36 1 31 12
M  V30 37 1 29 5
M  V30 38 1 18 13
M  V30 39 1 31 19
M  V30 40 1 35 20
M  V30 41 1 30 22
M  V30 42 1 28 23
M  V30 43 1 1 36
M  V30 44 1 1 37
M  V30 45 1 1 38
M  V30 46 1 2 39
M  V30 47 1 3 40 CFG=1
M  V30 48 1 4 41
M  V30 49 1 4 42
M  V30 50 1 5 43 CFG=1
M  V30 51 1 8 44
M  V30 52 1 8 45
M  V30 53 1 8 46
M  V30 54 1 9 47 CFG=1
M  V30 55 1 11 48
M  V30 56 1 11 49
M  V30 57 1 11 50
M  V30 58 1 14 51
M  V30 59 1 15 52
M  V30 60 1 16 53
M  V30 61 1 17 54
M  V30 62 1 24 55
M  V30 63 1 25 56
M  V30 64 1 26 57
M  V30 65 1 27 58
M  V30 66 1 34 59
M  V30 67 1 35 60
M  V30 68 1 35 61
M  V30 END BOND
M  V30 END CTAB
M  END
>  <Dataset>  (50) 
ChEMBL_PKA

>  <Ligand_Instance>  (50) 
nan

>  <PDB_ID>  (50) 
nan

>  <Standardized_SMILES>  (50) 
CN[C@@H]1C[C@H]2O[C@@](C)([C@@H]1OC)n1c3ccccc3c3c4c(c5c6ccccc6n2c5c31)C(=O)NC4

>  <Name>  (50) 
STAUROSPORINE

>  <Pocket>  (50) 
nan

>  <ATP_Site>  (50) 
nan

>  <Peripheral>  (50) 
nan

>  <Num_H_Atoms_ProtBoundConf>  (50) 
nan

>  <Num_Resolved_Atoms>  (50) 
nan

>  <Num_Not_Resolved_Atoms>  (50) 
nan

$$$$
CHEMBL3942454
     RDKit          3D

  0  0  0  0  0  0  0  0  0  0999 V3000
M  V30 BEGIN CTAB
M  V30 COUNTS 38 40 0 0 0
M  V30 BEGIN ATOM
M  V30 1 N 2.048299 -3.537023 -1.189197 0
M  V30 2 C 1.808518 -2.189338 -0.754165 0
M  V30 3 C 1.077274 -2.109224 0.543696 0 CFG=2
M  V30 4 O 1.836504 -2.747595 1.516984 0
M  V30 5 C -0.260946 -2.750687 0.477825 0
M  V30 6 C -1.014864 -2.857812 1.626914 0
M  V30 7 C -2.259456 -3.437777 1.646432 0
M  V30 8 C -2.821214 -3.946234 0.505420 0
M  V30 9 Cl -4.387751 -4.716586 0.341543 0
M  V30 10 C -2.090004 -3.857749 -0.681180 0
M  V30 11 C -0.847824 -3.269425 -0.656457 0
M  V30 12 C 0.963941 -0.657536 0.920748 0
M  V30 13 C 0.294156 0.096994 -0.052409 0
M  V30 14 C 0.116099 1.470087 0.169264 0
M  V30 15 C 0.611158 2.039055 1.350062 0
M  V30 16 C 0.425045 3.474070 1.580950 0
M  V30 17 C 0.268371 4.144511 2.778546 0
M  V30 18 N 0.126139 5.478189 2.518228 0
M  V30 19 N 0.188881 5.663170 1.194930 0
M  V30 20 C 0.371663 4.448073 0.603888 0
M  V30 21 C 1.267661 1.270184 2.291934 0
M  V30 22 C 1.448648 -0.087499 2.082374 0
M  V30 23 H 1.994902 -3.650400 -2.236723 0
M  V30 24 H 3.040374 -3.822999 -0.928825 0
M  V30 25 H 1.317074 -1.639996 -1.580507 0
M  V30 26 H 2.794732 -1.677527 -0.602492 0
M  V30 27 H 1.446536 -2.706847 2.424982 0
M  V30 28 H -0.643555 -2.478851 2.582093 0
M  V30 29 H -2.887220 -3.540697 2.537589 0
M  V30 30 H -2.436207 -4.229145 -1.654056 0
M  V30 31 H -0.268568 -3.197455 -1.588901 0
M  V30 32 H -0.096449 -0.302389 -0.964310 0
M  V30 33 H -0.405741 2.056999 -0.589208 0
M  V30 34 H 0.274497 3.593343 3.707640 0
M  V30 35 H 0.114176 6.574246 0.668686 0
M  V30 36 H 0.454931 4.336311 -0.488241 0
M  V30 37 H 1.656528 1.703053 3.213674 0
M  V30 38 H 1.948411 -0.758628 2.764448 0
M  V30 END ATOM
M  V30 BEGIN BOND
M  V30 1 1 1 2
M  V30 2 1 2 3
M  V30 3 1 3 4 CFG=1
M  V30 4 1 3 5
M  V30 5 2 5 6
M  V30 6 1 6 7
M  V30 7 2 7 8
M  V30 8 1 8 9
M  V30 9 1 8 10
M  V30 10 2 10 11
M  V30 11 1 3 12
M  V30 12 2 12 13
M  V30 13 1 13 14
M  V30 14 2 14 15
M  V30 15 1 15 16
M  V30 16 1 16 17
M  V30 17 2 17 18
M  V30 18 1 18 19
M  V30 19 1 19 20
M  V30 20 1 15 21
M  V30 21 2 21 22
M  V30 22 1 11 5
M  V30 23 1 22 12
M  V30 24 2 20 16
M  V30 25 1 1 23
M  V30 26 1 1 24
M  V30 27 1 2 25
M  V30 28 1 2 26
M  V30 29 1 4 27
M  V30 30 1 6 28
M  V30 31 1 7 29
M  V30 32 1 10 30
M  V30 33 1 11 31
M  V30 34 1 13 32
M  V30 35 1 14 33
M  V30 36 1 17 34
M  V30 37 1 19 35
M  V30 38 1 20 36
M  V30 39 1 21 37
M  V30 40 1 22 38
M  V30 END BOND
M  V30 END CTAB
M  END
>  <Dataset>  (51) 
ChEMBL_PKA

>  <Ligand_Instance>  (51) 
nan

>  <PDB_ID>  (51) 
nan

>  <Standardized_SMILES>  (51) 
NC[C@](O)(c1ccc(Cl)cc1)c1ccc(-c2cn[nH]c2)cc1

>  <Name>  (51) 
nan

>  <Pocket>  (51) 
nan

>  <ATP_Site>  (51) 
nan

>  <Peripheral>  (51) 
nan

>  <Num_H_Atoms_ProtBoundConf>  (51) 
nan

>  <Num_Resolved_Atoms>  (51) 
nan

>  <Num_Not_Resolved_Atoms>  (51) 
nan

$$$$
CHEMBL4080906
     RDKit          3D

  0  0  0  0  0  0  0  0  0  0999 V3000
M  V30 BEGIN CTAB
M  V30 COUNTS 71 77 0 0 0
M  V30 BEGIN ATOM
M  V30 1 C 6.598417 0.611846 0.746371 0
M  V30 2 N 6.072138 -0.678042 0.421404 0
M  V30 3 C 5.786123 -1.438793 1.646279 0
M  V30 4 C 4.826863 -0.611171 -0.313017 0 CFG=1
M  V30 5 C 3.732007 0.113424 0.475717 0
M  V30 6 C 2.438010 -0.303093 -0.150765 0 CFG=1
M  V30 7 C 2.139492 -1.698503 0.388073 0
M  V30 8 C 0.603861 -1.709509 0.422515 0
M  V30 9 C 0.258257 -0.375399 -0.100128 0 CFG=1
M  V30 10 O 1.355113 0.418315 0.283585 0
M  V30 11 C 0.111762 -0.323608 -1.603334 0
M  V30 12 C -1.036411 -0.102642 -2.161703 0
M  V30 13 C -2.356473 0.131381 -1.544855 0
M  V30 14 C -2.255414 -0.320341 -0.087522 0 CFG=2
M  V30 15 C -2.360202 -1.799906 -0.104021 0
M  V30 16 C -3.265221 0.381947 0.790210 0 CFG=1
M  V30 17 C -4.361515 -0.472532 1.261181 0
M  V30 18 C -4.227123 -1.493846 2.194060 0
M  V30 19 C -5.257891 -2.294545 2.628793 0
M  V30 20 C -6.521225 -2.092764 2.121779 0
M  V30 21 C -7.597753 -2.860309 2.515440 0
M  V30 22 C -8.850069 -2.596460 1.956791 0
M  V30 23 N -9.036430 -1.618238 1.048451 0
M  V30 24 C -7.998275 -0.835635 0.631537 0
M  V30 25 C -6.762479 -1.104133 1.189959 0
M  V30 26 C -5.679674 -0.341672 0.802319 0
M  V30 27 C -2.505343 1.073658 1.861065 0
M  V30 28 C -1.159960 0.376859 1.857367 0
M  V30 29 C -0.967954 0.257428 0.396713 0 CFG=1
M  V30 30 C 1.372610 -0.533636 -2.307948 0
M  V30 31 C 2.484160 -0.285741 -1.619700 0
M  V30 32 C 3.707196 -0.008131 -2.416988 0 CFG=1
M  V30 33 O 3.557292 1.141399 -3.186295 0
M  V30 34 C 4.952224 0.118474 -1.609727 0 CFG=2
M  V30 35 O 6.023483 -0.443768 -2.324513 0
M  V30 36 H 7.528748 0.431821 1.346223 0
M  V30 37 H 5.948733 1.243764 1.366756 0
M  V30 38 H 6.888390 1.097881 -0.215724 0
M  V30 39 H 5.553327 -0.744036 2.478769 0
M  V30 40 H 4.903051 -2.088599 1.505441 0
M  V30 41 H 6.634658 -2.071394 1.940053 0
M  V30 42 H 4.449980 -1.635579 -0.504409 0
M  V30 43 H 3.751250 -0.280502 1.514338 0
M  V30 44 H 3.893204 1.205235 0.474486 0
M  V30 45 H 2.556841 -2.418919 -0.316058 0
M  V30 46 H 2.519604 -1.809646 1.427749 0
M  V30 47 H 0.250828 -1.832404 1.467486 0
M  V30 48 H 0.309701 -2.576673 -0.170723 0
M  V30 49 H -1.006519 -0.090652 -3.261680 0
M  V30 50 H -2.572196 1.234504 -1.574904 0
M  V30 51 H -3.188800 -0.409947 -2.007786 0
M  V30 52 H -1.965019 -2.345421 0.743885 0
M  V30 53 H -3.464770 -2.035917 -0.129595 0
M  V30 54 H -2.015650 -2.194770 -1.093054 0
M  V30 55 H -3.760943 1.177574 0.150783 0
M  V30 56 H -3.279023 -1.689165 2.617814 0
M  V30 57 H -5.103210 -3.068213 3.349097 0
M  V30 58 H -7.476267 -3.660488 3.250375 0
M  V30 59 H -9.715729 -3.164164 2.229846 0
M  V30 60 H -8.102885 -0.046434 -0.089338 0
M  V30 61 H -5.852040 0.448025 0.063323 0
M  V30 62 H -2.980571 1.098295 2.845199 0
M  V30 63 H -2.286256 2.128177 1.553249 0
M  V30 64 H -0.378496 1.045604 2.274475 0
M  V30 65 H -1.159148 -0.622522 2.303241 0
M  V30 66 H -0.944808 1.323683 0.016029 0
M  V30 67 H 1.323560 -0.875169 -3.342278 0
M  V30 68 H 3.825683 -0.899602 -3.088791 0
M  V30 69 H 3.717186 0.938575 -4.145034 0
M  V30 70 H 5.195762 1.190622 -1.401292 0
M  V30 71 H 5.819501 -1.415287 -2.417446 0
M  V30 END ATOM
M  V30 BEGIN BOND
M  V30 1 1 1 2
M  V30 2 1 2 3
M  V30 3 1 2 4
M  V30 4 1 4 5
M  V30 5 1 6 5 CFG=1
M  V30 6 1 6 7
M  V30 7 1 7 8
M  V30 8 1 9 8 CFG=1
M  V30 9 1 9 10
M  V30 10 1 9 11
M  V30 11 2 11 12
M  V30 12 1 12 13
M  V30 13 1 13 14
M  V30 14 1 14 15 CFG=3
M  V30 15 1 14 16
M  V30 16 1 16 17
M  V30 17 2 17 18
M  V30 18 1 18 19
M  V30 19 2 19 20
M  V30 20 1 20 21
M  V30 21 2 21 22
M  V30 22 1 22 23
M  V30 23 2 23 24
M  V30 24 1 24 25
M  V30 25 2 25 26
M  V30 26 1 16 27
M  V30 27 1 27 28
M  V30 28 1 28 29
M  V30 29 1 11 30
M  V30 30 2 30 31
M  V30 31 1 31 32
M  V30 32 1 32 33
M  V30 33 1 32 34
M  V30 34 1 34 35
M  V30 35 1 34 4
M  V30 36 1 10 6
M  V30 37 1 29 14
M  V30 38 1 31 6
M  V30 39 1 29 9
M  V30 40 1 26 17
M  V30 41 1 25 20
M  V30 42 1 1 36
M  V30 43 1 1 37
M  V30 44 1 1 38
M  V30 45 1 3 39
M  V30 46 1 3 40
M  V30 47 1 3 41
M  V30 48 1 4 42 CFG=3
M  V30 49 1 5 43
M  V30 50 1 5 44
M  V30 51 1 7 45
M  V30 52 1 7 46
M  V30 53 1 8 47
M  V30 54 1 8 48
M  V30 55 1 12 49
M  V30 56 1 13 50
M  V30 57 1 13 51
M  V30 58 1 15 52
M  V30 59 1 15 53
M  V30 60 1 15 54
M  V30 61 1 16 55 CFG=3
M  V30 62 1 18 56
M  V30 63 1 19 57
M  V30 64 1 21 58
M  V30 65 1 22 59
M  V30 66 1 24 60
M  V30 67 1 26 61
M  V30 68 1 27 62
M  V30 69 1 27 63
M  V30 70 1 28 64
M  V30 71 1 28 65
M  V30 72 1 29 66 CFG=3
M  V30 73 1 30 67
M  V30 74 1 32 68 CFG=3
M  V30 75 1 33 69
M  V30 76 1 34 70 CFG=1
M  V30 77 1 35 71
M  V30 END BOND
M  V30 END CTAB
M  END
>  <Dataset>  (52) 
ChEMBL_PKA

>  <Ligand_Instance>  (52) 
nan

>  <PDB_ID>  (52) 
nan

>  <Standardized_SMILES>  (52) 
CN(C)[C@H]1C[C@@]23CC[C@@]4(O2)C(=CC[C@]2(C)[C@@H](c5ccc6ccncc6c5)CC[C@H]24)C=C3[C@@H](O)[C@@H]1O

>  <Name>  (52) 
nan

>  <Pocket>  (52) 
nan

>  <ATP_Site>  (52) 
nan

>  <Peripheral>  (52) 
nan

>  <Num_H_Atoms_ProtBoundConf>  (52) 
nan

>  <Num_Resolved_Atoms>  (52) 
nan

>  <Num_Not_Resolved_Atoms>  (52) 
nan

$$$$
CHEMBL413460
     RDKit          3D

  0  0  0  0  0  0  0  0  0  0999 V3000
M  V30 BEGIN CTAB
M  V30 COUNTS 234 238 0 0 0
M  V30 BEGIN ATOM
M  V30 1 N 5.791550 -4.864533 4.652516 0
M  V30 2 C 6.536326 -3.829158 4.275678 0
M  V30 3 N 6.692217 -4.118319 2.853770 0
M  V30 4 N 6.979161 -2.604276 4.833090 0
M  V30 5 C 6.098813 -1.946358 5.793185 0
M  V30 6 C 6.346199 -0.455105 5.801533 0
M  V30 7 C 6.411860 0.073352 4.401087 0
M  V30 8 C 5.173934 0.585626 3.760927 0 CFG=1
M  V30 9 N 4.082287 -0.370216 4.017361 0
M  V30 10 C 3.686466 -1.560418 3.460975 0
M  V30 11 O 4.378566 -1.880900 2.486183 0
M  V30 12 C 2.594565 -2.406233 3.941351 0
M  V30 13 C 2.367418 -3.581697 3.031843 0
M  V30 14 C 1.044682 -3.536247 2.334077 0
M  V30 15 C -0.107224 -3.545084 3.341735 0
M  V30 16 C -1.369237 -3.452581 2.557146 0
M  V30 17 N -2.618464 -3.399570 3.230632 0
M  V30 18 C -3.613453 -2.617103 2.538271 0
M  V30 19 O -3.310011 -1.916126 1.524846 0
M  V30 20 C -5.058110 -2.640634 2.974949 0 CFG=1
M  V30 21 O -5.718433 -1.614944 2.421460 0
M  V30 22 C -6.614885 -2.052403 1.413690 0 CFG=1
M  V30 23 N -6.686294 -1.075493 0.266056 0
M  V30 24 C -7.015131 0.228848 0.379525 0
M  V30 25 N -6.794578 0.871455 -0.796888 0
M  V30 26 C -6.341823 -0.063290 -1.689448 0
M  V30 27 C -6.117239 0.003025 -3.048654 0
M  V30 28 N -6.002331 1.278888 -3.611083 0
M  V30 29 N -5.887445 -1.142331 -3.577683 0
M  V30 30 C -5.835304 -2.355471 -3.028481 0
M  V30 31 N -6.037141 -2.406273 -1.698431 0
M  V30 32 C -6.311207 -1.252123 -1.003042 0
M  V30 33 C -6.068636 -3.367763 0.967286 0 CFG=2
M  V30 34 O -7.107743 -4.125493 0.409575 0
M  V30 35 C -5.591108 -3.931960 2.293933 0 CFG=2
M  V30 36 O -6.661651 -4.470406 2.949821 0
M  V30 37 C 4.901547 1.985047 3.887853 0
M  V30 38 O 5.458544 2.654366 4.771033 0
M  V30 39 N 3.982592 2.564994 3.052126 0
M  V30 40 C 3.359577 3.887578 3.163214 0 CFG=2
M  V30 41 C 2.288539 3.734490 4.286883 0
M  V30 42 C 2.872426 3.459087 5.636515 0
M  V30 43 C 1.695936 3.426200 6.642051 0
M  V30 44 N 1.043732 2.159573 6.607828 0
M  V30 45 C 1.643841 1.135754 7.476627 0
M  V30 46 N 2.225169 1.458237 8.569089 0
M  V30 47 N 1.539532 -0.250400 7.229286 0
M  V30 48 C 2.749880 4.305111 1.951760 0
M  V30 49 O 3.515748 4.885328 1.172239 0
M  V30 50 N 1.427875 4.141725 1.589593 0
M  V30 51 C 0.765267 4.484412 0.368529 0 CFG=2
M  V30 52 C -0.197617 5.658413 0.665369 0
M  V30 53 C -1.483370 5.385429 -0.052282 0
M  V30 54 C -2.322726 6.659084 0.135800 0
M  V30 55 N -3.601576 6.216159 -0.324319 0
M  V30 56 C -4.799759 6.829567 0.190760 0
M  V30 57 N -4.691713 8.035085 0.580034 0
M  V30 58 N -5.926121 5.936303 0.327760 0
M  V30 59 C 0.129242 3.523675 -0.492933 0
M  V30 60 O -0.773488 2.774390 -0.150161 0
M  V30 61 N 0.570713 3.360803 -1.811766 0
M  V30 62 C 0.058606 2.446038 -2.631880 0 CFG=2
M  V30 63 C -0.669309 3.217572 -3.838777 0
M  V30 64 C 0.183395 4.043646 -4.683681 0
M  V30 65 C -0.704442 4.365453 -5.913798 0
M  V30 66 N -1.064127 2.981133 -6.375523 0
M  V30 67 C -2.369756 2.688414 -6.861054 0
M  V30 68 N -3.184795 3.653746 -7.026560 0
M  V30 69 N -2.866248 1.397802 -7.136838 0
M  V30 70 C -0.922266 1.411982 -2.504422 0
M  V30 71 O -2.093999 1.655004 -2.303793 0
M  V30 72 N -0.515479 0.143068 -2.691649 0
M  V30 73 C -1.263196 -1.106669 -3.040381 0 CFG=2
M  V30 74 C -1.547238 -2.187732 -2.186492 0
M  V30 75 C -2.178426 -3.315541 -3.041183 0
M  V30 76 C -2.314582 -4.573732 -2.274087 0
M  V30 77 N -1.131207 -4.904035 -1.507130 0
M  V30 78 C -1.305350 -5.982900 -0.590787 0
M  V30 79 N -2.503658 -6.388993 -0.287373 0
M  V30 80 N -0.263926 -6.552595 0.167526 0
M  V30 81 C -0.276799 -1.478035 -4.164984 0
M  V30 82 O 0.352481 -2.489003 -3.897376 0
M  V30 83 N -0.091820 -0.635248 -5.279980 0
M  V30 84 C 1.111104 -0.965382 -6.034085 0 CFG=2
M  V30 85 C 1.033299 -1.752078 -7.237548 0
M  V30 86 C 0.271387 -1.072276 -8.334464 0
M  V30 87 C 0.000593 -2.111734 -9.399100 0
M  V30 88 N -0.320594 -3.383303 -8.702422 0
M  V30 89 C -1.461720 -3.643188 -7.891071 0
M  V30 90 N -2.151165 -2.593449 -7.715021 0
M  V30 91 N -1.829682 -4.859498 -7.318227 0
M  V30 92 C 2.257900 -1.327510 -5.142599 0
M  V30 93 O 2.630143 -2.511833 -5.256571 0
M  V30 94 N 3.045987 -0.487941 -4.320041 0
M  V30 95 C 4.313247 -0.916737 -3.737194 0
M  V30 96 O 4.517286 -2.147907 -3.825230 0
M  V30 97 C 5.163584 0.075106 -3.055600 0
M  V30 98 C 4.515797 0.988840 -2.077398 0
M  V30 99 C 4.073770 0.391450 -0.775176 0
M  V30 100 C 2.715998 1.004502 -0.441888 0
M  V30 101 C 2.114084 0.220178 0.710313 0
M  V30 102 N 0.674946 0.565302 0.860710 0
M  V30 103 C 0.307095 0.359871 2.219863 0
M  V30 104 C -0.939890 0.770691 2.872373 0
M  V30 105 N -1.298701 2.095374 3.231756 0
M  V30 106 S -2.651688 2.189409 4.308970 0
M  V30 107 O -2.427200 0.767451 5.037894 0
M  V30 108 O -3.986183 2.089363 3.783467 0
M  V30 109 C -2.287960 3.197318 5.667733 0
M  V30 110 C -2.031635 2.935574 6.979698 0
M  V30 111 C -1.642393 3.934291 7.826522 0
M  V30 112 C -1.402366 5.256638 7.363439 0
M  V30 113 C -1.612407 5.577944 6.011206 0
M  V30 114 C -1.612618 6.953454 5.784474 0
M  V30 115 N -2.221678 7.315832 4.604396 0
M  V30 116 C -2.695371 6.309497 3.809514 0
M  V30 117 C -2.636159 4.950913 4.117926 0
M  V30 118 C -2.075812 4.462250 5.308838 0
M  V30 119 H 5.563565 -4.727860 5.727264 0
M  V30 120 H 7.604740 -4.510459 2.606749 0
M  V30 121 H 6.022068 -3.974496 2.089091 0
M  V30 122 H 7.960403 -2.265497 4.518657 0
M  V30 123 H 6.822622 -2.156433 6.800311 0
M  V30 124 H 5.245750 -2.426590 6.094745 0
M  V30 125 H 6.908788 0.023996 6.502050 0
M  V30 126 H 5.187411 -0.158357 6.045592 0
M  V30 127 H 6.848227 -0.739929 3.792004 0
M  V30 128 H 7.150136 0.926658 4.365414 0
M  V30 129 H 5.324178 0.350779 2.618241 0
M  V30 130 H 3.467279 -0.002301 4.827419 0
M  V30 131 H 2.994934 -2.880263 4.901362 0
M  V30 132 H 1.698732 -1.892829 4.262844 0
M  V30 133 H 2.512889 -4.572296 3.471721 0
M  V30 134 H 3.140715 -3.498220 2.210286 0
M  V30 135 H 0.960729 -4.487822 1.762634 0
M  V30 136 H 0.952278 -2.736977 1.590444 0
M  V30 137 H -0.101713 -2.585932 3.944576 0
M  V30 138 H -0.010556 -4.435978 3.941704 0
M  V30 139 H -1.331689 -3.043046 1.559121 0
M  V30 140 H -1.472992 -4.685172 2.239814 0
M  V30 141 H -2.842212 -3.857367 4.134142 0
M  V30 142 H -5.177397 -2.764903 4.054601 0
M  V30 143 H -7.609110 -2.134185 1.859537 0
M  V30 144 H -7.460700 0.638136 1.272703 0
M  V30 145 H -6.503627 1.474166 -4.470473 0
M  V30 146 H -5.453071 2.074818 -3.140986 0
M  V30 147 H -5.683704 -3.175918 -3.620081 0
M  V30 148 H -5.201738 -3.327840 0.300779 0
M  V30 149 H -6.737953 -4.964229 0.135845 0
M  V30 150 H -4.772998 -4.645082 2.153517 0
M  V30 151 H -6.625127 -4.397175 3.915618 0
M  V30 152 H 3.831618 2.103086 2.083894 0
M  V30 153 H 4.048549 4.600601 3.624278 0
M  V30 154 H 1.806637 4.724496 4.342367 0
M  V30 155 H 1.523997 3.014391 4.054552 0
M  V30 156 H 3.098297 2.311687 5.677766 0
M  V30 157 H 3.625354 4.059948 6.063453 0
M  V30 158 H 2.015234 3.683720 7.651061 0
M  V30 159 H 0.958096 4.188141 6.250801 0
M  V30 160 H 0.262389 1.899063 5.993840 0
M  V30 161 H 2.634516 0.716752 9.188407 0
M  V30 162 H 2.433444 -0.732686 6.991094 0
M  V30 163 H 0.653156 -0.793194 7.312931 0
M  V30 164 H 0.758469 3.703882 2.308185 0
M  V30 165 H 1.633414 4.991177 -0.217385 0
M  V30 166 H -0.321695 5.706586 1.721079 0
M  V30 167 H 0.202159 6.605423 0.255851 0
M  V30 168 H -2.119804 4.661773 0.630001 0
M  V30 169 H -1.504474 5.041970 -1.046657 0
M  V30 170 H -1.898855 7.308931 -0.721970 0
M  V30 171 H -2.227158 7.160398 1.048101 0
M  V30 172 H -3.774860 5.532244 -1.086039 0
M  V30 173 H -5.557278 8.493085 1.044559 0
M  V30 174 H -6.350177 5.863147 -0.615215 0
M  V30 175 H -6.332121 5.396728 1.103513 0
M  V30 176 H 1.372837 3.962744 -2.181045 0
M  V30 177 H 0.952205 2.036964 -3.306817 0
M  V30 178 H -1.296390 2.470970 -4.344334 0
M  V30 179 H -1.410032 3.857330 -3.272490 0
M  V30 180 H 0.233559 5.073777 -4.179751 0
M  V30 181 H 1.144738 3.645820 -4.906732 0
M  V30 182 H -0.043873 4.740907 -6.730553 0
M  V30 183 H -1.559127 4.913079 -5.663121 0
M  V30 184 H -0.397894 2.196398 -6.245806 0
M  V30 185 H -4.141526 3.583451 -7.483639 0
M  V30 186 H -3.560321 0.761957 -6.672122 0
M  V30 187 H -2.376392 1.092810 -7.980723 0
M  V30 188 H 0.529522 -0.242632 -2.438429 0
M  V30 189 H -2.255287 -0.680337 -3.440536 0
M  V30 190 H -0.748336 -2.582528 -1.543377 0
M  V30 191 H -2.431776 -1.943079 -1.494697 0
M  V30 192 H -3.240892 -2.957835 -3.257592 0
M  V30 193 H -1.752145 -3.436435 -4.011110 0
M  V30 194 H -3.242593 -4.877168 -1.877559 0
M  V30 195 H -2.169377 -5.424961 -3.138096 0
M  V30 196 H -0.202271 -4.426588 -1.611075 0
M  V30 197 H -2.674069 -7.123780 0.417688 0
M  V30 198 H -0.211795 -6.706365 1.217014 0
M  V30 199 H 0.556235 -6.845347 -0.376436 0
M  V30 200 H -0.833100 0.057889 -5.548839 0
M  V30 201 H 1.439733 0.152495 -6.298440 0
M  V30 202 H 0.534528 -2.733468 -6.966057 0
M  V30 203 H 2.063926 -1.993433 -7.558923 0
M  V30 204 H 1.157393 -0.429949 -8.848034 0
M  V30 205 H -0.472184 -0.348834 -8.094648 0
M  V30 206 H 0.665009 -2.204216 -10.190337 0
M  V30 207 H -1.051418 -1.831293 -9.812227 0
M  V30 208 H 0.358011 -4.173972 -8.876937 0
M  V30 209 H -3.012954 -2.677167 -7.070426 0
M  V30 210 H -1.613194 -4.988077 -6.281208 0
M  V30 211 H -2.328357 -5.610085 -7.817438 0
M  V30 212 H 2.740017 0.522531 -4.209806 0
M  V30 213 H 5.788217 -0.622290 -2.351666 0
M  V30 214 H 5.870213 0.566611 -3.699849 0
M  V30 215 H 3.612616 1.454979 -2.599328 0
M  V30 216 H 5.191066 1.834204 -1.924472 0
M  V30 217 H 4.830732 0.760523 0.038606 0
M  V30 218 H 4.042862 -0.674576 -0.685342 0
M  V30 219 H 2.157298 1.049043 -1.350043 0
M  V30 220 H 2.813383 2.093660 -0.115002 0
M  V30 221 H 2.589449 0.426263 1.647604 0
M  V30 222 H 2.303819 -0.828369 0.468123 0
M  V30 223 H 0.259923 -0.336033 0.321874 0
M  V30 224 H 0.562380 -0.667883 2.560774 0
M  V30 225 H 1.161864 0.969364 2.734965 0
M  V30 226 H -1.584757 0.844838 1.741934 0
M  V30 227 H -1.707875 -0.023948 3.144668 0
M  V30 228 H -1.356431 2.706608 2.426011 0
M  V30 229 H -2.224854 1.972073 7.318416 0
M  V30 230 H -1.583870 3.754232 8.908093 0
M  V30 231 H -1.081336 6.019627 8.112465 0
M  V30 232 H -1.161114 7.659579 6.419166 0
M  V30 233 H -3.252618 6.695407 2.968649 0
M  V30 234 H -3.041535 4.268034 3.364715 0
M  V30 END ATOM
M  V30 BEGIN BOND
M  V30 1 2 1 2 CFG=2
M  V30 2 1 2 3
M  V30 3 1 2 4
M  V30 4 1 4 5
M  V30 5 1 5 6
M  V30 6 1 6 7
M  V30 7 1 7 8
M  V30 8 1 8 9
M  V30 9 1 9 10
M  V30 10 2 10 11
M  V30 11 1 10 12
M  V30 12 1 12 13
M  V30 13 1 13 14
M  V30 14 1 14 15
M  V30 15 1 15 16
M  V30 16 1 16 17
M  V30 17 1 17 18
M  V30 18 2 18 19
M  V30 19 1 18 20
M  V30 20 1 20 21
M  V30 21 1 21 22
M  V30 22 1 22 23
M  V30 23 1 23 24
M  V30 24 2 24 25
M  V30 25 1 25 26
M  V30 26 2 26 27
M  V30 27 1 27 28
M  V30 28 1 27 29
M  V30 29 2 29 30
M  V30 30 1 30 31
M  V30 31 2 31 32
M  V30 32 1 22 33
M  V30 33 1 33 34
M  V30 34 1 33 35
M  V30 35 1 35 36
M  V30 36 1 8 37
M  V30 37 2 37 38
M  V30 38 1 37 39
M  V30 39 1 39 40
M  V30 40 1 40 41
M  V30 41 1 41 42
M  V30 42 1 42 43
M  V30 43 1 43 44
M  V30 44 1 44 45
M  V30 45 2 45 46 CFG=2
M  V30 46 1 45 47
M  V30 47 1 40 48
M  V30 48 2 48 49
M  V30 49 1 48 50
M  V30 50 1 50 51
M  V30 51 1 51 52
M  V30 52 1 52 53
M  V30 53 1 53 54
M  V30 54 1 54 55
M  V30 55 1 55 56
M  V30 56 2 56 57 CFG=2
M  V30 57 1 56 58
M  V30 58 1 51 59
M  V30 59 2 59 60
M  V30 60 1 59 61
M  V30 61 1 61 62
M  V30 62 1 62 63
M  V30 63 1 63 64
M  V30 64 1 64 65
M  V30 65 1 65 66
M  V30 66 1 66 67
M  V30 67 2 67 68 CFG=2
M  V30 68 1 67 69
M  V30 69 1 62 70
M  V30 70 2 70 71
M  V30 71 1 70 72
M  V30 72 1 72 73
M  V30 73 1 73 74
M  V30 74 1 74 75
M  V30 75 1 75 76
M  V30 76 1 76 77
M  V30 77 1 77 78
M  V30 78 2 78 79 CFG=2
M  V30 79 1 78 80
M  V30 80 1 73 81
M  V30 81 2 81 82
M  V30 82 1 81 83
M  V30 83 1 83 84
M  V30 84 1 84 85
M  V30 85 1 85 86
M  V30 86 1 86 87
M  V30 87 1 87 88
M  V30 88 1 88 89
M  V30 89 2 89 90 CFG=2
M  V30 90 1 89 91
M  V30 91 1 84 92
M  V30 92 2 92 93
M  V30 93 1 92 94
M  V30 94 1 94 95
M  V30 95 2 95 96
M  V30 96 1 95 97
M  V30 97 1 97 98
M  V30 98 1 98 99
M  V30 99 1 99 100
M  V30 100 1 100 101
M  V30 101 1 101 102
M  V30 102 1 102 103
M  V30 103 1 103 104
M  V30 104 1 104 105
M  V30 105 1 105 106
M  V30 106 2 106 107
M  V30 107 2 106 108
M  V30 108 1 106 109
M  V30 109 2 109 110
M  V30 110 1 110 111
M  V30 111 2 111 112
M  V30 112 1 112 113
M  V30 113 2 113 114
M  V30 114 1 114 115
M  V30 115 2 115 116
M  V30 116 1 116 117
M  V30 117 2 117 118
M  V30 118 1 35 20
M  V30 119 1 118 109
M  V30 120 1 32 23
M  V30 121 1 118 113
M  V30 122 1 32 26
M  V30 123 1 1 119
M  V30 124 1 3 120
M  V30 125 1 3 121
M  V30 126 1 4 122
M  V30 127 1 5 123
M  V30 128 1 5 124
M  V30 129 1 6 125
M  V30 130 1 6 126
M  V30 131 1 7 127
M  V30 132 1 7 128
M  V30 133 1 8 129 CFG=3
M  V30 134 1 9 130
M  V30 135 1 12 131
M  V30 136 1 12 132
M  V30 137 1 13 133
M  V30 138 1 13 134
M  V30 139 1 14 135
M  V30 140 1 14 136
M  V30 141 1 15 137
M  V30 142 1 15 138
M  V30 143 1 16 139
M  V30 144 1 16 140
M  V30 145 1 17 141
M  V30 146 1 20 142 CFG=1
M  V30 147 1 22 143 CFG=1
M  V30 148 1 24 144
M  V30 149 1 28 145
M  V30 150 1 28 146
M  V30 151 1 30 147
M  V30 152 1 33 148 CFG=3
M  V30 153 1 34 149
M  V30 154 1 35 150 CFG=3
M  V30 155 1 36 151
M  V30 156 1 39 152
M  V30 157 1 40 153 CFG=1
M  V30 158 1 41 154
M  V30 159 1 41 155
M  V30 160 1 42 156
M  V30 161 1 42 157
M  V30 162 1 43 158
M  V30 163 1 43 159
M  V30 164 1 44 160
M  V30 165 1 46 161
M  V30 166 1 47 162
M  V30 167 1 47 163
M  V30 168 1 50 164
M  V30 169 1 51 165 CFG=3
M  V30 170 1 52 166
M  V30 171 1 52 167
M  V30 172 1 53 168
M  V30 173 1 53 169
M  V30 174 1 54 170
M  V30 175 1 54 171
M  V30 176 1 55 172
M  V30 177 1 57 173
M  V30 178 1 58 174
M  V30 179 1 58 175
M  V30 180 1 61 176
M  V30 181 1 62 177 CFG=3
M  V30 182 1 63 178
M  V30 183 1 63 179
M  V30 184 1 64 180
M  V30 185 1 64 181
M  V30 186 1 65 182
M  V30 187 1 65 183
M  V30 188 1 66 184
M  V30 189 1 68 185
M  V30 190 1 69 186
M  V30 191 1 69 187
M  V30 192 1 72 188
M  V30 193 1 73 189 CFG=3
M  V30 194 1 74 190
M  V30 195 1 74 191
M  V30 196 1 75 192
M  V30 197 1 75 193
M  V30 198 1 76 194
M  V30 199 1 76 195
M  V30 200 1 77 196
M  V30 201 1 79 197
M  V30 202 1 80 198
M  V30 203 1 80 199
M  V30 204 1 83 200
M  V30 205 1 84 201 CFG=3
M  V30 206 1 85 202
M  V30 207 1 85 203
M  V30 208 1 86 204
M  V30 209 1 86 205
M  V30 210 1 87 206
M  V30 211 1 87 207
M  V30 212 1 88 208
M  V30 213 1 90 209
M  V30 214 1 91 210
M  V30 215 1 91 211
M  V30 216 1 94 212
M  V30 217 1 97 213
M  V30 218 1 97 214
M  V30 219 1 98 215
M  V30 220 1 98 216
M  V30 221 1 99 217
M  V30 222 1 99 218
M  V30 223 1 100 219
M  V30 224 1 100 220
M  V30 225 1 101 221
M  V30 226 1 101 222
M  V30 227 1 102 223
M  V30 228 1 103 224
M  V30 229 1 103 225
M  V30 230 1 104 226
M  V30 231 1 104 227
M  V30 232 1 105 228
M  V30 233 1 110 229
M  V30 234 1 111 230
M  V30 235 1 112 231
M  V30 236 1 114 232
M  V30 237 1 116 233
M  V30 238 1 117 234
M  V30 END BOND
M  V30 END CTAB
M  END
>  <Dataset>  (53) 
ChEMBL_PKA

>  <Ligand_Instance>  (53) 
nan

>  <PDB_ID>  (53) 
nan

>  <Standardized_SMILES>  (53) 
N=C(N)NCCC[C@@H](NC(=O)CCCCCNC(=O)[C@H]1O[C@@H](n2cnc3c(N)ncnc32)[C@H](O)[C@@H]1O)C(=O)N[C@H](CCCNC(=N)N)C(=O)N[C@H](CCCNC(=N)N)C(=O)N[C@H](CCCNC(=N)N)C(=O)N[C@H](CCCNC(=N)N)C(=O)N[C@H](CCCNC(=N)N)C(=O)NC(=O)CCCCCNCCNS(=O)(=O)c1cccc2cnccc12

>  <Name>  (53) 
nan

>  <Pocket>  (53) 
nan

>  <ATP_Site>  (53) 
nan

>  <Peripheral>  (53) 
nan

>  <Num_H_Atoms_ProtBoundConf>  (53) 
nan

>  <Num_Resolved_Atoms>  (53) 
nan

>  <Num_Not_Resolved_Atoms>  (53) 
nan

$$$$
CHEMBL4242549
     RDKit          3D

  0  0  0  0  0  0  0  0  0  0999 V3000
M  V30 BEGIN CTAB
M  V30 COUNTS 56 59 0 0 0
M  V30 BEGIN ATOM
M  V30 1 O 1.029754 -2.481891 1.607488 0
M  V30 2 C 0.732668 -3.107686 2.647611 0
M  V30 3 C 2.033421 -2.705689 3.238243 0
M  V30 4 C 2.778843 -2.078077 2.112262 0
M  V30 5 C 3.821465 -2.718495 1.553597 0
M  V30 6 C 4.615924 -2.358542 0.504543 0
M  V30 7 C 4.278049 -1.117405 -0.076968 0
M  V30 8 C 3.211014 -0.381421 0.435722 0
M  V30 9 O 2.814226 0.867316 -0.112551 0
M  V30 10 C 1.676308 1.529008 0.469589 0
M  V30 11 C 1.285120 2.784947 -0.207782 0
M  V30 12 N 0.111674 3.316926 0.400707 0
M  V30 13 C 0.180534 3.838998 1.697792 0
M  V30 14 C -1.191564 3.652723 2.363970 0
M  V30 15 C -2.330900 3.951338 1.433976 0
M  V30 16 C -2.271258 2.949304 0.271307 0
M  V30 17 C -0.944530 2.280684 0.314932 0
M  V30 18 C 2.501300 -0.857482 1.493579 0
M  V30 19 N -0.466471 -3.830580 2.875610 0
M  V30 20 C -1.336178 -3.642325 1.667360 0
M  V30 21 N -1.697814 -3.841232 0.683044 0
M  V30 22 C -2.136240 -4.034085 -0.434920 0
M  V30 23 C -2.604733 -4.573980 -1.647766 0
M  V30 24 C -2.999666 -5.625999 -2.363640 0
M  V30 25 C -3.172998 -6.059985 -3.576415 0
M  V30 26 N -2.848937 -5.142963 -4.507972 0
M  V30 27 C -2.390081 -3.897961 -4.118075 0
M  V30 28 C -2.295765 -3.674917 -2.775014 0
M  V30 29 C -3.011200 -2.874873 -0.229737 0
M  V30 30 S -2.553939 -2.305489 1.512543 0
M  V30 31 H 2.627502 -3.443366 3.726284 0
M  V30 32 H 1.846163 -1.893313 4.007469 0
M  V30 33 H 4.113141 -3.673405 1.970426 0
M  V30 34 H 5.482365 -2.870586 0.054121 0
M  V30 35 H 4.808125 -0.706306 -0.933989 0
M  V30 36 H 0.860764 0.813311 0.511690 0
M  V30 37 H 2.082580 1.839567 1.475523 0
M  V30 38 H 2.139327 3.530135 -0.155806 0
M  V30 39 H 1.063552 2.575518 -1.288957 0
M  V30 40 H 0.925648 3.417865 2.364795 0
M  V30 41 H 0.362362 4.961248 1.644149 0
M  V30 42 H -1.229453 4.315999 3.275764 0
M  V30 43 H -1.336413 2.644539 2.799277 0
M  V30 44 H -2.301795 4.973770 1.056584 0
M  V30 45 H -3.251147 3.762553 2.000228 0
M  V30 46 H -2.393263 3.553260 -0.644328 0
M  V30 47 H -3.086715 2.203099 0.355899 0
M  V30 48 H -0.861521 1.602693 1.182421 0
M  V30 49 H -0.702374 1.690712 -0.562434 0
M  V30 50 H 1.682107 -0.300015 1.916804 0
M  V30 51 H -0.364794 -4.249924 3.782614 0
M  V30 52 H -3.276836 -6.336465 -1.535796 0
M  V30 53 H -3.537131 -7.055324 -3.785071 0
M  V30 54 H -2.129163 -3.233435 -4.970350 0
M  V30 55 H -1.919522 -2.602657 -2.759320 0
M  V30 56 H -3.798029 -2.185502 -0.598190 0
M  V30 END ATOM
M  V30 BEGIN BOND
M  V30 1 2 1 2
M  V30 2 1 2 3
M  V30 3 1 3 4
M  V30 4 2 4 5
M  V30 5 1 5 6
M  V30 6 2 6 7
M  V30 7 1 7 8
M  V30 8 1 8 9
M  V30 9 1 9 10
M  V30 10 1 10 11
M  V30 11 1 11 12
M  V30 12 1 12 13
M  V30 13 1 13 14
M  V30 14 1 14 15
M  V30 15 1 15 16
M  V30 16 1 16 17
M  V30 17 2 8 18
M  V30 18 1 2 19
M  V30 19 1 19 20
M  V30 20 2 20 21
M  V30 21 1 21 22
M  V30 22 1 22 23
M  V30 23 2 23 24
M  V30 24 1 24 25
M  V30 25 2 25 26
M  V30 26 1 26 27
M  V30 27 2 27 28
M  V30 28 2 22 29
M  V30 29 1 29 30
M  V30 30 1 18 4
M  V30 31 1 30 20
M  V30 32 1 17 12
M  V30 33 1 28 23
M  V30 34 1 3 31
M  V30 35 1 3 32
M  V30 36 1 5 33
M  V30 37 1 6 34
M  V30 38 1 7 35
M  V30 39 1 10 36
M  V30 40 1 10 37
M  V30 41 1 11 38
M  V30 42 1 11 39
M  V30 43 1 13 40
M  V30 44 1 13 41
M  V30 45 1 14 42
M  V30 46 1 14 43
M  V30 47 1 15 44
M  V30 48 1 15 45
M  V30 49 1 16 46
M  V30 50 1 16 47
M  V30 51 1 17 48
M  V30 52 1 17 49
M  V30 53 1 18 50
M  V30 54 1 19 51
M  V30 55 1 24 52
M  V30 56 1 25 53
M  V30 57 1 27 54
M  V30 58 1 28 55
M  V30 59 1 29 56
M  V30 END BOND
M  V30 END CTAB
M  END
>  <Dataset>  (54) 
ChEMBL_PKA

>  <Ligand_Instance>  (54) 
nan

>  <PDB_ID>  (54) 
nan

>  <Standardized_SMILES>  (54) 
O=C(Cc1cccc(OCCN2CCCCC2)c1)Nc1nc(-c2ccncc2)cs1

>  <Name>  (54) 
nan

>  <Pocket>  (54) 
nan

>  <ATP_Site>  (54) 
nan

>  <Peripheral>  (54) 
nan

>  <Num_H_Atoms_ProtBoundConf>  (54) 
nan

>  <Num_Resolved_Atoms>  (54) 
nan

>  <Num_Not_Resolved_Atoms>  (54) 
nan

$$$$
CHEMBL4453941
     RDKit          3D

  0  0  0  0  0  0  0  0  0  0999 V3000
M  V30 BEGIN CTAB
M  V30 COUNTS 34 36 0 0 0
M  V30 BEGIN ATOM
M  V30 1 C -0.941021 -2.184474 2.734077 0
M  V30 2 C 0.410197 -2.729521 2.318935 0
M  V30 3 C 0.205395 -4.168029 1.924160 0
M  V30 4 C 1.255450 -2.670579 3.516161 0
M  V30 5 N 1.936613 -2.630969 4.448981 0
M  V30 6 C 0.987680 -1.916208 1.220676 0
M  V30 7 C 2.223129 -2.336636 0.773555 0
M  V30 8 C 2.797985 -1.598690 -0.256674 0
M  V30 9 C 2.088907 -0.518594 -0.738764 0
M  V30 10 C 0.854479 -0.098540 -0.291993 0
M  V30 11 C 0.170835 1.058932 -0.859157 0
M  V30 12 C 0.693707 1.823581 -1.878003 0
M  V30 13 C 0.036913 2.915473 -2.405222 0
M  V30 14 N -1.166748 3.273855 -1.925155 0
M  V30 15 C -1.696199 2.540980 -0.929939 0
M  V30 16 N -2.878075 2.728025 -0.313445 0
M  V30 17 C -3.053596 1.792763 0.625996 0
M  V30 18 C -1.920525 0.992166 0.581949 0
M  V30 19 C -1.064617 1.435666 -0.374236 0
M  V30 20 N 0.359869 -0.857321 0.703491 0
M  V30 21 H -0.774477 -1.104534 3.019704 0
M  V30 22 H -1.377666 -2.735607 3.571223 0
M  V30 23 H -1.604595 -2.164991 1.857377 0
M  V30 24 H -0.651055 -4.639231 2.450858 0
M  V30 25 H 1.104730 -4.734608 2.295614 0
M  V30 26 H 0.044361 -4.301138 0.848870 0
M  V30 27 H 2.733783 -3.183881 1.181857 0
M  V30 28 H 3.757269 -1.900062 -0.625933 0
M  V30 29 H 2.606767 -0.003010 -1.535444 0
M  V30 30 H 1.637571 1.597393 -2.302738 0
M  V30 31 H 0.474272 3.496797 -3.206136 0
M  V30 32 H -3.607061 3.467546 -0.482710 0
M  V30 33 H -3.907420 1.668040 1.300146 0
M  V30 34 H -1.738463 0.141922 1.210162 0
M  V30 END ATOM
M  V30 BEGIN BOND
M  V30 1 1 1 2
M  V30 2 1 2 3
M  V30 3 1 2 4
M  V30 4 3 4 5
M  V30 5 1 2 6
M  V30 6 2 6 7
M  V30 7 1 7 8
M  V30 8 2 8 9
M  V30 9 1 9 10
M  V30 10 1 10 11
M  V30 11 2 11 12
M  V30 12 1 12 13
M  V30 13 2 13 14
M  V30 14 1 14 15
M  V30 15 1 15 16
M  V30 16 1 16 17
M  V30 17 2 17 18
M  V30 18 1 18 19
M  V30 19 2 10 20
M  V30 20 1 20 6
M  V30 21 1 19 11
M  V30 22 2 19 15
M  V30 23 1 1 21
M  V30 24 1 1 22
M  V30 25 1 1 23
M  V30 26 1 3 24
M  V30 27 1 3 25
M  V30 28 1 3 26
M  V30 29 1 7 27
M  V30 30 1 8 28
M  V30 31 1 9 29
M  V30 32 1 12 30
M  V30 33 1 13 31
M  V30 34 1 16 32
M  V30 35 1 17 33
M  V30 36 1 18 34
M  V30 END BOND
M  V30 END CTAB
M  END
>  <Dataset>  (55) 
ChEMBL_PKA

>  <Ligand_Instance>  (55) 
nan

>  <PDB_ID>  (55) 
nan

>  <Standardized_SMILES>  (55) 
CC(C)(C#N)c1cccc(-c2ccnc3[nH]ccc23)n1

>  <Name>  (55) 
nan

>  <Pocket>  (55) 
nan

>  <ATP_Site>  (55) 
nan

>  <Peripheral>  (55) 
nan

>  <Num_H_Atoms_ProtBoundConf>  (55) 
nan

>  <Num_Resolved_Atoms>  (55) 
nan

>  <Num_Not_Resolved_Atoms>  (55) 
nan

$$$$
CHEMBL4457150
     RDKit          3D

  0  0  0  0  0  0  0  0  0  0999 V3000
M  V30 BEGIN CTAB
M  V30 COUNTS 46 49 0 0 0
M  V30 BEGIN ATOM
M  V30 1 N -0.314249 -3.025855 2.995822 0
M  V30 2 C -1.236907 -2.678199 1.926918 0
M  V30 3 C -0.498784 -2.634908 0.579138 0
M  V30 4 C 0.533536 -1.611979 0.740921 0
M  V30 5 C 1.805796 -1.910574 1.180673 0
M  V30 6 C 2.743373 -0.908316 1.319696 0
M  V30 7 C 2.376237 0.408830 1.006629 0
M  V30 8 C 1.081228 0.735403 0.555925 0
M  V30 9 C 1.065795 2.157649 0.287903 0
M  V30 10 C 1.771014 2.419655 -0.898308 0
M  V30 11 C 1.884267 3.723622 -1.395372 0
M  V30 12 N 1.311699 4.737844 -0.728978 0
M  V30 13 C 0.632431 4.515789 0.408225 0
M  V30 14 N -0.029825 5.252332 1.338896 0
M  V30 15 N -0.501967 4.479548 2.307714 0
M  V30 16 C -0.185108 3.178695 2.083332 0
M  V30 17 C -0.598674 2.055167 2.954946 0
M  V30 18 F -1.505719 1.200373 2.384322 0
M  V30 19 F 0.514439 1.360988 3.427608 0
M  V30 20 F -1.206331 2.565061 4.079363 0
M  V30 21 C 0.510985 3.244305 0.908508 0
M  V30 22 C 0.218562 -0.332455 0.449731 0
M  V30 23 C 0.232181 -3.951892 0.433203 0
M  V30 24 C -0.607046 -5.038334 -0.158520 0
M  V30 25 O -1.396296 -4.631595 -1.217720 0
M  V30 26 C -1.111008 -3.339852 -1.645355 0
M  V30 27 C -1.502229 -2.428513 -0.482343 0
M  V30 28 H -0.535995 -3.988569 3.338900 0
M  V30 29 H -0.310416 -2.312897 3.770194 0
M  V30 30 H -1.678061 -1.684357 2.150809 0
M  V30 31 H -2.064654 -3.405584 1.910288 0
M  V30 32 H 2.080484 -2.945417 1.423023 0
M  V30 33 H 3.718676 -1.215797 1.668568 0
M  V30 34 H 3.241773 1.067671 1.175216 0
M  V30 35 H 2.287763 1.696759 -1.545235 0
M  V30 36 H 2.414359 3.969805 -2.300054 0
M  V30 37 H -0.137207 6.305350 1.270198 0
M  V30 38 H -0.721089 0.071894 0.093403 0
M  V30 39 H 0.543143 -4.282589 1.445628 0
M  V30 40 H 1.160543 -3.833432 -0.161393 0
M  V30 41 H 0.071800 -5.831453 -0.536564 0
M  V30 42 H -1.248658 -5.514627 0.609452 0
M  V30 43 H -0.012598 -3.280094 -1.793970 0
M  V30 44 H -1.687984 -3.132748 -2.544640 0
M  V30 45 H -2.490209 -2.852418 -0.128662 0
M  V30 46 H -1.730774 -1.420755 -0.800140 0
M  V30 END ATOM
M  V30 BEGIN BOND
M  V30 1 1 1 2
M  V30 2 1 2 3
M  V30 3 1 3 4
M  V30 4 2 4 5
M  V30 5 1 5 6
M  V30 6 2 6 7
M  V30 7 1 7 8
M  V30 8 1 8 9
M  V30 9 2 9 10
M  V30 10 1 10 11
M  V30 11 2 11 12
M  V30 12 1 12 13
M  V30 13 1 13 14
M  V30 14 1 14 15
M  V30 15 2 15 16
M  V30 16 1 16 17
M  V30 17 1 17 18
M  V30 18 1 17 19
M  V30 19 1 17 20
M  V30 20 1 16 21
M  V30 21 2 8 22
M  V30 22 1 3 23
M  V30 23 1 23 24
M  V30 24 1 24 25
M  V30 25 1 25 26
M  V30 26 1 26 27
M  V30 27 1 27 3
M  V30 28 1 22 4
M  V30 29 1 21 9
M  V30 30 2 21 13
M  V30 31 1 1 28
M  V30 32 1 1 29
M  V30 33 1 2 30
M  V30 34 1 2 31
M  V30 35 1 5 32
M  V30 36 1 6 33
M  V30 37 1 7 34
M  V30 38 1 10 35
M  V30 39 1 11 36
M  V30 40 1 14 37
M  V30 41 1 22 38
M  V30 42 1 23 39
M  V30 43 1 23 40
M  V30 44 1 24 41
M  V30 45 1 24 42
M  V30 46 1 26 43
M  V30 47 1 26 44
M  V30 48 1 27 45
M  V30 49 1 27 46
M  V30 END BOND
M  V30 END CTAB
M  END
>  <Dataset>  (56) 
ChEMBL_PKA

>  <Ligand_Instance>  (56) 
nan

>  <PDB_ID>  (56) 
nan

>  <Standardized_SMILES>  (56) 
NCC1(c2cccc(-c3ccnc4[nH]nc(C(F)(F)F)c34)c2)CCOCC1

>  <Name>  (56) 
nan

>  <Pocket>  (56) 
nan

>  <ATP_Site>  (56) 
nan

>  <Peripheral>  (56) 
nan

>  <Num_H_Atoms_ProtBoundConf>  (56) 
nan

>  <Num_Resolved_Atoms>  (56) 
nan

>  <Num_Not_Resolved_Atoms>  (56) 
nan

$$$$
CHEMBL4465866
     RDKit          3D

  0  0  0  0  0  0  0  0  0  0999 V3000
M  V30 BEGIN CTAB
M  V30 COUNTS 120 130 0 0 0
M  V30 BEGIN ATOM
M  V30 1 C 0.617375 -3.766722 -7.061061 0
M  V30 2 O 0.654148 -3.359794 -5.731980 0
M  V30 3 C 1.896137 -3.649846 -5.147244 0 CFG=2
M  V30 4 C 1.710001 -4.700970 -4.141190 0 CFG=2
M  V30 5 N 0.426732 -4.565437 -3.402360 0
M  V30 6 C 0.012492 -5.842009 -2.921536 0
M  V30 7 C -1.239701 -5.928693 -2.177240 0
M  V30 8 O -1.326517 -5.213966 -0.964306 0
M  V30 9 C -2.586698 -5.523518 -0.456024 0
M  V30 10 C -3.008464 -5.105566 0.863674 0
M  V30 11 O -3.073449 -3.784834 1.228109 0
M  V30 12 C -3.660806 -3.783018 2.516304 0
M  V30 13 C -3.844914 -2.452058 3.129032 0
M  V30 14 O -2.733612 -1.693537 3.372169 0
M  V30 15 C -1.910732 -2.241265 4.315938 0
M  V30 16 C -0.634019 -1.530270 4.606706 0
M  V30 17 N -0.719496 -0.181101 5.087095 0
M  V30 18 C -1.272183 1.005526 4.475516 0
M  V30 19 O -1.700822 0.590534 3.374843 0
M  V30 20 C -1.121998 2.185873 5.336637 0
M  V30 21 C -1.557011 3.498409 4.771485 0
M  V30 22 C -0.808026 3.847807 3.548222 0
M  V30 23 N 0.165264 4.736282 3.494321 0 CHG=1 VAL=4
M  V30 24 C 0.682142 4.832925 2.167883 0
M  V30 25 C 1.670855 5.628502 1.805086 0
M  V30 26 C 2.295872 6.476668 2.800653 0
M  V30 27 C 3.340121 7.381426 2.661617 0
M  V30 28 C 4.060569 7.675011 1.381643 0
M  V30 29 C 3.504596 7.889000 3.932800 0
M  V30 30 C 2.589088 7.308635 4.806370 0
M  V30 31 C 2.494924 7.634801 6.266836 0
M  V30 32 N 1.862122 6.444629 4.072156 0
M  V30 33 B 0.739313 5.583950 4.615617 0 CHG=-1 VAL=4
M  V30 34 F 1.165541 4.776885 5.746732 0
M  V30 35 F -0.319208 6.486010 5.074099 0
M  V30 36 C -0.075671 3.888636 1.337373 0
M  V30 37 C -0.928007 3.343560 2.189459 0
M  V30 38 C 2.836554 -4.753671 -3.124305 0
M  V30 39 C 2.960554 -3.373347 -2.609671 0 CFG=1
M  V30 40 O 3.314398 -2.497214 -3.557370 0
M  V30 41 C 2.634886 -2.387541 -4.727710 0 CFG=1
M  V30 42 C 3.631798 -2.077601 -5.784423 0
M  V30 43 N 1.561202 -1.432149 -4.537948 0
M  V30 44 C 1.023296 -0.574909 -5.385889 0
M  V30 45 C 1.313286 -0.232757 -6.682700 0
M  V30 46 C 0.632161 0.698409 -7.428449 0
M  V30 47 C -0.425407 1.340968 -6.833020 0
M  V30 48 C -0.781532 1.049886 -5.526468 0
M  V30 49 C -0.049085 0.103403 -4.843286 0
M  V30 50 C -0.153800 -0.396760 -3.565385 0
M  V30 51 C -1.049453 -0.148423 -2.522081 0
M  V30 52 C -0.886983 -0.860627 -1.361772 0
M  V30 53 C 0.098494 -1.780645 -1.195234 0
M  V30 54 C 0.430501 -2.555838 -0.156161 0
M  V30 55 C 0.021576 -2.828533 1.110883 0
M  V30 56 C 0.631306 -3.738199 1.944492 0
M  V30 57 C 1.731743 -4.450512 1.527255 0
M  V30 58 C 2.194107 -4.217936 0.252347 0
M  V30 59 C 1.532300 -3.293720 -0.522021 0
M  V30 60 N 1.853679 -2.955658 -1.777442 0
M  V30 61 C 0.963600 -2.020208 -2.201874 0
M  V30 62 C 0.838520 -1.330102 -3.395287 0
M  V30 63 C -1.951586 -0.379822 -0.529387 0
M  V30 64 O -2.335184 -0.627262 0.615677 0
M  V30 65 N -2.731758 0.601907 -1.185729 0
M  V30 66 C -2.182255 0.812937 -2.526115 0
M  V30 67 H 0.784099 -4.858955 -7.190795 0
M  V30 68 H -0.355194 -3.443997 -7.453920 0
M  V30 69 H 1.393035 -3.279859 -7.688732 0
M  V30 70 H 2.450271 -4.142769 -6.008599 0
M  V30 71 H 1.654908 -5.717314 -4.583549 0
M  V30 72 H -0.257414 -4.080972 -3.990867 0
M  V30 73 H 0.823134 -6.293760 -2.275968 0
M  V30 74 H 0.023541 -6.531617 -3.826963 0
M  V30 75 H -1.395656 -7.013767 -1.869161 0
M  V30 76 H -2.152199 -5.714613 -2.798582 0
M  V30 77 H -2.619118 -6.663001 -0.485768 0
M  V30 78 H -3.380161 -5.243241 -1.211557 0
M  V30 79 H -4.084004 -5.485300 1.006008 0
M  V30 80 H -2.481023 -5.674156 1.695725 0
M  V30 81 H -4.685103 -4.253801 2.443904 0
M  V30 82 H -3.085492 -4.433722 3.207136 0
M  V30 83 H -4.316187 -2.632894 4.147073 0
M  V30 84 H -4.654980 -1.856637 2.606381 0
M  V30 85 H -1.634353 -3.305210 4.088931 0
M  V30 86 H -2.454629 -2.350579 5.315213 0
M  V30 87 H 0.007457 -2.118432 5.324741 0
M  V30 88 H 0.015497 -1.555478 3.666490 0
M  V30 89 H -0.291900 -0.083600 6.071922 0
M  V30 90 H -1.656119 1.943739 6.291870 0
M  V30 91 H -0.030892 2.220935 5.646782 0
M  V30 92 H -1.381799 4.284024 5.541324 0
M  V30 93 H -2.637693 3.471552 4.481951 0
M  V30 94 H 2.009335 5.653883 0.795499 0
M  V30 95 H 4.735697 6.852413 1.074345 0
M  V30 96 H 4.608290 8.615456 1.413508 0
M  V30 97 H 3.253616 7.681359 0.589372 0
M  V30 98 H 4.282343 8.642215 4.114374 0
M  V30 99 H 3.241634 8.393439 6.522931 0
M  V30 100 H 1.466025 8.030197 6.429700 0
M  V30 101 H 2.621605 6.714650 6.889011 0
M  V30 102 H 0.071251 3.721069 0.285645 0
M  V30 103 H -1.611250 2.614693 1.779718 0
M  V30 104 H 3.750825 -5.048961 -3.686994 0
M  V30 105 H 2.629488 -5.519690 -2.386969 0
M  V30 106 H 3.839132 -3.402134 -1.878000 0
M  V30 107 H 3.475548 -2.561202 -6.766716 0
M  V30 108 H 3.981313 -1.023679 -5.822869 0
M  V30 109 H 4.618717 -2.581563 -5.470042 0
M  V30 110 H 2.130890 -0.727654 -7.171435 0
M  V30 111 H 0.903849 0.931415 -8.447581 0
M  V30 112 H -1.003307 2.086239 -7.366858 0
M  V30 113 H -1.612268 1.550553 -5.049616 0
M  V30 114 H -0.807406 -2.331865 1.534947 0
M  V30 115 H 0.334556 -3.982231 2.959908 0
M  V30 116 H 2.245790 -5.173865 2.140845 0
M  V30 117 H 3.055538 -4.761625 -0.100067 0
M  V30 118 H -3.565833 1.181078 -0.949037 0
M  V30 119 H -1.782740 1.840073 -2.575873 0
M  V30 120 H -2.931199 0.572652 -3.304341 0
M  V30 END ATOM
M  V30 BEGIN BOND
M  V30 1 1 1 2
M  V30 2 1 2 3
M  V30 3 1 3 4
M  V30 4 1 4 5
M  V30 5 1 5 6
M  V30 6 1 6 7
M  V30 7 1 7 8
M  V30 8 1 8 9
M  V30 9 1 9 10
M  V30 10 1 10 11
M  V30 11 1 11 12
M  V30 12 1 12 13
M  V30 13 1 13 14
M  V30 14 1 14 15
M  V30 15 1 15 16
M  V30 16 1 16 17
M  V30 17 1 17 18
M  V30 18 2 18 19
M  V30 19 1 18 20
M  V30 20 1 20 21
M  V30 21 1 21 22
M  V30 22 2 22 23
M  V30 23 1 23 24
M  V30 24 2 24 25
M  V30 25 1 25 26
M  V30 26 2 26 27
M  V30 27 1 27 28
M  V30 28 1 27 29
M  V30 29 2 29 30
M  V30 30 1 30 31
M  V30 31 1 30 32
M  V30 32 1 32 33
M  V30 33 1 33 34
M  V30 34 1 33 35
M  V30 35 1 24 36
M  V30 36 2 36 37
M  V30 37 1 4 38
M  V30 38 1 38 39
M  V30 39 1 39 40
M  V30 40 1 40 41
M  V30 41 1 41 42 CFG=3
M  V30 42 1 41 43
M  V30 43 1 43 44
M  V30 44 2 44 45
M  V30 45 1 45 46
M  V30 46 2 46 47
M  V30 47 1 47 48
M  V30 48 2 48 49
M  V30 49 1 49 50
M  V30 50 2 50 51
M  V30 51 1 51 52
M  V30 52 2 52 53
M  V30 53 1 53 54
M  V30 54 2 54 55
M  V30 55 1 55 56
M  V30 56 2 56 57
M  V30 57 1 57 58
M  V30 58 2 58 59
M  V30 59 1 59 60
M  V30 60 1 60 61
M  V30 61 2 61 62
M  V30 62 1 52 63
M  V30 63 2 63 64
M  V30 64 1 63 65
M  V30 65 1 65 66
M  V30 66 1 41 3
M  V30 67 1 62 43
M  V30 68 1 37 22
M  V30 69 1 60 39
M  V30 70 1 33 23
M  V30 71 1 49 44
M  V30 72 1 62 50
M  V30 73 1 32 26
M  V30 74 1 66 51
M  V30 75 1 61 53
M  V30 76 1 59 54
M  V30 77 1 1 67
M  V30 78 1 1 68
M  V30 79 1 1 69
M  V30 80 1 3 70 CFG=3
M  V30 81 1 4 71 CFG=3
M  V30 82 1 5 72
M  V30 83 1 6 73
M  V30 84 1 6 74
M  V30 85 1 7 75
M  V30 86 1 7 76
M  V30 87 1 9 77
M  V30 88 1 9 78
M  V30 89 1 10 79
M  V30 90 1 10 80
M  V30 91 1 12 81
M  V30 92 1 12 82
M  V30 93 1 13 83
M  V30 94 1 13 84
M  V30 95 1 15 85
M  V30 96 1 15 86
M  V30 97 1 16 87
M  V30 98 1 16 88
M  V30 99 1 17 89
M  V30 100 1 20 90
M  V30 101 1 20 91
M  V30 102 1 21 92
M  V30 103 1 21 93
M  V30 104 1 25 94
M  V30 105 1 28 95
M  V30 106 1 28 96
M  V30 107 1 28 97
M  V30 108 1 29 98
M  V30 109 1 31 99
M  V30 110 1 31 100
M  V30 111 1 31 101
M  V30 112 1 36 102
M  V30 113 1 37 103
M  V30 114 1 38 104
M  V30 115 1 38 105
M  V30 116 1 39 106 CFG=1
M  V30 117 1 42 107
M  V30 118 1 42 108
M  V30 119 1 42 109
M  V30 120 1 45 110
M  V30 121 1 46 111
M  V30 122 1 47 112
M  V30 123 1 48 113
M  V30 124 1 55 114
M  V30 125 1 56 115
M  V30 126 1 57 116
M  V30 127 1 58 117
M  V30 128 1 65 118
M  V30 129 1 66 119
M  V30 130 1 66 120
M  V30 END BOND
M  V30 END CTAB
M  END
>  <Dataset>  (57) 
ChEMBL_PKA

>  <Ligand_Instance>  (57) 
nan

>  <PDB_ID>  (57) 
nan

>  <Standardized_SMILES>  (57) 
CO[C@@H]1[C@H](NCCOCCOCCOCCNC(=O)CCC2=[N+]3C(=Cc4c(C)cc(C)n4[B-]3(F)F)C=C2)C[C@H]2O[C@]1(C)n1c3ccccc3c3c4c(c5c6ccccc6n2c5c31)C(=O)NC4

>  <Name>  (57) 
nan

>  <Pocket>  (57) 
nan

>  <ATP_Site>  (57) 
nan

>  <Peripheral>  (57) 
nan

>  <Num_H_Atoms_ProtBoundConf>  (57) 
nan

>  <Num_Resolved_Atoms>  (57) 
nan

>  <Num_Not_Resolved_Atoms>  (57) 
nan

$$$$
CHEMBL4552628
     RDKit          3D

  0  0  0  0  0  0  0  0  0  0999 V3000
M  V30 BEGIN CTAB
M  V30 COUNTS 46 49 0 0 0
M  V30 BEGIN ATOM
M  V30 1 C -1.133487 -4.566180 2.323001 0
M  V30 2 C -0.936060 -3.169572 2.027072 0
M  V30 3 S 0.710508 -2.664591 1.557067 0
M  V30 4 C 0.639250 -1.061581 1.285520 0
M  V30 5 C 0.586140 0.505596 1.016366 0
M  V30 6 O 0.149635 1.707650 0.897862 0
M  V30 7 N 1.965813 0.701475 0.674531 0
M  V30 8 C 2.636433 1.955910 0.297690 0 CFG=2
M  V30 9 C 3.038784 1.769630 -1.164510 0 CFG=2
M  V30 10 N 3.455807 0.398480 -1.385156 0
M  V30 11 C 4.145506 2.721444 -1.548618 0
M  V30 12 C 5.381200 2.409334 -0.770397 0
M  V30 13 C 5.126325 1.896128 0.607899 0
M  V30 14 C 3.795610 2.301844 1.163520 0
M  V30 15 F 3.687991 1.760626 2.423671 0
M  V30 16 F 3.871968 3.695030 1.337667 0
M  V30 17 C -0.854558 -0.860245 1.593935 0
M  V30 18 C -1.639104 -1.966774 1.973245 0
M  V30 19 C -3.037198 -2.217775 2.340223 0
M  V30 20 C -3.492128 -2.145921 3.637939 0
M  V30 21 N -4.816518 -2.413760 3.482331 0
M  V30 22 N -5.100544 -2.621843 2.209401 0
M  V30 23 C -6.298625 -2.913571 1.647181 0
M  V30 24 C -6.413342 -3.098635 0.284074 0
M  V30 25 Cl -7.928749 -3.477086 -0.494707 0
M  V30 26 C -5.270948 -2.976865 -0.484151 0
M  V30 27 N -4.079210 -2.684589 0.096451 0
M  V30 28 C -4.000552 -2.513011 1.405680 0
M  V30 29 H -0.888726 -4.774724 3.382199 0
M  V30 30 H -0.610574 -5.267662 1.676673 0
M  V30 31 H -2.236146 -4.778685 2.227833 0
M  V30 32 H 2.807263 0.047257 0.611968 0
M  V30 33 H 1.944204 2.822368 0.309155 0
M  V30 34 H 2.131587 1.937327 -1.780203 0
M  V30 35 H 2.904849 -0.051201 -2.124992 0
M  V30 36 H 4.461794 0.282758 -1.527433 0
M  V30 37 H 3.791808 3.755049 -1.420865 0
M  V30 38 H 4.348964 2.523625 -2.621723 0
M  V30 39 H 5.997183 3.349605 -0.776470 0
M  V30 40 H 5.985930 1.659591 -1.341701 0
M  V30 41 H 5.214219 0.800033 0.698191 0
M  V30 42 H 5.902933 2.332965 1.275517 0
M  V30 43 H -1.705924 -0.114568 1.657205 0
M  V30 44 H -2.876711 -1.924972 4.497737 0
M  V30 45 H -7.177583 -3.004549 2.269792 0
M  V30 46 H -5.296722 -3.111836 -1.559768 0
M  V30 END ATOM
M  V30 BEGIN BOND
M  V30 1 1 1 2
M  V30 2 1 2 3
M  V30 3 1 3 4
M  V30 4 1 4 5
M  V30 5 2 5 6
M  V30 6 1 5 7
M  V30 7 1 7 8
M  V30 8 1 8 9
M  V30 9 1 9 10
M  V30 10 1 9 11
M  V30 11 1 11 12
M  V30 12 1 12 13
M  V30 13 1 13 14
M  V30 14 1 14 15
M  V30 15 1 14 16
M  V30 16 2 4 17
M  V30 17 1 17 18
M  V30 18 1 18 19
M  V30 19 1 19 20
M  V30 20 2 20 21
M  V30 21 1 21 22
M  V30 22 1 22 23
M  V30 23 2 23 24
M  V30 24 1 24 25
M  V30 25 1 24 26
M  V30 26 2 26 27
M  V30 27 1 27 28
M  V30 28 2 18 2
M  V30 29 2 28 19
M  V30 30 1 14 8
M  V30 31 1 28 22
M  V30 32 1 1 29
M  V30 33 1 1 30
M  V30 34 1 1 31
M  V30 35 1 7 32
M  V30 36 1 8 33 CFG=3
M  V30 37 1 9 34 CFG=3
M  V30 38 1 10 35
M  V30 39 1 10 36
M  V30 40 1 11 37
M  V30 41 1 11 38
M  V30 42 1 12 39
M  V30 43 1 12 40
M  V30 44 1 13 41
M  V30 45 1 13 42
M  V30 46 1 17 43
M  V30 47 1 20 44
M  V30 48 1 23 45
M  V30 49 1 26 46
M  V30 END BOND
M  V30 END CTAB
M  END
>  <Dataset>  (58) 
ChEMBL_PKA

>  <Ligand_Instance>  (58) 
nan

>  <PDB_ID>  (58) 
nan

>  <Standardized_SMILES>  (58) 
Cc1sc(C(=O)N[C@@H]2[C@H](N)CCCC2(F)F)cc1-c1cnn2cc(Cl)cnc12

>  <Name>  (58) 
nan

>  <Pocket>  (58) 
nan

>  <ATP_Site>  (58) 
nan

>  <Peripheral>  (58) 
nan

>  <Num_H_Atoms_ProtBoundConf>  (58) 
nan

>  <Num_Resolved_Atoms>  (58) 
nan

>  <Num_Not_Resolved_Atoms>  (58) 
nan

$$$$
CHEMBL4568087
     RDKit          3D

  0  0  0  0  0  0  0  0  0  0999 V3000
M  V30 BEGIN CTAB
M  V30 COUNTS 53 57 0 0 0
M  V30 BEGIN ATOM
M  V30 1 C 4.880564 -9.139445 2.333844 0
M  V30 2 N 4.312355 -7.812741 2.486939 0
M  V30 3 C 3.772322 -7.138408 1.430306 0
M  V30 4 C 3.335571 -5.930196 1.934586 0
M  V30 5 C 2.685735 -4.905540 1.099969 0
M  V30 6 C 1.731371 -4.052149 1.617883 0
M  V30 7 N 1.163642 -3.128574 0.812874 0
M  V30 8 C 1.520221 -3.028795 -0.501144 0
M  V30 9 C 1.094771 -2.185541 -1.509490 0
M  V30 10 C 0.078967 -1.112213 -1.392791 0
M  V30 11 C -0.867376 -1.013878 -2.358491 0
M  V30 12 S -1.879313 0.463769 -1.760844 0
M  V30 13 C -0.896494 0.746105 -0.301185 0
M  V30 14 C -1.065678 1.792984 0.747926 0
M  V30 15 O -0.295742 1.890892 1.744999 0
M  V30 16 N -2.176989 2.662151 0.508012 0
M  V30 17 C -2.393104 3.711701 1.505268 0 CFG=2
M  V30 18 C -3.747205 3.504315 2.105573 0
M  V30 19 C -4.786031 3.508274 1.027873 0
M  V30 20 C -4.599857 4.673515 0.090160 0
M  V30 21 C -3.682833 5.689870 0.710086 0
M  V30 22 C -2.316181 5.079588 0.913394 0 CFG=2
M  V30 23 N -1.536902 5.121928 -0.307521 0
M  V30 24 C 0.112089 -0.248917 -0.329356 0
M  V30 25 C 1.790911 -2.522470 -2.651908 0
M  V30 26 N 2.607982 -3.545439 -2.312582 0
M  V30 27 N 2.462099 -3.863923 -1.031297 0
M  V30 28 C 3.037684 -4.791640 -0.238161 0
M  V30 29 C 3.617704 -5.893193 3.284664 0
M  V30 30 N 4.215356 -7.061625 3.588580 0
M  V30 31 H 5.298077 -9.519855 3.265113 0
M  V30 32 H 5.590340 -9.127100 1.478435 0
M  V30 33 H 4.047094 -9.813549 2.006468 0
M  V30 34 H 3.701409 -7.480899 0.407639 0
M  V30 35 H 1.488677 -4.176192 2.662456 0
M  V30 36 H -1.034905 -1.596091 -3.241768 0
M  V30 37 H -2.798877 2.561615 -0.323895 0
M  V30 38 H -1.588145 3.603758 2.273681 0
M  V30 39 H -3.924486 4.342492 2.829480 0
M  V30 40 H -3.821697 2.587088 2.719070 0
M  V30 41 H -5.792998 3.523603 1.506672 0
M  V30 42 H -4.687896 2.577300 0.424020 0
M  V30 43 H -5.578499 5.192926 -0.106893 0
M  V30 44 H -4.216309 4.407294 -0.898015 0
M  V30 45 H -3.623026 6.578365 0.055585 0
M  V30 46 H -4.137518 6.025891 1.662405 0
M  V30 47 H -1.792586 5.750433 1.639030 0
M  V30 48 H -2.076918 4.743891 -1.123962 0
M  V30 49 H -1.262968 6.098613 -0.545575 0
M  V30 50 H 0.827063 -0.256777 0.479220 0
M  V30 51 H 1.652565 -2.017982 -3.596174 0
M  V30 52 H 3.780637 -5.455593 -0.642573 0
M  V30 53 H 3.361393 -5.033614 3.889019 0
M  V30 END ATOM
M  V30 BEGIN BOND
M  V30 1 1 1 2
M  V30 2 1 2 3
M  V30 3 2 3 4
M  V30 4 1 4 5
M  V30 5 1 5 6
M  V30 6 2 6 7
M  V30 7 1 7 8
M  V30 8 2 8 9
M  V30 9 1 9 10
M  V30 10 2 10 11
M  V30 11 1 11 12
M  V30 12 1 12 13
M  V30 13 1 13 14
M  V30 14 2 14 15
M  V30 15 1 14 16
M  V30 16 1 16 17
M  V30 17 1 17 18
M  V30 18 1 18 19
M  V30 19 1 19 20
M  V30 20 1 20 21
M  V30 21 1 21 22
M  V30 22 1 22 23
M  V30 23 2 13 24
M  V30 24 1 9 25
M  V30 25 2 25 26
M  V30 26 1 26 27
M  V30 27 1 27 28
M  V30 28 1 4 29
M  V30 29 2 29 30
M  V30 30 1 30 2
M  V30 31 2 28 5
M  V30 32 1 27 8
M  V30 33 1 24 10
M  V30 34 1 22 17
M  V30 35 1 1 31
M  V30 36 1 1 32
M  V30 37 1 1 33
M  V30 38 1 3 34
M  V30 39 1 6 35
M  V30 40 1 11 36
M  V30 41 1 16 37
M  V30 42 1 17 38 CFG=1
M  V30 43 1 18 39
M  V30 44 1 18 40
M  V30 45 1 19 41
M  V30 46 1 19 42
M  V30 47 1 20 43
M  V30 48 1 20 44
M  V30 49 1 21 45
M  V30 50 1 21 46
M  V30 51 1 22 47 CFG=1
M  V30 52 1 23 48
M  V30 53 1 23 49
M  V30 54 1 24 50
M  V30 55 1 25 51
M  V30 56 1 28 52
M  V30 57 1 29 53
M  V30 END BOND
M  V30 END CTAB
M  END
>  <Dataset>  (59) 
ChEMBL_PKA

>  <Ligand_Instance>  (59) 
nan

>  <PDB_ID>  (59) 
nan

>  <Standardized_SMILES>  (59) 
Cn1cc(-c2cnc3c(-c4csc(C(=O)N[C@@H]5CCCC[C@@H]5N)c4)cnn3c2)cn1

>  <Name>  (59) 
nan

>  <Pocket>  (59) 
nan

>  <ATP_Site>  (59) 
nan

>  <Peripheral>  (59) 
nan

>  <Num_H_Atoms_ProtBoundConf>  (59) 
nan

>  <Num_Resolved_Atoms>  (59) 
nan

>  <Num_Not_Resolved_Atoms>  (59) 
nan

$$$$
CHEMBL4576489
     RDKit          3D

  0  0  0  0  0  0  0  0  0  0999 V3000
M  V30 BEGIN CTAB
M  V30 COUNTS 123 133 0 0 0
M  V30 BEGIN ATOM
M  V30 1 C -1.196597 0.729502 -1.434546 0
M  V30 2 O 0.055446 0.747441 -2.026865 0
M  V30 3 C 1.085309 1.052274 -1.131729 0 CFG=2
M  V30 4 C 1.908897 2.232995 -1.639037 0 CFG=2
M  V30 5 N 1.542363 3.505217 -1.257625 0
M  V30 6 C 1.651563 3.633170 0.189623 0
M  V30 7 C 0.435409 4.221029 -1.783251 0
M  V30 8 C 0.502934 4.656609 -3.208424 0
M  V30 9 O -0.556222 5.346145 -3.678580 0
M  V30 10 C -1.788213 4.891530 -3.860639 0
M  V30 11 C -2.608390 4.369953 -2.739214 0
M  V30 12 O -2.856811 5.256852 -1.714256 0
M  V30 13 C -3.503069 4.494497 -0.701636 0
M  V30 14 C -3.905473 5.350660 0.440530 0
M  V30 15 O -4.522842 4.686035 1.494050 0
M  V30 16 C -3.600396 3.845512 2.083237 0
M  V30 17 C -4.152074 3.048813 3.262216 0
M  V30 18 N -3.049378 2.227306 3.788771 0
M  V30 19 C -3.229768 1.305503 4.896901 0
M  V30 20 O -4.472906 1.529417 5.071213 0
M  V30 21 C -1.939869 0.664102 5.179072 0
M  V30 22 C -2.014884 -0.463101 6.142153 0
M  V30 23 C -2.807792 -1.614310 5.664419 0
M  V30 24 N -2.276892 -2.775876 5.415379 0 CHG=1 VAL=4
M  V30 25 C -3.207285 -3.731511 4.966447 0
M  V30 26 C -2.999405 -4.985161 4.633814 0
M  V30 27 C -1.639783 -5.490710 4.729016 0
M  V30 28 C -1.040702 -6.716502 4.481013 0
M  V30 29 C -1.764804 -7.926019 3.995786 0
M  V30 30 C 0.306997 -6.619729 4.755688 0
M  V30 31 C 0.547292 -5.328497 5.176386 0
M  V30 32 C 1.907711 -4.838650 5.571978 0
M  V30 33 N -0.653911 -4.693811 5.142203 0
M  V30 34 B -0.822020 -3.235715 5.532072 0 CHG=-1 VAL=4
M  V30 35 F 0.015897 -2.418539 4.633200 0
M  V30 36 F -0.292670 -2.957536 6.878635 0
M  V30 37 C -4.494320 -3.023554 4.945592 0
M  V30 38 C -4.205281 -1.802952 5.358147 0
M  V30 39 C 2.188024 1.933797 -3.073230 0
M  V30 40 C 3.117008 0.711593 -3.054682 0 CFG=1
M  V30 41 O 3.190765 0.072629 -1.868753 0
M  V30 42 C 2.015377 -0.150510 -1.160666 0 CFG=1
M  V30 43 C 2.495978 -0.397070 0.276971 0
M  V30 44 N 1.392756 -1.356793 -1.642833 0
M  V30 45 C 0.630421 -2.298814 -1.076549 0
M  V30 46 C 0.186425 -2.362138 0.219725 0
M  V30 47 C -0.601970 -3.415750 0.640377 0
M  V30 48 C -0.990533 -4.450958 -0.186707 0
M  V30 49 C -0.528005 -4.360533 -1.498385 0
M  V30 50 C 0.260212 -3.300944 -1.904875 0
M  V30 51 C 0.812517 -3.020810 -3.139564 0
M  V30 52 C 0.793695 -3.626436 -4.360482 0
M  V30 53 C 1.449628 -3.076169 -5.433148 0
M  V30 54 C 2.119429 -1.914174 -5.254545 0
M  V30 55 C 2.829536 -1.180220 -6.146813 0
M  V30 56 C 3.212331 -1.166313 -7.450711 0
M  V30 57 C 3.979425 -0.208974 -8.076191 0
M  V30 58 C 4.423603 0.865042 -7.326759 0
M  V30 59 C 4.076458 0.935661 -5.970136 0
M  V30 60 C 3.305289 -0.086424 -5.467805 0
M  V30 61 N 2.883017 -0.169709 -4.187222 0
M  V30 62 C 2.140827 -1.306701 -4.040028 0
M  V30 63 C 1.478783 -1.847783 -2.926538 0
M  V30 64 C 1.226176 -3.951687 -6.541976 0
M  V30 65 O 1.561972 -3.969680 -7.733418 0
M  V30 66 N 0.425161 -5.053695 -6.152896 0
M  V30 67 C 0.111215 -4.899220 -4.725666 0
M  V30 68 H -1.928403 0.488854 -2.245388 0
M  V30 69 H -1.318369 -0.099749 -0.709168 0
M  V30 70 H -1.495961 1.705686 -1.018402 0
M  V30 71 H 0.702126 1.240768 -0.108298 0
M  V30 72 H 2.931506 2.063676 -1.127045 0
M  V30 73 H 2.393409 2.914401 0.534821 0
M  V30 74 H 0.694342 3.576197 0.704544 0
M  V30 75 H 2.080585 4.644359 0.387247 0
M  V30 76 H 0.458956 5.212781 -1.193783 0
M  V30 77 H -0.533118 3.821809 -1.540438 0
M  V30 78 H 1.415166 5.308038 -3.381558 0
M  V30 79 H 0.590732 3.756154 -3.902274 0
M  V30 80 H -1.799878 4.051776 -4.646514 0
M  V30 81 H -2.380896 5.696415 -4.393570 0
M  V30 82 H -2.430132 3.358468 -2.432023 0
M  V30 83 H -3.673499 4.261321 -3.231116 0
M  V30 84 H -4.450805 4.055540 -1.130002 0
M  V30 85 H -2.850352 3.641394 -0.460629 0
M  V30 86 H -4.518506 6.222862 0.101793 0
M  V30 87 H -2.966860 5.810080 0.873542 0
M  V30 88 H -2.664763 4.376045 2.389894 0
M  V30 89 H -3.261685 3.110997 1.314164 0
M  V30 90 H -4.415917 3.762010 4.048326 0
M  V30 91 H -4.992128 2.415879 2.967687 0
M  V30 92 H -2.117462 2.369886 3.285448 0
M  V30 93 H -1.208283 1.428752 5.557818 0
M  V30 94 H -1.527156 0.286135 4.212043 0
M  V30 95 H -0.995996 -0.780570 6.412666 0
M  V30 96 H -2.464083 -0.082606 7.115846 0
M  V30 97 H -3.784719 -5.646045 4.297524 0
M  V30 98 H -2.200513 -8.494135 4.856793 0
M  V30 99 H -1.033266 -8.610183 3.479085 0
M  V30 100 H -2.576592 -7.636897 3.306593 0
M  V30 101 H 1.017258 -7.445962 4.646898 0
M  V30 102 H 2.465756 -5.642433 6.076705 0
M  V30 103 H 2.469550 -4.419291 4.723296 0
M  V30 104 H 1.755989 -4.044270 6.362884 0
M  V30 105 H -5.463540 -3.414343 4.654419 0
M  V30 106 H -4.974439 -1.060667 5.446590 0
M  V30 107 H 2.675259 2.758541 -3.628395 0
M  V30 108 H 1.262058 1.540634 -3.539283 0
M  V30 109 H 4.152626 1.127288 -3.252529 0
M  V30 110 H 3.532778 0.077168 0.405591 0
M  V30 111 H 2.690382 -1.454735 0.490368 0
M  V30 112 H 1.898128 0.153745 1.024383 0
M  V30 113 H 0.428527 -1.590470 0.923671 0
M  V30 114 H -0.971275 -3.489862 1.673632 0
M  V30 115 H -1.604041 -5.285523 0.113628 0
M  V30 116 H -0.787266 -5.120952 -2.200770 0
M  V30 117 H 2.913616 -1.957003 -8.092562 0
M  V30 118 H 4.256577 -0.249528 -9.121183 0
M  V30 119 H 5.028502 1.679416 -7.700808 0
M  V30 120 H 4.417288 1.767666 -5.391212 0
M  V30 121 H 0.034062 -5.897165 -6.623605 0
M  V30 122 H -0.990118 -4.858541 -4.594301 0
M  V30 123 H 0.507179 -5.751080 -4.144052 0
M  V30 END ATOM
M  V30 BEGIN BOND
M  V30 1 1 1 2
M  V30 2 1 2 3
M  V30 3 1 3 4
M  V30 4 1 4 5
M  V30 5 1 5 6
M  V30 6 1 5 7
M  V30 7 1 7 8
M  V30 8 1 8 9
M  V30 9 1 9 10
M  V30 10 1 10 11
M  V30 11 1 11 12
M  V30 12 1 12 13
M  V30 13 1 13 14
M  V30 14 1 14 15
M  V30 15 1 15 16
M  V30 16 1 16 17
M  V30 17 1 17 18
M  V30 18 1 18 19
M  V30 19 2 19 20
M  V30 20 1 19 21
M  V30 21 1 21 22
M  V30 22 1 22 23
M  V30 23 2 23 24
M  V30 24 1 24 25
M  V30 25 2 25 26
M  V30 26 1 26 27
M  V30 27 2 27 28
M  V30 28 1 28 29
M  V30 29 1 28 30
M  V30 30 2 30 31
M  V30 31 1 31 32
M  V30 32 1 31 33
M  V30 33 1 33 34
M  V30 34 1 34 35
M  V30 35 1 34 36
M  V30 36 1 25 37
M  V30 37 2 37 38
M  V30 38 1 4 39
M  V30 39 1 39 40
M  V30 40 1 40 41
M  V30 41 1 41 42
M  V30 42 1 42 43 CFG=1
M  V30 43 1 42 44
M  V30 44 1 44 45
M  V30 45 2 45 46
M  V30 46 1 46 47
M  V30 47 2 47 48
M  V30 48 1 48 49
M  V30 49 2 49 50
M  V30 50 1 50 51
M  V30 51 2 51 52
M  V30 52 1 52 53
M  V30 53 2 53 54
M  V30 54 1 54 55
M  V30 55 2 55 56
M  V30 56 1 56 57
M  V30 57 2 57 58
M  V30 58 1 58 59
M  V30 59 2 59 60
M  V30 60 1 60 61
M  V30 61 1 61 62
M  V30 62 2 62 63
M  V30 63 1 53 64
M  V30 64 2 64 65
M  V30 65 1 64 66
M  V30 66 1 66 67
M  V30 67 1 42 3
M  V30 68 1 63 44
M  V30 69 1 38 23
M  V30 70 1 61 40
M  V30 71 1 34 24
M  V30 72 1 50 45
M  V30 73 1 63 51
M  V30 74 1 33 27
M  V30 75 1 67 52
M  V30 76 1 62 54
M  V30 77 1 60 55
M  V30 78 1 1 68
M  V30 79 1 1 69
M  V30 80 1 1 70
M  V30 81 1 3 71 CFG=1
M  V30 82 1 4 72 CFG=1
M  V30 83 1 6 73
M  V30 84 1 6 74
M  V30 85 1 6 75
M  V30 86 1 7 76
M  V30 87 1 7 77
M  V30 88 1 8 78
M  V30 89 1 8 79
M  V30 90 1 10 80
M  V30 91 1 10 81
M  V30 92 1 11 82
M  V30 93 1 11 83
M  V30 94 1 13 84
M  V30 95 1 13 85
M  V30 96 1 14 86
M  V30 97 1 14 87
M  V30 98 1 16 88
M  V30 99 1 16 89
M  V30 100 1 17 90
M  V30 101 1 17 91
M  V30 102 1 18 92
M  V30 103 1 21 93
M  V30 104 1 21 94
M  V30 105 1 22 95
M  V30 106 1 22 96
M  V30 107 1 26 97
M  V30 108 1 29 98
M  V30 109 1 29 99
M  V30 110 1 29 100
M  V30 111 1 30 101
M  V30 112 1 32 102
M  V30 113 1 32 103
M  V30 114 1 32 104
M  V30 115 1 37 105
M  V30 116 1 38 106
M  V30 117 1 39 107
M  V30 118 1 39 108
M  V30 119 1 40 109 CFG=3
M  V30 120 1 43 110
M  V30 121 1 43 111
M  V30 122 1 43 112
M  V30 123 1 46 113
M  V30 124 1 47 114
M  V30 125 1 48 115
M  V30 126 1 49 116
M  V30 127 1 56 117
M  V30 128 1 57 118
M  V30 129 1 58 119
M  V30 130 1 59 120
M  V30 131 1 66 121
M  V30 132 1 67 122
M  V30 133 1 67 123
M  V30 END BOND
M  V30 END CTAB
M  END
>  <Dataset>  (60) 
ChEMBL_PKA

>  <Ligand_Instance>  (60) 
nan

>  <PDB_ID>  (60) 
nan

>  <Standardized_SMILES>  (60) 
CO[C@@H]1[C@H](N(C)CCOCCOCCOCCNC(=O)CCC2=[N+]3C(=Cc4c(C)cc(C)n4[B-]3(F)F)C=C2)C[C@H]2O[C@]1(C)n1c3ccccc3c3c4c(c5c6ccccc6n2c5c31)C(=O)NC4

>  <Name>  (60) 
nan

>  <Pocket>  (60) 
nan

>  <ATP_Site>  (60) 
nan

>  <Peripheral>  (60) 
nan

>  <Num_H_Atoms_ProtBoundConf>  (60) 
nan

>  <Num_Resolved_Atoms>  (60) 
nan

>  <Num_Not_Resolved_Atoms>  (60) 
nan

$$$$
CHEMBL460702
     RDKit          3D

  0  0  0  0  0  0  0  0  0  0999 V3000
M  V30 BEGIN CTAB
M  V30 COUNTS 55 58 0 0 0
M  V30 BEGIN ATOM
M  V30 1 C -0.211405 -0.255884 5.481888 0
M  V30 2 C 0.892990 -0.861317 4.657734 0
M  V30 3 O 0.821361 -0.517475 3.287880 0
M  V30 4 C 0.884064 0.770351 2.790571 0
M  V30 5 C 1.033026 1.838117 3.684370 0
M  V30 6 C 1.105090 3.149743 3.284017 0
M  V30 7 N 1.028457 3.423350 1.961068 0
M  V30 8 C 1.098808 4.769408 1.507033 0
M  V30 9 C 2.154168 5.362137 0.843220 0
M  V30 10 C 2.096461 6.686184 0.454110 0
M  V30 11 C 0.954254 7.416714 0.742232 0
M  V30 12 F 0.931755 8.716640 0.344849 0
M  V30 13 C -0.111335 6.824384 1.410545 0
M  V30 14 C -0.042953 5.510842 1.791597 0
M  V30 15 C 0.885943 2.391084 1.116154 0
M  V30 16 O 0.820815 2.705200 -0.093230 0
M  V30 17 C 0.808014 1.070264 1.447276 0
M  V30 18 C 0.653619 -0.052201 0.542071 0
M  V30 19 O 0.601288 -1.220127 1.047978 0
M  V30 20 N 0.544901 -0.090344 -0.871469 0
M  V30 21 C 0.409137 -1.448559 -1.280543 0
M  V30 22 C -0.881583 -1.929116 -1.361372 0
M  V30 23 C -1.126145 -3.224158 -1.745074 0
M  V30 24 C -0.102639 -4.089366 -2.062151 0
M  V30 25 O -0.089163 -5.390417 -2.459793 0
M  V30 26 C -1.125162 -6.251345 -2.651232 0
M  V30 27 C -1.407267 -6.838162 -3.883870 0
M  V30 28 C -2.443161 -7.716780 -4.131898 0
M  V30 29 N -3.269258 -8.056233 -3.118592 0
M  V30 30 C -3.069700 -7.536308 -1.894502 0
M  V30 31 N -3.947502 -7.895403 -0.812528 0
M  V30 32 C -2.033538 -6.664264 -1.668662 0
M  V30 33 Cl -1.827005 -6.036142 -0.047439 0
M  V30 34 C 1.205300 -3.596108 -1.978438 0
M  V30 35 F 2.357415 -4.295155 -2.251059 0
M  V30 36 C 1.468955 -2.276977 -1.588426 0
M  V30 37 H -0.872782 -1.100192 5.804446 0
M  V30 38 H -0.880671 0.394486 4.879986 0
M  V30 39 H 0.186421 0.225087 6.378585 0
M  V30 40 H 0.943975 -1.956418 4.797832 0
M  V30 41 H 1.864077 -0.466471 5.050785 0
M  V30 42 H 1.104796 1.717261 4.749491 0
M  V30 43 H 1.219826 3.979649 3.966384 0
M  V30 44 H 2.999378 4.690713 0.670944 0
M  V30 45 H 2.948364 7.085283 -0.056844 0
M  V30 46 H -0.940294 7.480362 1.580336 0
M  V30 47 H -0.921706 5.166381 2.297563 0
M  V30 48 H 0.579103 0.817057 -1.351484 0
M  V30 49 H -1.770478 -1.357845 -1.140884 0
M  V30 50 H -2.088648 -3.675079 -1.837871 0
M  V30 51 H -0.734905 -6.562001 -4.708738 0
M  V30 52 H -2.530609 -8.090940 -5.159461 0
M  V30 53 H -4.111063 -8.745942 -0.231042 0
M  V30 54 H -4.571597 -7.074188 -0.565258 0
M  V30 55 H 2.453888 -1.860714 -1.511839 0
M  V30 END ATOM
M  V30 BEGIN BOND
M  V30 1 1 1 2
M  V30 2 1 2 3
M  V30 3 1 3 4
M  V30 4 1 4 5
M  V30 5 2 5 6
M  V30 6 1 6 7
M  V30 7 1 7 8
M  V30 8 2 8 9
M  V30 9 1 9 10
M  V30 10 2 10 11
M  V30 11 1 11 12
M  V30 12 1 11 13
M  V30 13 2 13 14
M  V30 14 1 7 15
M  V30 15 2 15 16
M  V30 16 1 15 17
M  V30 17 1 17 18
M  V30 18 2 18 19
M  V30 19 1 18 20
M  V30 20 1 20 21
M  V30 21 2 21 22
M  V30 22 1 22 23
M  V30 23 2 23 24
M  V30 24 1 24 25
M  V30 25 1 25 26
M  V30 26 2 26 27
M  V30 27 1 27 28
M  V30 28 2 28 29
M  V30 29 1 29 30
M  V30 30 1 30 31
M  V30 31 2 30 32
M  V30 32 1 32 33
M  V30 33 1 24 34
M  V30 34 1 34 35
M  V30 35 2 34 36
M  V30 36 2 17 4
M  V30 37 1 36 21
M  V30 38 1 14 8
M  V30 39 1 32 26
M  V30 40 1 1 37
M  V30 41 1 1 38
M  V30 42 1 1 39
M  V30 43 1 2 40
M  V30 44 1 2 41
M  V30 45 1 5 42
M  V30 46 1 6 43
M  V30 47 1 9 44
M  V30 48 1 10 45
M  V30 49 1 13 46
M  V30 50 1 14 47
M  V30 51 1 20 48
M  V30 52 1 22 49
M  V30 53 1 23 50
M  V30 54 1 27 51
M  V30 55 1 28 52
M  V30 56 1 31 53
M  V30 57 1 31 54
M  V30 58 1 36 55
M  V30 END BOND
M  V30 END CTAB
M  END
>  <Dataset>  (61) 
ChEMBL_PKA

>  <Ligand_Instance>  (61) 
nan

>  <PDB_ID>  (61) 
nan

>  <Standardized_SMILES>  (61) 
CCOc1ccn(-c2ccc(F)cc2)c(=O)c1C(=O)Nc1ccc(Oc2ccnc(N)c2Cl)c(F)c1

>  <Name>  (61) 
BMS-777607

>  <Pocket>  (61) 
nan

>  <ATP_Site>  (61) 
nan

>  <Peripheral>  (61) 
nan

>  <Num_H_Atoms_ProtBoundConf>  (61) 
nan

>  <Num_Resolved_Atoms>  (61) 
nan

>  <Num_Not_Resolved_Atoms>  (61) 
nan

$$$$
CHEMBL495727
     RDKit          3D

  0  0  0  0  0  0  0  0  0  0999 V3000
M  V30 BEGIN CTAB
M  V30 COUNTS 51 55 0 0 0
M  V30 BEGIN ATOM
M  V30 1 O 0.137267 -4.119815 -2.262395 0
M  V30 2 C 0.336710 -4.346394 -1.032573 0
M  V30 3 N 1.668032 -4.067793 -0.574253 0
M  V30 4 C 2.530979 -3.586213 -1.579614 0
M  V30 5 C 3.324290 -4.368266 -2.393440 0
M  V30 6 N 3.993650 -3.537927 -3.214348 0
M  V30 7 N 3.629772 -2.283452 -2.921748 0
M  V30 8 C 2.731085 -2.268212 -1.921386 0
M  V30 9 C 2.125131 -1.068491 -1.353867 0
M  V30 10 N 2.360023 0.207645 -1.730648 0
M  V30 11 C 1.633608 1.065036 -0.997887 0
M  V30 12 C 1.580332 2.442818 -1.062488 0
M  V30 13 C 0.730758 3.088423 -0.173307 0
M  V30 14 C -0.018298 2.335194 0.729692 0
M  V30 15 C -0.884355 3.119583 1.624811 0
M  V30 16 N -0.242389 3.506498 2.856337 0
M  V30 17 C -1.096634 4.268280 3.716089 0
M  V30 18 C -1.901244 3.407082 4.645997 0
M  V30 19 O -1.939140 2.083566 4.267344 0
M  V30 20 C -0.658366 1.533289 4.284546 0
M  V30 21 C 0.327261 2.413284 3.581821 0
M  V30 22 C 0.079230 0.958996 0.744802 0
M  V30 23 C 0.914062 0.286185 -0.125492 0
M  V30 24 N 1.229320 -0.996040 -0.361574 0
M  V30 25 N -0.732481 -4.842556 -0.221777 0
M  V30 26 C -2.035656 -5.087744 -0.789907 0
M  V30 27 C -2.833339 -6.272257 -0.407845 0
M  V30 28 C -3.289439 -4.900593 -0.034256 0
M  V30 29 H 1.802491 -4.268248 0.461220 0
M  V30 30 H 3.427535 -5.453712 -2.410731 0
M  V30 31 H 4.694627 -3.788233 -3.973168 0
M  V30 32 H 2.199469 2.965526 -1.799883 0
M  V30 33 H 0.697315 4.172524 -0.233581 0
M  V30 34 H -1.823621 2.540750 1.859647 0
M  V30 35 H -1.234307 4.051406 1.137709 0
M  V30 36 H -0.443644 4.950207 4.327395 0
M  V30 37 H -1.730154 4.974159 3.109114 0
M  V30 38 H -2.954502 3.780504 4.578634 0
M  V30 39 H -1.503643 3.460134 5.671032 0
M  V30 40 H -0.753934 0.517053 3.839550 0
M  V30 41 H -0.376233 1.352561 5.360211 0
M  V30 42 H 1.054863 1.831309 2.958656 0
M  V30 43 H 0.983307 2.870010 4.379675 0
M  V30 44 H -0.512441 0.404546 1.454400 0
M  V30 45 H 0.805748 -1.753715 0.178912 0
M  V30 46 H -0.504418 -5.011249 0.793586 0
M  V30 47 H -2.070758 -4.845712 -1.883026 0
M  V30 48 H -2.360684 -6.946878 0.349688 0
M  V30 49 H -3.415239 -6.816680 -1.180980 0
M  V30 50 H -3.233904 -4.542529 1.009565 0
M  V30 51 H -4.200340 -4.540567 -0.555599 0
M  V30 END ATOM
M  V30 BEGIN BOND
M  V30 1 2 1 2
M  V30 2 1 2 3
M  V30 3 1 3 4
M  V30 4 2 4 5
M  V30 5 1 5 6
M  V30 6 1 6 7
M  V30 7 2 7 8
M  V30 8 1 8 9
M  V30 9 2 9 10
M  V30 10 1 10 11
M  V30 11 2 11 12
M  V30 12 1 12 13
M  V30 13 2 13 14
M  V30 14 1 14 15
M  V30 15 1 15 16
M  V30 16 1 16 17
M  V30 17 1 17 18
M  V30 18 1 18 19
M  V30 19 1 19 20
M  V30 20 1 20 21
M  V30 21 1 14 22
M  V30 22 2 22 23
M  V30 23 1 23 24
M  V30 24 1 2 25
M  V30 25 1 25 26
M  V30 26 1 26 27
M  V30 27 1 27 28
M  V30 28 1 8 4
M  V30 29 1 24 9
M  V30 30 1 28 26
M  V30 31 1 23 11
M  V30 32 1 21 16
M  V30 33 1 3 29
M  V30 34 1 5 30
M  V30 35 1 6 31
M  V30 36 1 12 32
M  V30 37 1 13 33
M  V30 38 1 15 34
M  V30 39 1 15 35
M  V30 40 1 17 36
M  V30 41 1 17 37
M  V30 42 1 18 38
M  V30 43 1 18 39
M  V30 44 1 20 40
M  V30 45 1 20 41
M  V30 46 1 21 42
M  V30 47 1 21 43
M  V30 48 1 22 44
M  V30 49 1 24 45
M  V30 50 1 25 46
M  V30 51 1 26 47
M  V30 52 1 27 48
M  V30 53 1 27 49
M  V30 54 1 28 50
M  V30 55 1 28 51
M  V30 END BOND
M  V30 END CTAB
M  END
>  <Dataset>  (62) 
ChEMBL_PKA

>  <Ligand_Instance>  (62) 
nan

>  <PDB_ID>  (62) 
nan

>  <Standardized_SMILES>  (62) 
O=C(Nc1c[nH]nc1-c1nc2ccc(CN3CCOCC3)cc2[nH]1)NC1CC1

>  <Name>  (62) 
AT-9283

>  <Pocket>  (62) 
nan

>  <ATP_Site>  (62) 
nan

>  <Peripheral>  (62) 
nan

>  <Num_H_Atoms_ProtBoundConf>  (62) 
nan

>  <Num_Resolved_Atoms>  (62) 
nan

>  <Num_Not_Resolved_Atoms>  (62) 
nan

$$$$
CHEMBL51758
     RDKit          3D

  0  0  0  0  0  0  0  0  0  0999 V3000
M  V30 BEGIN CTAB
M  V30 COUNTS 44 48 0 0 0
M  V30 BEGIN ATOM
M  V30 1 C -1.349644 -2.523790 4.090781 0
M  V30 2 N -1.170161 -2.379834 2.669625 0
M  V30 3 C -1.179028 -1.230730 1.984776 0
M  V30 4 C -0.983070 -1.398389 0.637841 0
M  V30 5 C -0.838960 -0.600009 -0.567571 0
M  V30 6 C -0.059321 0.422894 -0.969801 0
M  V30 7 C 1.005451 1.172112 -0.311614 0
M  V30 8 C 2.269890 1.213971 -0.919236 0
M  V30 9 N 3.125899 1.950537 -0.194016 0
M  V30 10 C 4.535322 2.219377 -0.505288 0
M  V30 11 C 2.472138 2.407640 0.885937 0
M  V30 12 C 2.790767 3.206668 1.977743 0
M  V30 13 C 1.815313 3.491216 2.929735 0
M  V30 14 C 0.520575 2.998725 2.824136 0
M  V30 15 Cl -0.635455 3.412435 4.069667 0
M  V30 16 C 0.190992 2.197055 1.735071 0
M  V30 17 C 1.178704 1.941830 0.827117 0
M  V30 18 C -0.458187 0.792951 -2.346415 0
M  V30 19 O 0.047586 1.717807 -3.070991 0
M  V30 20 N -1.511547 -0.025800 -2.797867 0
M  V30 21 C -1.751196 -0.888055 -1.702690 0
M  V30 22 O -2.675974 -1.766699 -1.811743 0
M  V30 23 C -0.848853 -2.794604 0.554913 0
M  V30 24 C -0.619318 -3.686276 -0.483617 0
M  V30 25 C -0.509352 -5.050131 -0.338102 0
M  V30 26 C -0.631566 -5.583534 0.912999 0
M  V30 27 C -0.859164 -4.739538 1.975318 0
M  V30 28 C -0.965056 -3.377663 1.801081 0
M  V30 29 H -0.410295 -2.825639 4.576457 0
M  V30 30 H -1.774167 -1.609777 4.566423 0
M  V30 31 H -2.089163 -3.357519 4.274734 0
M  V30 32 H -1.326829 -0.262716 2.418162 0
M  V30 33 H 2.601774 0.743978 -1.848622 0
M  V30 34 H 5.074618 2.562725 0.377727 0
M  V30 35 H 4.533872 3.008332 -1.291179 0
M  V30 36 H 5.018752 1.331979 -0.973174 0
M  V30 37 H 3.810049 3.564435 2.014603 0
M  V30 38 H 2.158440 4.116877 3.737427 0
M  V30 39 H -0.810455 1.836133 1.650148 0
M  V30 40 H -1.976812 0.025111 -3.727596 0
M  V30 41 H -0.503556 -3.328344 -1.496634 0
M  V30 42 H -0.327654 -5.699342 -1.198837 0
M  V30 43 H -0.539124 -6.670044 0.992302 0
M  V30 44 H -0.948350 -5.207175 2.947857 0
M  V30 END ATOM
M  V30 BEGIN BOND
M  V30 1 1 1 2
M  V30 2 1 2 3
M  V30 3 2 3 4
M  V30 4 1 4 5
M  V30 5 2 5 6
M  V30 6 1 6 7
M  V30 7 2 7 8
M  V30 8 1 8 9
M  V30 9 1 9 10
M  V30 10 1 9 11
M  V30 11 2 11 12
M  V30 12 1 12 13
M  V30 13 2 13 14
M  V30 14 1 14 15
M  V30 15 1 14 16
M  V30 16 2 16 17
M  V30 17 1 6 18
M  V30 18 2 18 19
M  V30 19 1 18 20
M  V30 20 1 20 21
M  V30 21 2 21 22
M  V30 22 1 4 23
M  V30 23 2 23 24
M  V30 24 1 24 25
M  V30 25 2 25 26
M  V30 26 1 26 27
M  V30 27 2 27 28
M  V30 28 1 28 2
M  V30 29 1 21 5
M  V30 30 1 28 23
M  V30 31 1 17 7
M  V30 32 1 17 11
M  V30 33 1 1 29
M  V30 34 1 1 30
M  V30 35 1 1 31
M  V30 36 1 3 32
M  V30 37 1 8 33
M  V30 38 1 10 34
M  V30 39 1 10 35
M  V30 40 1 10 36
M  V30 41 1 12 37
M  V30 42 1 13 38
M  V30 43 1 16 39
M  V30 44 1 20 40
M  V30 45 1 24 41
M  V30 46 1 25 42
M  V30 47 1 26 43
M  V30 48 1 27 44
M  V30 END BOND
M  V30 END CTAB
M  END
>  <Dataset>  (63) 
ChEMBL_PKA

>  <Ligand_Instance>  (63) 
nan

>  <PDB_ID>  (63) 
nan

>  <Standardized_SMILES>  (63) 
Cn1cc(C2=C(c3cn(C)c4ccc(Cl)cc34)C(=O)NC2=O)c2ccccc21

>  <Name>  (63) 
nan

>  <Pocket>  (63) 
nan

>  <ATP_Site>  (63) 
nan

>  <Peripheral>  (63) 
nan

>  <Num_H_Atoms_ProtBoundConf>  (63) 
nan

>  <Num_Resolved_Atoms>  (63) 
nan

>  <Num_Not_Resolved_Atoms>  (63) 
nan

$$$$
CHEMBL52128
     RDKit          3D

  0  0  0  0  0  0  0  0  0  0999 V3000
M  V30 BEGIN CTAB
M  V30 COUNTS 46 50 0 0 0
M  V30 BEGIN ATOM
M  V30 1 C 1.279794 -3.517325 2.778304 0
M  V30 2 N 0.179937 -3.126094 1.929881 0
M  V30 3 C -0.325436 -1.872582 1.791848 0
M  V30 4 C -1.402157 -1.848508 0.893153 0
M  V30 5 C -2.054086 -0.588516 0.638211 0
M  V30 6 C -1.382145 0.514607 0.391617 0
M  V30 7 C 0.024230 0.870184 0.285259 0
M  V30 8 C 0.861238 0.133410 -0.528362 0
M  V30 9 N 2.131916 0.592116 -0.514222 0
M  V30 10 C 3.337126 0.154890 -1.207646 0
M  V30 11 C 2.067247 1.651657 0.342382 0
M  V30 12 C 3.054105 2.523236 0.767316 0
M  V30 13 C 2.676213 3.513375 1.663318 0
M  V30 14 N 3.726024 4.376077 2.060869 0
M  V30 15 C 1.409856 3.700339 2.162608 0
M  V30 16 C 0.449650 2.821243 1.722938 0
M  V30 17 C 0.819880 1.842674 0.837508 0
M  V30 18 C -2.335525 1.617973 0.175171 0
M  V30 19 O -2.181253 2.857933 -0.090951 0
M  V30 20 N -3.676963 1.100211 0.310700 0
M  V30 21 C -3.481648 -0.289102 0.601556 0
M  V30 22 O -4.452571 -1.099848 0.791764 0
M  V30 23 C -1.501249 -3.164175 0.509315 0
M  V30 24 C -2.444708 -3.637829 -0.394060 0
M  V30 25 C -2.377725 -5.008942 -0.654796 0
M  V30 26 C -1.434975 -5.842229 -0.056570 0
M  V30 27 C -0.526699 -5.301815 0.831886 0
M  V30 28 C -0.552446 -3.947630 1.125751 0
M  V30 29 H 0.836636 -3.715916 3.779521 0
M  V30 30 H 1.687544 -4.473485 2.411128 0
M  V30 31 H 2.102904 -2.785736 2.820313 0
M  V30 32 H 0.112121 -1.051861 2.344876 0
M  V30 33 H 0.653597 -0.746364 -1.161833 0
M  V30 34 H 3.920688 -0.599954 -0.642728 0
M  V30 35 H 3.982787 1.055037 -1.434128 0
M  V30 36 H 3.104508 -0.238177 -2.240625 0
M  V30 37 H 4.056227 2.396100 0.390860 0
M  V30 38 H 3.442711 5.384302 2.121712 0
M  V30 39 H 4.522651 4.926706 2.348096 0
M  V30 40 H 1.168981 4.493019 2.864677 0
M  V30 41 H -0.563961 2.925362 2.091010 0
M  V30 42 H -4.580559 1.645212 0.215032 0
M  V30 43 H -3.186455 -3.006640 -0.873660 0
M  V30 44 H -3.054788 -5.484469 -1.338165 0
M  V30 45 H -1.421347 -6.905316 -0.294571 0
M  V30 46 H 0.216420 -5.889621 1.321637 0
M  V30 END ATOM
M  V30 BEGIN BOND
M  V30 1 1 1 2
M  V30 2 1 2 3
M  V30 3 2 3 4
M  V30 4 1 4 5
M  V30 5 2 5 6
M  V30 6 1 6 7
M  V30 7 2 7 8
M  V30 8 1 8 9
M  V30 9 1 9 10
M  V30 10 1 9 11
M  V30 11 2 11 12
M  V30 12 1 12 13
M  V30 13 1 13 14
M  V30 14 2 13 15
M  V30 15 1 15 16
M  V30 16 2 16 17
M  V30 17 1 6 18
M  V30 18 2 18 19
M  V30 19 1 18 20
M  V30 20 1 20 21
M  V30 21 2 21 22
M  V30 22 1 4 23
M  V30 23 2 23 24
M  V30 24 1 24 25
M  V30 25 2 25 26
M  V30 26 1 26 27
M  V30 27 2 27 28
M  V30 28 1 28 2
M  V30 29 1 21 5
M  V30 30 1 28 23
M  V30 31 1 17 7
M  V30 32 1 17 11
M  V30 33 1 1 29
M  V30 34 1 1 30
M  V30 35 1 1 31
M  V30 36 1 3 32
M  V30 37 1 8 33
M  V30 38 1 10 34
M  V30 39 1 10 35
M  V30 40 1 10 36
M  V30 41 1 12 37
M  V30 42 1 14 38
M  V30 43 1 14 39
M  V30 44 1 15 40
M  V30 45 1 16 41
M  V30 46 1 20 42
M  V30 47 1 24 43
M  V30 48 1 25 44
M  V30 49 1 26 45
M  V30 50 1 27 46
M  V30 END BOND
M  V30 END CTAB
M  END
>  <Dataset>  (64) 
ChEMBL_PKA

>  <Ligand_Instance>  (64) 
nan

>  <PDB_ID>  (64) 
nan

>  <Standardized_SMILES>  (64) 
Cn1cc(C2=C(c3cn(C)c4cc(N)ccc34)C(=O)NC2=O)c2ccccc21

>  <Name>  (64) 
nan

>  <Pocket>  (64) 
nan

>  <ATP_Site>  (64) 
nan

>  <Peripheral>  (64) 
nan

>  <Num_H_Atoms_ProtBoundConf>  (64) 
nan

>  <Num_Resolved_Atoms>  (64) 
nan

>  <Num_Not_Resolved_Atoms>  (64) 
nan

$$$$
CHEMBL571948
     RDKit          3D

  0  0  0  0  0  0  0  0  0  0999 V3000
M  V30 BEGIN CTAB
M  V30 COUNTS 37 39 0 0 0
M  V30 BEGIN ATOM
M  V30 1 C 0.475349 -5.403850 3.218118 0
M  V30 2 C 1.699900 -4.679544 2.740790 0 CFG=1
M  V30 3 N 2.591501 -5.536309 1.994984 0
M  V30 4 C 1.392960 -3.464298 1.958261 0
M  V30 5 C 2.449419 -2.831809 1.334548 0
M  V30 6 C 2.132957 -1.683742 0.599963 0
M  V30 7 C 0.855527 -1.172096 0.474808 0
M  V30 8 C 0.665035 0.034726 -0.322660 0
M  V30 9 O 1.671042 0.536491 -0.847224 0
M  V30 10 N -0.625320 0.608107 -0.488170 0
M  V30 11 C -0.953643 1.774627 -1.233362 0
M  V30 12 C -1.299019 1.741037 -2.586718 0
M  V30 13 C -1.605138 2.915650 -3.242092 0
M  V30 14 N -1.577944 4.113753 -2.595420 0
M  V30 15 C -1.239773 4.121952 -1.281452 0
M  V30 16 N -1.151928 5.194507 -0.456489 0
M  V30 17 C -0.780616 4.727879 0.771366 0
M  V30 18 C -0.629313 3.350811 0.735423 0
M  V30 19 C -0.922466 2.992581 -0.562285 0
M  V30 20 C -0.133819 -1.863901 1.127445 0
M  V30 21 C 0.100518 -2.998728 1.867522 0
M  V30 22 H -0.268507 -5.592474 2.439551 0
M  V30 23 H 0.038650 -4.915816 4.118780 0
M  V30 24 H 0.816298 -6.404881 3.588409 0
M  V30 25 H 2.262861 -4.362000 3.649870 0
M  V30 26 H 2.378139 -6.534602 2.229593 0
M  V30 27 H 3.568277 -5.273984 2.159381 0
M  V30 28 H 3.473742 -3.182513 1.393869 0
M  V30 29 H 2.984664 -1.206417 0.119570 0
M  V30 30 H -1.477935 0.197745 -0.053856 0
M  V30 31 H -1.307295 0.765695 -3.059460 0
M  V30 32 H -1.865080 2.841224 -4.282848 0
M  V30 33 H -1.326510 6.220345 -0.669446 0
M  V30 34 H -0.622211 5.348471 1.665509 0
M  V30 35 H -0.346589 2.671154 1.523779 0
M  V30 36 H -1.140281 -1.486446 1.046520 0
M  V30 37 H -0.685803 -3.519769 2.366393 0
M  V30 END ATOM
M  V30 BEGIN BOND
M  V30 1 1 1 2
M  V30 2 1 2 3
M  V30 3 1 2 4
M  V30 4 2 4 5
M  V30 5 1 5 6
M  V30 6 2 6 7
M  V30 7 1 7 8
M  V30 8 2 8 9
M  V30 9 1 8 10
M  V30 10 1 10 11
M  V30 11 2 11 12
M  V30 12 1 12 13
M  V30 13 2 13 14
M  V30 14 1 14 15
M  V30 15 1 15 16
M  V30 16 1 16 17
M  V30 17 2 17 18
M  V30 18 1 18 19
M  V30 19 1 7 20
M  V30 20 2 20 21
M  V30 21 1 21 4
M  V30 22 1 19 11
M  V30 23 2 19 15
M  V30 24 1 1 22
M  V30 25 1 1 23
M  V30 26 1 1 24
M  V30 27 1 2 25 CFG=1
M  V30 28 1 3 26
M  V30 29 1 3 27
M  V30 30 1 5 28
M  V30 31 1 6 29
M  V30 32 1 10 30
M  V30 33 1 12 31
M  V30 34 1 13 32
M  V30 35 1 16 33
M  V30 36 1 17 34
M  V30 37 1 18 35
M  V30 38 1 20 36
M  V30 39 1 21 37
M  V30 END BOND
M  V30 END CTAB
M  END
>  <Dataset>  (65) 
ChEMBL_PKA

>  <Ligand_Instance>  (65) 
nan

>  <PDB_ID>  (65) 
nan

>  <Standardized_SMILES>  (65) 
C[C@@H](N)c1ccc(C(=O)Nc2ccnc3[nH]ccc23)cc1

>  <Name>  (65) 
Y-39983

>  <Pocket>  (65) 
nan

>  <ATP_Site>  (65) 
nan

>  <Peripheral>  (65) 
nan

>  <Num_H_Atoms_ProtBoundConf>  (65) 
nan

>  <Num_Resolved_Atoms>  (65) 
nan

>  <Num_Not_Resolved_Atoms>  (65) 
nan

$$$$
CHEMBL573578
     RDKit          3D

  0  0  0  0  0  0  0  0  0  0999 V3000
M  V30 BEGIN CTAB
M  V30 COUNTS 46 49 0 0 0
M  V30 BEGIN ATOM
M  V30 1 C 0.965410 -4.126353 1.477048 0
M  V30 2 C -0.413806 -3.778142 1.009373 0
M  V30 3 C -1.338403 -3.788412 2.214473 0
M  V30 4 C -0.923298 -4.836445 0.053747 0
M  V30 5 N -0.431493 -2.476947 0.329771 0
M  V30 6 N 0.600984 -1.723363 0.185461 0
M  V30 7 C 0.314576 -0.566966 -0.482381 0
M  V30 8 C 1.244596 0.518087 -0.800745 0
M  V30 9 C 1.250605 1.691088 0.055346 0
M  V30 10 C 0.677657 2.917725 -0.215413 0
M  V30 11 C 0.659633 4.035611 0.587163 0
M  V30 12 C 1.277047 3.966290 1.816951 0
M  V30 13 C 1.880232 2.781615 2.176681 0
M  V30 14 C 2.498011 2.766341 3.407089 0
M  V30 15 C 3.139804 1.624059 3.833241 0
M  V30 16 C 3.156320 0.508992 3.021526 0
M  V30 17 C 2.514069 0.607924 1.806107 0
M  V30 18 C 1.851822 1.708836 1.311647 0
M  V30 19 C -1.029495 -0.719019 -0.726093 0
M  V30 20 C -1.960801 0.048010 -1.360214 0
M  V30 21 N -1.585155 1.262340 -1.932284 0
M  V30 22 N -3.241676 -0.324155 -1.482509 0
M  V30 23 C -3.680339 -1.511245 -0.968423 0
M  V30 24 N -2.804848 -2.303288 -0.336750 0
M  V30 25 C -1.520913 -1.923434 -0.218140 0
M  V30 26 H 1.098183 -5.226383 1.417093 0
M  V30 27 H 1.743456 -3.701948 0.800534 0
M  V30 28 H 1.127974 -3.801551 2.524078 0
M  V30 29 H -1.337570 -4.850284 2.564796 0
M  V30 30 H -0.962680 -3.180441 3.054096 0
M  V30 31 H -2.381877 -3.563103 1.926213 0
M  V30 32 H -1.345333 -5.681376 0.650773 0
M  V30 33 H -0.104440 -5.163854 -0.612132 0
M  V30 34 H -1.751605 -4.448282 -0.570513 0
M  V30 35 H 2.304043 0.125696 -0.797996 0
M  V30 36 H 1.129869 0.863877 -1.876292 0
M  V30 37 H 0.184887 3.094115 -1.158031 0
M  V30 38 H 0.191438 4.967168 0.315902 0
M  V30 39 H 1.284954 4.819895 2.475439 0
M  V30 40 H 2.490405 3.631121 4.047137 0
M  V30 41 H 3.612644 1.650270 4.804778 0
M  V30 42 H 3.657532 -0.361826 3.368318 0
M  V30 43 H 2.587595 -0.293280 1.221973 0
M  V30 44 H -1.096730 1.628909 -2.784347 0
M  V30 45 H -1.944994 1.961245 -1.216959 0
M  V30 46 H -4.699992 -1.875584 -1.029631 0
M  V30 END ATOM
M  V30 BEGIN BOND
M  V30 1 1 1 2
M  V30 2 1 2 3
M  V30 3 1 2 4
M  V30 4 1 2 5
M  V30 5 1 5 6
M  V30 6 2 6 7
M  V30 7 1 7 8
M  V30 8 1 8 9
M  V30 9 2 9 10
M  V30 10 1 10 11
M  V30 11 2 11 12
M  V30 12 1 12 13
M  V30 13 2 13 14
M  V30 14 1 14 15
M  V30 15 2 15 16
M  V30 16 1 16 17
M  V30 17 2 17 18
M  V30 18 1 7 19
M  V30 19 2 19 20
M  V30 20 1 20 21
M  V30 21 1 20 22
M  V30 22 2 22 23
M  V30 23 1 23 24
M  V30 24 2 24 25
M  V30 25 1 25 5
M  V30 26 1 18 9
M  V30 27 1 25 19
M  V30 28 1 18 13
M  V30 29 1 1 26
M  V30 30 1 1 27
M  V30 31 1 1 28
M  V30 32 1 3 29
M  V30 33 1 3 30
M  V30 34 1 3 31
M  V30 35 1 4 32
M  V30 36 1 4 33
M  V30 37 1 4 34
M  V30 38 1 8 35
M  V30 39 1 8 36
M  V30 40 1 10 37
M  V30 41 1 11 38
M  V30 42 1 12 39
M  V30 43 1 14 40
M  V30 44 1 15 41
M  V30 45 1 16 42
M  V30 46 1 17 43
M  V30 47 1 21 44
M  V30 48 1 21 45
M  V30 49 1 23 46
M  V30 END BOND
M  V30 END CTAB
M  END
>  <Dataset>  (66) 
ChEMBL_PKA

>  <Ligand_Instance>  (66) 
nan

>  <PDB_ID>  (66) 
nan

>  <Standardized_SMILES>  (66) 
CC(C)(C)n1nc(Cc2cccc3ccccc23)c2c(N)ncnc21

>  <Name>  (66) 
nan

>  <Pocket>  (66) 
nan

>  <ATP_Site>  (66) 
nan

>  <Peripheral>  (66) 
nan

>  <Num_H_Atoms_ProtBoundConf>  (66) 
nan

>  <Num_Resolved_Atoms>  (66) 
nan

>  <Num_Not_Resolved_Atoms>  (66) 
nan

$$$$
CHEMBL574738
     RDKit          3D

  0  0  0  0  0  0  0  0  0  0999 V3000
M  V30 BEGIN CTAB
M  V30 COUNTS 68 71 0 0 0
M  V30 BEGIN ATOM
M  V30 1 C 5.350402 -1.590842 4.774064 0
M  V30 2 C 5.114366 -1.734209 3.311127 0
M  V30 3 N 4.917206 -0.545831 2.555046 0
M  V30 4 C 4.713274 -0.979539 1.160395 0
M  V30 5 C 4.197144 0.138961 0.312505 0
M  V30 6 N 4.536329 1.432594 0.873216 0
M  V30 7 C 4.473018 2.478653 -0.161588 0
M  V30 8 C 3.108958 2.559598 -0.741534 0
M  V30 9 C 2.808160 2.031538 -1.988069 0
M  V30 10 C 1.530337 2.108000 -2.516065 0
M  V30 11 C 0.539965 2.727358 -1.774225 0
M  V30 12 N -0.839206 2.874904 -2.205099 0
M  V30 13 C -1.729355 1.800873 -1.829461 0
M  V30 14 O -1.169006 0.864323 -1.165242 0
M  V30 15 N -3.117711 1.654243 -2.097102 0
M  V30 16 C -3.736248 0.472707 -1.591114 0
M  V30 17 C -3.818218 -0.703535 -2.313172 0
M  V30 18 C -4.401868 -1.838028 -1.843344 0
M  V30 19 C -4.956740 -1.865178 -0.581866 0
M  V30 20 O -5.595245 -2.866406 0.118066 0
M  V30 21 C -5.813562 -4.133916 -0.382913 0
M  V30 22 C -6.480287 -4.929744 0.559169 0
M  V30 23 C -6.814042 -6.241052 0.297784 0
M  V30 24 N -7.483253 -7.073253 1.221803 0
M  V30 25 C -7.870383 -6.613690 2.531169 0
M  V30 26 N -6.467628 -6.724098 -0.911993 0
M  V30 27 C -5.828168 -5.991689 -1.840731 0
M  V30 28 N -5.528818 -4.737889 -1.543711 0
M  V30 29 C -4.884220 -0.698508 0.154204 0
M  V30 30 C -4.287420 0.461824 -0.326090 0
M  V30 31 C 0.847382 3.257926 -0.519783 0
M  V30 32 C 2.137051 3.189055 0.030201 0
M  V30 33 C 2.330273 3.785739 1.356143 0
M  V30 34 F 1.152510 4.340439 1.861931 0
M  V30 35 F 3.167798 4.879229 1.183059 0
M  V30 36 F 2.947430 2.985362 2.276753 0
M  V30 37 C 5.861998 1.336514 1.400020 0
M  V30 38 C 5.946591 0.414952 2.575387 0
M  V30 39 H 5.051462 -0.640659 5.220912 0
M  V30 40 H 6.438349 -1.760214 5.018285 0
M  V30 41 H 4.812277 -2.393476 5.335770 0
M  V30 42 H 5.965473 -2.310358 2.875585 0
M  V30 43 H 4.225815 -2.385823 3.140799 0
M  V30 44 H 5.688240 -1.307897 0.746479 0
M  V30 45 H 4.040416 -1.852633 1.104797 0
M  V30 46 H 3.097061 0.061228 0.097770 0
M  V30 47 H 4.687670 0.071142 -0.677159 0
M  V30 48 H 4.881727 3.417985 0.201165 0
M  V30 49 H 5.139673 2.118991 -0.974842 0
M  V30 50 H 3.578388 1.545410 -2.572936 0
M  V30 51 H 1.235940 1.715995 -3.479167 0
M  V30 52 H -1.340964 3.629497 -2.753691 0
M  V30 53 H -3.508144 2.455734 -2.644621 0
M  V30 54 H -3.391646 -0.722132 -3.313693 0
M  V30 55 H -4.492582 -2.780061 -2.363696 0
M  V30 56 H -6.792423 -4.605886 1.559656 0
M  V30 57 H -7.714521 -8.045185 0.976725 0
M  V30 58 H -8.097826 -7.466416 3.211321 0
M  V30 59 H -7.010458 -6.054539 2.974390 0
M  V30 60 H -8.744569 -5.933040 2.480750 0
M  V30 61 H -5.532970 -6.340309 -2.820987 0
M  V30 62 H -5.271079 -0.549612 1.164094 0
M  V30 63 H -4.216505 1.388166 0.227598 0
M  V30 64 H 0.049800 3.748724 0.059551 0
M  V30 65 H 6.290447 2.312192 1.704566 0
M  V30 66 H 6.500496 0.913175 0.598458 0
M  V30 67 H 5.785108 1.044419 3.499267 0
M  V30 68 H 6.969306 0.017333 2.718686 0
M  V30 END ATOM
M  V30 BEGIN BOND
M  V30 1 1 1 2
M  V30 2 1 2 3
M  V30 3 1 3 4
M  V30 4 1 4 5
M  V30 5 1 5 6
M  V30 6 1 6 7
M  V30 7 1 7 8
M  V30 8 2 8 9
M  V30 9 1 9 10
M  V30 10 2 10 11
M  V30 11 1 11 12
M  V30 12 1 12 13
M  V30 13 2 13 14
M  V30 14 1 13 15
M  V30 15 1 15 16
M  V30 16 2 16 17
M  V30 17 1 17 18
M  V30 18 2 18 19
M  V30 19 1 19 20
M  V30 20 1 20 21
M  V30 21 2 21 22
M  V30 22 1 22 23
M  V30 23 1 23 24
M  V30 24 1 24 25
M  V30 25 2 23 26
M  V30 26 1 26 27
M  V30 27 2 27 28
M  V30 28 1 19 29
M  V30 29 2 29 30
M  V30 30 1 11 31
M  V30 31 2 31 32
M  V30 32 1 32 33
M  V30 33 1 33 34
M  V30 34 1 33 35
M  V30 35 1 33 36
M  V30 36 1 6 37
M  V30 37 1 37 38
M  V30 38 1 38 3
M  V30 39 1 32 8
M  V30 40 1 30 16
M  V30 41 1 28 21
M  V30 42 1 1 39
M  V30 43 1 1 40
M  V30 44 1 1 41
M  V30 45 1 2 42
M  V30 46 1 2 43
M  V30 47 1 4 44
M  V30 48 1 4 45
M  V30 49 1 5 46
M  V30 50 1 5 47
M  V30 51 1 7 48
M  V30 52 1 7 49
M  V30 53 1 9 50
M  V30 54 1 10 51
M  V30 55 1 12 52
M  V30 56 1 15 53
M  V30 57 1 17 54
M  V30 58 1 18 55
M  V30 59 1 22 56
M  V30 60 1 24 57
M  V30 61 1 25 58
M  V30 62 1 25 59
M  V30 63 1 25 60
M  V30 64 1 27 61
M  V30 65 1 29 62
M  V30 66 1 30 63
M  V30 67 1 31 64
M  V30 68 1 37 65
M  V30 69 1 37 66
M  V30 70 1 38 67
M  V30 71 1 38 68
M  V30 END BOND
M  V30 END CTAB
M  END
>  <Dataset>  (67) 
ChEMBL_PKA

>  <Ligand_Instance>  (67) 
nan

>  <PDB_ID>  (67) 
nan

>  <Standardized_SMILES>  (67) 
CCN1CCN(Cc2ccc(NC(=O)Nc3ccc(Oc4cc(NC)ncn4)cc3)cc2C(F)(F)F)CC1

>  <Name>  (67) 
AST-487

>  <Pocket>  (67) 
nan

>  <ATP_Site>  (67) 
nan

>  <Peripheral>  (67) 
nan

>  <Num_H_Atoms_ProtBoundConf>  (67) 
nan

>  <Num_Resolved_Atoms>  (67) 
nan

>  <Num_Not_Resolved_Atoms>  (67) 
nan

$$$$
CHEMBL60254
     RDKit          3D

  0  0  0  0  0  0  0  0  0  0999 V3000
M  V30 BEGIN CTAB
M  V30 COUNTS 66 69 0 0 0
M  V30 BEGIN ATOM
M  V30 1 O 1.289651 3.910689 1.621275 0
M  V30 2 C 2.358811 3.632706 2.189612 0
M  V30 3 N 2.434534 2.274393 2.595353 0
M  V30 4 C 1.575231 1.133879 2.510911 0 CFG=2
M  V30 5 C 1.074066 0.587064 3.796578 0
M  V30 6 N 0.717806 -0.808179 3.592317 0
M  V30 7 C 1.768907 -1.725892 3.946626 0
M  V30 8 C 2.708135 -2.013354 2.819507 0
M  V30 9 C 3.190509 -0.760606 2.106849 0
M  V30 10 C 2.091696 0.077460 1.553205 0 CFG=1
M  V30 11 O 0.967439 -0.670006 1.155071 0
M  V30 12 C 0.469074 -0.702961 -0.119871 0
M  V30 13 O 1.128969 0.013679 -0.904442 0
M  V30 14 C -0.692560 -1.475108 -0.537353 0
M  V30 15 C -1.334214 -2.222084 0.403322 0
M  V30 16 C -2.452284 -2.982893 0.055242 0
M  V30 17 O -3.036054 -3.710286 1.086746 0
M  V30 18 C -2.925718 -2.994690 -1.234897 0
M  V30 19 C -4.124203 -3.708419 -1.579586 0
M  V30 20 O -4.789533 -3.814687 -0.482125 0
M  V30 21 C -4.830913 -4.316587 -2.641729 0
M  V30 22 C -6.217247 -4.287179 -2.533437 0
M  V30 23 O -6.914136 -3.682649 -1.465146 0
M  V30 24 C -7.095453 -4.849827 -3.464996 0
M  V30 25 C -6.496438 -5.459798 -4.538735 0
M  V30 26 C -5.148225 -5.541671 -4.729782 0
M  V30 27 C -4.364273 -4.962378 -3.760964 0
M  V30 28 C -2.917620 -5.210606 -3.907267 0
M  V30 29 O -1.862139 -5.030805 -3.256263 0
M  V30 30 O -2.343597 -5.805061 -5.007446 0
M  V30 31 C -2.204142 -2.195364 -2.134604 0
M  V30 32 O -2.579348 -2.104338 -3.481877 0
M  V30 33 C -1.098900 -1.427990 -1.849569 0
M  V30 34 C 3.489760 4.505893 2.471859 0
M  V30 35 C 4.677819 4.196552 3.104179 0
M  V30 36 C 5.639305 5.171272 3.279695 0
M  V30 37 C 5.422093 6.462420 2.825163 0
M  V30 38 O 6.489056 7.311902 3.083718 0
M  V30 39 C 4.250540 6.768865 2.201236 0
M  V30 40 C 3.279175 5.806831 2.017861 0
M  V30 41 H 3.244066 1.828297 3.089197 0
M  V30 42 H 0.670403 1.522650 1.983522 0
M  V30 43 H 1.746380 0.615470 4.648769 0
M  V30 44 H 0.130244 1.078028 4.165572 0
M  V30 45 H -0.195508 -1.070955 4.027313 0
M  V30 46 H 2.304246 -1.435226 4.856735 0
M  V30 47 H 1.250634 -2.700173 4.171129 0
M  V30 48 H 2.280275 -2.710661 2.060851 0
M  V30 49 H 3.627546 -2.486496 3.253225 0
M  V30 50 H 3.769886 -1.151577 1.231867 0
M  V30 51 H 3.886177 -0.168251 2.699404 0
M  V30 52 H 2.481982 0.615600 0.657875 0
M  V30 53 H -0.980124 -2.228587 1.419780 0
M  V30 54 H -3.543357 -3.254876 1.833834 0
M  V30 55 H -7.669012 -3.029837 -1.629873 0
M  V30 56 H -8.169831 -4.825018 -3.378403 0
M  V30 57 H -7.130454 -5.904643 -5.283004 0
M  V30 58 H -4.743033 -6.031543 -5.589053 0
M  V30 59 H -1.637707 -6.536345 -5.001350 0
M  V30 60 H -3.026899 -1.292620 -3.862708 0
M  V30 61 H -0.570292 -0.830316 -2.557422 0
M  V30 62 H 4.750435 3.158805 3.422324 0
M  V30 63 H 6.523298 4.812087 3.785616 0
M  V30 64 H 6.401848 8.102556 3.732799 0
M  V30 65 H 4.178968 7.803049 1.884498 0
M  V30 66 H 2.381034 6.156092 1.508510 0
M  V30 END ATOM
M  V30 BEGIN BOND
M  V30 1 2 1 2
M  V30 2 1 2 3
M  V30 3 1 3 4
M  V30 4 1 4 5
M  V30 5 1 5 6
M  V30 6 1 6 7
M  V30 7 1 7 8
M  V30 8 1 8 9
M  V30 9 1 9 10
M  V30 10 1 10 11
M  V30 11 1 11 12
M  V30 12 2 12 13
M  V30 13 1 12 14
M  V30 14 2 14 15
M  V30 15 1 15 16
M  V30 16 1 16 17
M  V30 17 2 16 18
M  V30 18 1 18 19
M  V30 19 2 19 20
M  V30 20 1 19 21
M  V30 21 2 21 22
M  V30 22 1 22 23
M  V30 23 1 22 24
M  V30 24 2 24 25
M  V30 25 1 25 26
M  V30 26 2 26 27
M  V30 27 1 27 28
M  V30 28 2 28 29
M  V30 29 1 28 30
M  V30 30 1 18 31
M  V30 31 1 31 32
M  V30 32 2 31 33
M  V30 33 1 2 34
M  V30 34 2 34 35
M  V30 35 1 35 36
M  V30 36 2 36 37
M  V30 37 1 37 38
M  V30 38 1 37 39
M  V30 39 2 39 40
M  V30 40 1 10 4
M  V30 41 1 33 14
M  V30 42 1 40 34
M  V30 43 1 27 21
M  V30 44 1 3 41
M  V30 45 1 4 42 CFG=3
M  V30 46 1 5 43
M  V30 47 1 5 44
M  V30 48 1 6 45
M  V30 49 1 7 46
M  V30 50 1 7 47
M  V30 51 1 8 48
M  V30 52 1 8 49
M  V30 53 1 9 50
M  V30 54 1 9 51
M  V30 55 1 10 52 CFG=3
M  V30 56 1 15 53
M  V30 57 1 17 54
M  V30 58 1 23 55
M  V30 59 1 24 56
M  V30 60 1 25 57
M  V30 61 1 26 58
M  V30 62 1 30 59
M  V30 63 1 32 60
M  V30 64 1 33 61
M  V30 65 1 35 62
M  V30 66 1 36 63
M  V30 67 1 38 64
M  V30 68 1 39 65
M  V30 69 1 40 66
M  V30 END BOND
M  V30 END CTAB
M  END
>  <Dataset>  (68) 
ChEMBL_PKA

>  <Ligand_Instance>  (68) 
nan

>  <PDB_ID>  (68) 
nan

>  <Standardized_SMILES>  (68) 
O=C(N[C@@H]1CNCCC[C@H]1OC(=O)c1cc(O)c(C(=O)c2c(O)cccc2C(=O)O)c(O)c1)c1ccc(O)cc1

>  <Name>  (68) 
BALANOL

>  <Pocket>  (68) 
nan

>  <ATP_Site>  (68) 
nan

>  <Peripheral>  (68) 
nan

>  <Num_H_Atoms_ProtBoundConf>  (68) 
nan

>  <Num_Resolved_Atoms>  (68) 
nan

>  <Num_Not_Resolved_Atoms>  (68) 
nan

$$$$
CHEMBL608533
     RDKit          3D

  0  0  0  0  0  0  0  0  0  0999 V3000
M  V30 BEGIN CTAB
M  V30 COUNTS 73 81 0 0 0
M  V30 BEGIN ATOM
M  V30 1 C 2.778830 0.726575 2.813078 0
M  V30 2 O 2.026058 0.364794 1.716622 0
M  V30 3 C 0.998187 1.211210 1.395933 0 CFG=2
M  V30 4 C -0.324786 0.579550 1.771156 0 CFG=2
M  V30 5 N -0.268758 -0.817645 1.439798 0
M  V30 6 C -0.238433 -1.878479 0.462894 0
M  V30 7 C -0.231843 -1.282248 2.816834 0
M  V30 8 O -0.236830 -0.892198 4.013667 0
M  V30 9 C -0.160207 -2.711330 3.197495 0
M  V30 10 C 1.146067 -3.163497 2.982857 0
M  V30 11 C 1.499572 -4.485685 3.261843 0
M  V30 12 C 0.536649 -5.338427 3.753218 0
M  V30 13 C -0.737032 -4.894103 3.961280 0
M  V30 14 C -1.117008 -3.595051 3.695612 0
M  V30 15 C -1.498650 1.341544 1.314493 0
M  V30 16 C -1.268924 2.393412 0.263272 0 CFG=1
M  V30 17 O -0.041836 2.701642 -0.070348 0
M  V30 18 C 1.037859 1.822979 0.036171 0 CFG=1
M  V30 19 C 2.162337 2.827554 0.124464 0
M  V30 20 N 1.071846 0.910042 -1.063270 0
M  V30 21 C 2.042190 0.203496 -1.638609 0
M  V30 22 C 3.361766 0.075387 -1.279232 0
M  V30 23 C 4.282523 -0.692437 -1.952974 0
M  V30 24 C 3.879452 -1.404080 -3.085160 0
M  V30 25 C 2.555646 -1.268275 -3.434867 0
M  V30 26 C 1.645610 -0.503169 -2.761985 0
M  V30 27 C 0.306086 -0.215173 -2.897625 0
M  V30 28 C -0.629335 -0.609578 -3.829395 0
M  V30 29 C -1.928976 -0.166345 -3.755947 0
M  V30 30 C -2.274453 0.670027 -2.739175 0
M  V30 31 C -3.467702 1.237739 -2.404537 0
M  V30 32 C -4.755982 1.302329 -2.838070 0
M  V30 33 C -5.793067 2.000390 -2.260623 0
M  V30 34 C -5.485387 2.722000 -1.099755 0
M  V30 35 C -4.177503 2.692674 -0.607406 0
M  V30 36 C -3.209187 1.961415 -1.261021 0
M  V30 37 N -1.922511 1.825720 -0.939088 0
M  V30 38 C -1.309757 1.034636 -1.836303 0
M  V30 39 C 0.004773 0.617215 -1.877497 0
M  V30 40 C -2.656821 -0.726865 -4.841650 0
M  V30 41 O -3.818269 -0.683626 -5.266695 0
M  V30 42 N -1.773026 -1.536760 -5.601086 0
M  V30 43 C -0.459507 -1.508492 -5.004122 0
M  V30 44 H 3.285735 1.693105 2.767436 0
M  V30 45 H 3.575490 -0.032682 2.967784 0
M  V30 46 H 2.171884 0.665957 3.765209 0
M  V30 47 H 1.085643 2.071064 2.137052 0
M  V30 48 H -0.323074 0.595145 2.901841 0
M  V30 49 H 0.681967 -1.883476 -0.171243 0
M  V30 50 H -0.255705 -2.881865 0.930012 0
M  V30 51 H -1.165740 -1.866965 -0.176907 0
M  V30 52 H 1.997054 -2.619352 2.607275 0
M  V30 53 H 2.468563 -4.922011 3.130476 0
M  V30 54 H 0.708452 -6.378056 3.999722 0
M  V30 55 H -1.585107 -5.479711 4.347202 0
M  V30 56 H -2.053966 -3.068842 3.793124 0
M  V30 57 H -2.003131 1.888416 2.169094 0
M  V30 58 H -2.281307 0.598092 1.030574 0
M  V30 59 H -1.835803 3.326503 0.459714 0
M  V30 60 H 2.233663 3.507572 -0.738303 0
M  V30 61 H 1.791985 3.566810 0.918861 0
M  V30 62 H 3.080773 2.517958 0.591577 0
M  V30 63 H 3.707159 0.603057 -0.410521 0
M  V30 64 H 5.326154 -0.795333 -1.671576 0
M  V30 65 H 4.535664 -2.030981 -3.670865 0
M  V30 66 H 2.158449 -1.793995 -4.310026 0
M  V30 67 H -5.022405 0.767244 -3.714646 0
M  V30 68 H -6.792913 1.997355 -2.674062 0
M  V30 69 H -6.256691 3.290930 -0.597090 0
M  V30 70 H -3.936613 3.247467 0.287636 0
M  V30 71 H -1.877368 -2.118523 -6.457086 0
M  V30 72 H -0.093305 -2.510437 -4.723145 0
M  V30 73 H 0.221341 -1.008308 -5.727931 0
M  V30 END ATOM
M  V30 BEGIN BOND
M  V30 1 1 1 2
M  V30 2 1 2 3
M  V30 3 1 3 4
M  V30 4 1 4 5
M  V30 5 1 5 6
M  V30 6 1 5 7
M  V30 7 2 7 8
M  V30 8 1 7 9
M  V30 9 2 9 10
M  V30 10 1 10 11
M  V30 11 2 11 12
M  V30 12 1 12 13
M  V30 13 2 13 14
M  V30 14 1 4 15
M  V30 15 1 15 16
M  V30 16 1 16 17
M  V30 17 1 17 18
M  V30 18 1 18 19 CFG=1
M  V30 19 1 18 20
M  V30 20 1 20 21
M  V30 21 2 21 22
M  V30 22 1 22 23
M  V30 23 2 23 24
M  V30 24 1 24 25
M  V30 25 2 25 26
M  V30 26 1 26 27
M  V30 27 2 27 28
M  V30 28 1 28 29
M  V30 29 2 29 30
M  V30 30 1 30 31
M  V30 31 2 31 32
M  V30 32 1 32 33
M  V30 33 2 33 34
M  V30 34 1 34 35
M  V30 35 2 35 36
M  V30 36 1 36 37
M  V30 37 1 37 38
M  V30 38 2 38 39
M  V30 39 1 29 40
M  V30 40 2 40 41
M  V30 41 1 40 42
M  V30 42 1 42 43
M  V30 43 1 18 3
M  V30 44 1 39 20
M  V30 45 1 14 9
M  V30 46 1 37 16
M  V30 47 1 26 21
M  V30 48 1 39 27
M  V30 49 1 43 28
M  V30 50 1 38 30
M  V30 51 1 36 31
M  V30 52 1 1 44
M  V30 53 1 1 45
M  V30 54 1 1 46
M  V30 55 1 3 47 CFG=1
M  V30 56 1 4 48 CFG=1
M  V30 57 1 6 49
M  V30 58 1 6 50
M  V30 59 1 6 51
M  V30 60 1 10 52
M  V30 61 1 11 53
M  V30 62 1 12 54
M  V30 63 1 13 55
M  V30 64 1 14 56
M  V30 65 1 15 57
M  V30 66 1 15 58
M  V30 67 1 16 59 CFG=1
M  V30 68 1 19 60
M  V30 69 1 19 61
M  V30 70 1 19 62
M  V30 71 1 22 63
M  V30 72 1 23 64
M  V30 73 1 24 65
M  V30 74 1 25 66
M  V30 75 1 32 67
M  V30 76 1 33 68
M  V30 77 1 34 69
M  V30 78 1 35 70
M  V30 79 1 42 71
M  V30 80 1 43 72
M  V30 81 1 43 73
M  V30 END BOND
M  V30 END CTAB
M  END
>  <Dataset>  (69) 
ChEMBL_PKA

>  <Ligand_Instance>  (69) 
nan

>  <PDB_ID>  (69) 
nan

>  <Standardized_SMILES>  (69) 
CO[C@@H]1[C@H](N(C)C(=O)c2ccccc2)C[C@H]2O[C@]1(C)n1c3ccccc3c3c4c(c5c6ccccc6n2c5c31)C(=O)NC4

>  <Name>  (69) 
MIDOSTAURIN

>  <Pocket>  (69) 
nan

>  <ATP_Site>  (69) 
nan

>  <Peripheral>  (69) 
nan

>  <Num_H_Atoms_ProtBoundConf>  (69) 
nan

>  <Num_Resolved_Atoms>  (69) 
nan

>  <Num_Not_Resolved_Atoms>  (69) 
nan

$$$$
CHEMBL67166
     RDKit          3D

  0  0  0  0  0  0  0  0  0  0999 V3000
M  V30 BEGIN CTAB
M  V30 COUNTS 58 57 0 0 0
M  V30 BEGIN ATOM
M  V30 1 C -0.812194 -2.090082 3.648781 0
M  V30 2 C -0.953453 -3.142915 2.605333 0
M  V30 3 C 0.255138 -3.919100 2.249514 0
M  V30 4 C 1.358642 -3.157459 1.639908 0
M  V30 5 C 1.970207 -2.029829 2.405768 0
M  V30 6 C 3.136115 -1.512347 1.519938 0
M  V30 7 C 3.830797 -0.365683 2.096257 0
M  V30 8 C 3.225811 0.971981 2.226428 0
M  V30 9 C 2.944259 1.765041 1.028658 0
M  V30 10 C 2.019401 1.485358 -0.039086 0
M  V30 11 C 0.564149 1.479577 0.110912 0
M  V30 12 C -0.153387 0.609461 1.027456 0
M  V30 13 C -1.657484 0.899570 0.912273 0
M  V30 14 C -2.057151 0.613780 -0.486144 0
M  V30 15 C -2.990819 -0.330281 -0.727773 0
M  V30 16 C -3.590235 -0.837777 -1.965453 0 CFG=1
M  V30 17 O -4.883172 -0.314274 -2.178247 0
M  V30 18 C -2.823882 -0.591855 -3.220727 0 CFG=1
M  V30 19 N -2.687768 0.782108 -3.604584 0
M  V30 20 C -1.489463 -1.289849 -3.290553 0
M  V30 21 O -1.609718 -2.637752 -2.916080 0
M  V30 22 H -1.636365 -2.253152 4.413861 0
M  V30 23 H -0.907934 -1.052899 3.278922 0
M  V30 24 H 0.113457 -2.276941 4.231978 0
M  V30 25 H -1.781548 -3.840339 2.924284 0
M  V30 26 H -1.315678 -2.657859 1.655855 0
M  V30 27 H 0.607107 -4.564127 3.109690 0
M  V30 28 H -0.094679 -4.700174 1.495806 0
M  V30 29 H 1.064559 -2.790584 0.602704 0
M  V30 30 H 2.211690 -3.868217 1.377748 0
M  V30 31 H 1.280748 -1.219735 2.542929 0
M  V30 32 H 2.431031 -2.392452 3.357998 0
M  V30 33 H 3.841575 -2.400536 1.457829 0
M  V30 34 H 2.697612 -1.442521 0.532465 0
M  V30 35 H 4.856893 -0.274163 1.618921 0
M  V30 36 H 4.126481 -0.691604 3.159965 0
M  V30 37 H 2.358909 0.927653 2.953437 0
M  V30 38 H 3.970163 1.585912 2.838308 0
M  V30 39 H 3.985059 1.881525 0.518452 0
M  V30 40 H 2.847038 2.855480 1.407323 0
M  V30 41 H 2.214726 2.291719 -0.848770 0
M  V30 42 H 2.406692 0.578277 -0.617251 0
M  V30 43 H 0.142256 1.280997 -0.934891 0
M  V30 44 H 0.163953 2.538519 0.284725 0
M  V30 45 H 0.092512 0.751930 2.103152 0
M  V30 46 H -0.110712 -0.475990 0.816521 0
M  V30 47 H -1.871761 1.951894 1.167222 0
M  V30 48 H -2.144246 0.176094 1.580684 0
M  V30 49 H -1.759501 1.018791 -1.441408 0
M  V30 50 H -3.406962 -0.838909 0.166898 0
M  V30 51 H -3.733822 -1.952643 -1.903546 0
M  V30 52 H -5.385530 -0.410809 -1.352867 0
M  V30 53 H -3.436804 -1.070191 -4.046673 0
M  V30 54 H -3.459479 1.105285 -4.255927 0
M  V30 55 H -1.791797 0.867366 -4.171924 0
M  V30 56 H -1.134934 -1.317301 -4.341277 0
M  V30 57 H -0.787526 -0.828269 -2.602489 0
M  V30 58 H -2.504371 -2.917554 -3.235970 0
M  V30 END ATOM
M  V30 BEGIN BOND
M  V30 1 1 1 2
M  V30 2 1 2 3
M  V30 3 1 3 4
M  V30 4 1 4 5
M  V30 5 1 5 6
M  V30 6 1 6 7
M  V30 7 1 7 8
M  V30 8 1 8 9
M  V30 9 1 9 10
M  V30 10 1 10 11
M  V30 11 1 11 12
M  V30 12 1 12 13
M  V30 13 1 13 14
M  V30 14 2 14 15
M  V30 15 1 15 16
M  V30 16 1 16 17
M  V30 17 1 16 18
M  V30 18 1 18 19
M  V30 19 1 18 20
M  V30 20 1 20 21
M  V30 21 1 1 22
M  V30 22 1 1 23
M  V30 23 1 1 24
M  V30 24 1 2 25
M  V30 25 1 2 26
M  V30 26 1 3 27
M  V30 27 1 3 28
M  V30 28 1 4 29
M  V30 29 1 4 30
M  V30 30 1 5 31
M  V30 31 1 5 32
M  V30 32 1 6 33
M  V30 33 1 6 34
M  V30 34 1 7 35
M  V30 35 1 7 36
M  V30 36 1 8 37
M  V30 37 1 8 38
M  V30 38 1 9 39
M  V30 39 1 9 40
M  V30 40 1 10 41
M  V30 41 1 10 42
M  V30 42 1 11 43
M  V30 43 1 11 44
M  V30 44 1 12 45
M  V30 45 1 12 46
M  V30 46 1 13 47
M  V30 47 1 13 48
M  V30 48 1 14 49
M  V30 49 1 15 50
M  V30 50 1 16 51 CFG=1
M  V30 51 1 17 52
M  V30 52 1 18 53 CFG=3
M  V30 53 1 19 54
M  V30 54 1 19 55
M  V30 55 1 20 56
M  V30 56 1 20 57
M  V30 57 1 21 58
M  V30 END BOND
M  V30 END CTAB
M  END
>  <Dataset>  (70) 
ChEMBL_PKA

>  <Ligand_Instance>  (70) 
nan

>  <PDB_ID>  (70) 
nan

>  <Standardized_SMILES>  (70) 
CCCCCCCCCCCCC/C=C/[C@@H](O)[C@@H](N)CO

>  <Name>  (70) 
SPHINGOSINE

>  <Pocket>  (70) 
nan

>  <ATP_Site>  (70) 
nan

>  <Peripheral>  (70) 
nan

>  <Num_H_Atoms_ProtBoundConf>  (70) 
nan

>  <Num_Resolved_Atoms>  (70) 
nan

>  <Num_Not_Resolved_Atoms>  (70) 
nan

$$$$
CHEMBL91829
     RDKit          3D

  0  0  0  0  0  0  0  0  0  0999 V3000
M  V30 BEGIN CTAB
M  V30 COUNTS 63 68 0 0 0
M  V30 BEGIN ATOM
M  V30 1 C 0.641485 -0.872690 5.662512 0
M  V30 2 N 0.944046 0.164180 4.754638 0
M  V30 3 C 2.273107 0.619207 4.676136 0
M  V30 4 C 0.026862 0.486212 3.740435 0
M  V30 5 C -0.169493 -0.559069 2.660619 0 CFG=2
M  V30 6 C 1.075445 -0.964808 1.961094 0
M  V30 7 C 1.797309 0.097593 1.209384 0
M  V30 8 N 0.994420 0.668740 0.133426 0
M  V30 9 C 0.816984 -0.144819 -0.922390 0
M  V30 10 C 0.040993 0.518284 -1.845478 0
M  V30 11 C -0.269844 1.760514 -1.363390 0
M  V30 12 C -1.006754 2.838815 -1.852877 0
M  V30 13 C -1.136278 3.987340 -1.103988 0
M  V30 14 C -0.502691 4.004512 0.138485 0
M  V30 15 C 0.229664 2.949485 0.639080 0
M  V30 16 C 0.343898 1.816963 -0.125153 0
M  V30 17 C -0.383371 -0.031291 -3.126414 0
M  V30 18 C -0.916392 -1.239064 -3.216942 0
M  V30 19 C -1.288044 -1.641470 -4.566119 0
M  V30 20 O -1.803374 -2.715692 -4.928875 0
M  V30 21 N -0.906543 -0.487519 -5.348278 0
M  V30 22 C -0.344650 0.521429 -4.480065 0
M  V30 23 O 0.101922 1.659930 -4.774531 0
M  V30 24 C -1.071540 -2.022779 -1.972267 0
M  V30 25 C -1.680650 -1.507417 -0.842413 0
M  V30 26 N -1.647120 -2.453747 0.087521 0
M  V30 27 C -1.046387 -3.535893 -0.409370 0
M  V30 28 C -0.759557 -4.785262 0.142225 0
M  V30 29 C -0.114801 -5.721367 -0.635675 0
M  V30 30 C 0.263056 -5.488283 -1.933811 0
M  V30 31 C -0.006590 -4.248122 -2.523387 0
M  V30 32 C -0.653603 -3.316078 -1.735016 0
M  V30 33 C -2.194756 -2.261431 1.415939 0
M  V30 34 C -2.296731 -0.803608 1.739737 0
M  V30 35 O -1.122573 -0.101991 1.736262 0
M  V30 36 H 0.894970 -1.887893 5.337184 0
M  V30 37 H 1.247668 -0.693327 6.590195 0
M  V30 38 H -0.414551 -0.769483 5.986003 0
M  V30 39 H 2.989715 -0.147690 4.313560 0
M  V30 40 H 2.328437 1.578170 4.139296 0
M  V30 41 H 2.620332 0.845194 5.721720 0
M  V30 42 H -0.990451 0.577821 4.228410 0
M  V30 43 H 0.240552 1.490604 3.362294 0
M  V30 44 H -0.611032 -1.434609 3.165977 0
M  V30 45 H 1.779952 -1.446257 2.670757 0
M  V30 46 H 0.806380 -1.758934 1.237262 0
M  V30 47 H 2.223069 0.888423 1.823090 0
M  V30 48 H 2.668053 -0.401136 0.711121 0
M  V30 49 H 1.168301 -1.147207 -1.124938 0
M  V30 50 H -1.483540 2.784791 -2.823137 0
M  V30 51 H -1.700556 4.842918 -1.452336 0
M  V30 52 H -0.622722 4.923509 0.706270 0
M  V30 53 H 0.691299 3.022492 1.591947 0
M  V30 54 H -1.019124 -0.397154 -6.381365 0
M  V30 55 H -2.080612 -0.503932 -0.818151 0
M  V30 56 H -1.025667 -5.041118 1.155995 0
M  V30 57 H 0.110662 -6.691686 -0.213909 0
M  V30 58 H 0.772787 -6.204585 -2.573443 0
M  V30 59 H 0.267368 -4.007276 -3.542378 0
M  V30 60 H -1.673977 -2.852027 2.171290 0
M  V30 61 H -3.246488 -2.671187 1.346261 0
M  V30 62 H -2.854735 -0.732435 2.699545 0
M  V30 63 H -2.969008 -0.289356 1.000719 0
M  V30 END ATOM
M  V30 BEGIN BOND
M  V30 1 1 1 2
M  V30 2 1 2 3
M  V30 3 1 2 4
M  V30 4 1 4 5
M  V30 5 1 5 6
M  V30 6 1 6 7
M  V30 7 1 7 8
M  V30 8 1 8 9
M  V30 9 2 9 10
M  V30 10 1 10 11
M  V30 11 2 11 12
M  V30 12 1 12 13
M  V30 13 2 13 14
M  V30 14 1 14 15
M  V30 15 2 15 16
M  V30 16 1 10 17
M  V30 17 2 17 18
M  V30 18 1 18 19
M  V30 19 2 19 20
M  V30 20 1 19 21
M  V30 21 1 21 22
M  V30 22 2 22 23
M  V30 23 1 18 24
M  V30 24 2 24 25
M  V30 25 1 25 26
M  V30 26 1 26 27
M  V30 27 2 27 28
M  V30 28 1 28 29
M  V30 29 2 29 30
M  V30 30 1 30 31
M  V30 31 2 31 32
M  V30 32 1 26 33
M  V30 33 1 33 34
M  V30 34 1 34 35
M  V30 35 1 35 5
M  V30 36 1 16 8
M  V30 37 1 22 17
M  V30 38 1 32 24
M  V30 39 1 16 11
M  V30 40 1 32 27
M  V30 41 1 1 36
M  V30 42 1 1 37
M  V30 43 1 1 38
M  V30 44 1 3 39
M  V30 45 1 3 40
M  V30 46 1 3 41
M  V30 47 1 4 42
M  V30 48 1 4 43
M  V30 49 1 5 44 CFG=1
M  V30 50 1 6 45
M  V30 51 1 6 46
M  V30 52 1 7 47
M  V30 53 1 7 48
M  V30 54 1 9 49
M  V30 55 1 12 50
M  V30 56 1 13 51
M  V30 57 1 14 52
M  V30 58 1 15 53
M  V30 59 1 21 54
M  V30 60 1 25 55
M  V30 61 1 28 56
M  V30 62 1 29 57
M  V30 63 1 30 58
M  V30 64 1 31 59
M  V30 65 1 33 60
M  V30 66 1 33 61
M  V30 67 1 34 62
M  V30 68 1 34 63
M  V30 END BOND
M  V30 END CTAB
M  END
>  <Dataset>  (71) 
ChEMBL_PKA

>  <Ligand_Instance>  (71) 
nan

>  <PDB_ID>  (71) 
nan

>  <Standardized_SMILES>  (71) 
CN(C)C[C@@H]1CCn2cc(c3ccccc32)C2=C(C(=O)NC2=O)c2cn(c3ccccc23)CCO1

>  <Name>  (71) 
RUBOXISTAURIN

>  <Pocket>  (71) 
nan

>  <ATP_Site>  (71) 
nan

>  <Peripheral>  (71) 
nan

>  <Num_H_Atoms_ProtBoundConf>  (71) 
nan

>  <Num_Resolved_Atoms>  (71) 
nan

>  <Num_Not_Resolved_Atoms>  (71) 
nan

$$$$
