CHEMBL4850233
     RDKit          3D

  0  0  0  0  0  0  0  0  0  0999 V3000
M  V30 BEGIN CTAB
M  V30 COUNTS 48 52 0 0 0
M  V30 BEGIN ATOM
M  V30 1 C 0.761229 -1.529721 -0.598440 0
M  V30 2 C 0.820917 -0.423024 0.397418 0
M  V30 3 C 1.814797 -0.065102 1.292379 0
M  V30 4 C 3.007060 -0.873010 1.282638 0
M  V30 5 O 2.736180 -2.035074 1.753977 0
M  V30 6 N 4.362488 -0.971467 0.981768 0
M  V30 7 C 5.043959 -2.212989 1.251980 0
M  V30 8 C 5.725476 -2.768100 0.023014 0
M  V30 9 O 6.412190 -1.801842 -0.691186 0
M  V30 10 C 5.689401 -0.646479 -0.939039 0
M  V30 11 C 5.332566 -0.043817 0.404350 0
M  V30 12 O 1.401077 1.001794 1.981408 0
M  V30 13 C 0.209964 1.319142 1.559555 0
M  V30 14 C -0.634694 2.328096 1.950167 0
M  V30 15 C -1.869540 2.472790 1.365850 0
M  V30 16 C -2.320584 1.633884 0.372688 0
M  V30 17 N -3.589509 1.639504 -0.297520 0
M  V30 18 C -4.399942 1.073948 0.756734 0
M  V30 19 N -5.009183 1.866489 1.686144 0
M  V30 20 C -5.757168 1.261356 2.663727 0
M  V30 21 N -5.902800 -0.096747 2.729876 0
M  V30 22 C -5.298043 -0.868190 1.809592 0
M  V30 23 C -5.513072 -2.250310 1.956605 0
M  V30 24 C -4.908812 -3.071497 1.016831 0
M  V30 25 C -4.143402 -2.467649 0.011514 0
M  V30 26 Cl -3.295521 -3.347020 -1.270963 0
M  V30 27 N -4.006238 -1.156903 -0.034444 0
M  V30 28 C -4.540456 -0.317380 0.809310 0
M  V30 29 C -1.461686 0.635454 -0.006606 0
M  V30 30 C -0.222217 0.471147 0.566657 0
M  V30 31 H 0.056327 -2.287964 -0.198450 0
M  V30 32 H 1.784890 -1.865442 -0.754895 0
M  V30 33 H 0.351420 -1.170478 -1.554684 0
M  V30 34 H 4.345767 -2.969381 1.599311 0
M  V30 35 H 5.768742 -2.037951 2.079741 0
M  V30 36 H 5.025724 -3.316059 -0.646745 0
M  V30 37 H 6.475070 -3.503107 0.373305 0
M  V30 38 H 6.375326 0.060483 -1.446858 0
M  V30 39 H 4.747281 -0.811831 -1.495302 0
M  V30 40 H 4.895653 0.973860 0.292431 0
M  V30 41 H 6.225967 -0.053718 1.036229 0
M  V30 42 H -0.386666 3.047814 2.722372 0
M  V30 43 H -2.555487 3.257276 1.650618 0
M  V30 44 H -3.818056 1.965405 -1.277153 0
M  V30 45 H -6.282612 1.792458 3.441585 0
M  V30 46 H -6.089290 -2.751809 2.716520 0
M  V30 47 H -4.958564 -4.170144 0.954343 0
M  V30 48 H -1.661904 -0.083906 -0.783629 0
M  V30 END ATOM
M  V30 BEGIN BOND
M  V30 1 1 1 2
M  V30 2 2 2 3
M  V30 3 1 3 4
M  V30 4 2 4 5
M  V30 5 1 4 6
M  V30 6 1 6 7
M  V30 7 1 7 8
M  V30 8 1 8 9
M  V30 9 1 9 10
M  V30 10 1 10 11
M  V30 11 1 3 12
M  V30 12 1 12 13
M  V30 13 2 13 14
M  V30 14 1 14 15
M  V30 15 2 15 16
M  V30 16 1 16 17
M  V30 17 1 17 18
M  V30 18 2 18 19
M  V30 19 1 19 20
M  V30 20 2 20 21
M  V30 21 1 21 22
M  V30 22 2 22 23
M  V30 23 1 23 24
M  V30 24 2 24 25
M  V30 25 1 25 26
M  V30 26 1 25 27
M  V30 27 2 27 28
M  V30 28 1 16 29
M  V30 29 2 29 30
M  V30 30 1 30 2
M  V30 31 1 11 6
M  V30 32 1 30 13
M  V30 33 1 28 18
M  V30 34 1 28 22
M  V30 35 1 1 31
M  V30 36 1 1 32
M  V30 37 1 1 33
M  V30 38 1 7 34
M  V30 39 1 7 35
M  V30 40 1 8 36
M  V30 41 1 8 37
M  V30 42 1 10 38
M  V30 43 1 10 39
M  V30 44 1 11 40
M  V30 45 1 11 41
M  V30 46 1 14 42
M  V30 47 1 15 43
M  V30 48 1 17 44
M  V30 49 1 20 45
M  V30 50 1 23 46
M  V30 51 1 24 47
M  V30 52 1 29 48
M  V30 END BOND
M  V30 END CTAB
M  END
>  <Dataset>  (1) 
ChEMBL_Kinases

>  <Ligand_Instance>  (1) 
nan

>  <PDB_ID>  (1) 
nan

>  <Standardized_SMILES>  (1) 
Cc1c(C(=O)N2CCOCC2)oc2ccc(Nc3ncnc4ccc(Cl)nc34)cc12

>  <Name>  (1) 
nan

>  <Pocket>  (1) 
nan

>  <ATP_Site>  (1) 
nan

>  <Peripheral>  (1) 
nan

>  <Num_H_Atoms_ProtBoundConf>  (1) 
nan

>  <Num_Resolved_Atoms>  (1) 
nan

>  <Num_Not_Resolved_Atoms>  (1) 
nan

$$$$
CHEMBL4850251
     RDKit          3D

  0  0  0  0  0  0  0  0  0  0999 V3000
M  V30 BEGIN CTAB
M  V30 COUNTS 48 50 0 0 0
M  V30 BEGIN ATOM
M  V30 1 C 5.551504 -3.934013 -3.240289 0
M  V30 2 N 5.617614 -3.587904 -1.836111 0
M  V30 3 C 6.611200 -3.829232 -0.791772 0
M  V30 4 C 4.480177 -2.862288 -1.373169 0
M  V30 5 C 4.419164 -1.473206 -1.414140 0
M  V30 6 C 3.238066 -0.957143 -0.921086 0
M  V30 7 O 3.083977 0.433106 -0.921382 0
M  V30 8 C 1.933452 1.043170 -0.445335 0
M  V30 9 C 2.008859 1.339077 0.912323 0
M  V30 10 C 0.932955 1.950453 1.527014 0
M  V30 11 C -0.182222 2.244551 0.760213 0
M  V30 12 N -1.287338 2.882464 1.438265 0
M  V30 13 C -2.259269 1.993377 2.010671 0
M  V30 14 O -2.014741 0.758077 1.842840 0
M  V30 15 N -3.436677 2.302972 2.726798 0
M  V30 16 C -4.236485 1.194452 3.192026 0
M  V30 17 C -4.001340 0.650653 4.438278 0
M  V30 18 C -4.726772 -0.406254 4.940629 0
M  V30 19 C -5.705608 -0.874451 4.095610 0
M  V30 20 C -5.999959 -0.385759 2.840921 0
M  V30 21 C -7.083767 -0.967498 2.005774 0
M  V30 22 F -8.019549 -1.578653 2.786193 0
M  V30 23 F -6.583700 -1.938047 1.143176 0
M  V30 24 F -7.626686 0.048246 1.213541 0
M  V30 25 C -5.236437 0.677533 2.390255 0
M  V30 26 C -0.285560 1.962663 -0.589129 0
M  V30 27 C 0.801160 1.351939 -1.182165 0
M  V30 28 N 2.239805 -1.736550 -0.445016 0
M  V30 29 C 2.369270 -3.094147 -0.435615 0
M  V30 30 N 3.505277 -3.676998 -0.905659 0
M  V30 31 H 6.505614 -4.342295 -3.594006 0
M  V30 32 H 5.275315 -2.982323 -3.781383 0
M  V30 33 H 4.692833 -4.609305 -3.397103 0
M  V30 34 H 7.500750 -4.284695 -1.260834 0
M  V30 35 H 6.187273 -4.572725 -0.075023 0
M  V30 36 H 6.870998 -2.876945 -0.305057 0
M  V30 37 H 5.239676 -0.906427 -1.801693 0
M  V30 38 H 2.861146 1.126281 1.547930 0
M  V30 39 H 0.952073 2.196861 2.580403 0
M  V30 40 H -1.527566 3.905260 1.600232 0
M  V30 41 H -3.593114 3.346747 2.837895 0
M  V30 42 H -3.203472 1.073220 5.061385 0
M  V30 43 H -4.576086 -0.861080 5.908258 0
M  V30 44 H -6.325518 -1.716246 4.427480 0
M  V30 45 H -5.422466 1.106866 1.405485 0
M  V30 46 H -1.151685 2.193782 -1.173109 0
M  V30 47 H 0.851902 1.079462 -2.219339 0
M  V30 48 H 1.499980 -3.574240 -0.030455 0
M  V30 END ATOM
M  V30 BEGIN BOND
M  V30 1 1 1 2
M  V30 2 1 2 3
M  V30 3 1 2 4
M  V30 4 2 4 5
M  V30 5 1 5 6
M  V30 6 1 6 7
M  V30 7 1 7 8
M  V30 8 2 8 9
M  V30 9 1 9 10
M  V30 10 2 10 11
M  V30 11 1 11 12
M  V30 12 1 12 13
M  V30 13 2 13 14
M  V30 14 1 13 15
M  V30 15 1 15 16
M  V30 16 2 16 17
M  V30 17 1 17 18
M  V30 18 2 18 19
M  V30 19 1 19 20
M  V30 20 1 20 21
M  V30 21 1 21 22
M  V30 22 1 21 23
M  V30 23 1 21 24
M  V30 24 2 20 25
M  V30 25 1 11 26
M  V30 26 2 26 27
M  V30 27 2 6 28
M  V30 28 1 28 29
M  V30 29 2 29 30
M  V30 30 1 30 4
M  V30 31 1 27 8
M  V30 32 1 25 16
M  V30 33 1 1 31
M  V30 34 1 1 32
M  V30 35 1 1 33
M  V30 36 1 3 34
M  V30 37 1 3 35
M  V30 38 1 3 36
M  V30 39 1 5 37
M  V30 40 1 9 38
M  V30 41 1 10 39
M  V30 42 1 12 40
M  V30 43 1 15 41
M  V30 44 1 17 42
M  V30 45 1 18 43
M  V30 46 1 19 44
M  V30 47 1 25 45
M  V30 48 1 26 46
M  V30 49 1 27 47
M  V30 50 1 29 48
M  V30 END BOND
M  V30 END CTAB
M  END
>  <Dataset>  (2) 
ChEMBL_Kinases

>  <Ligand_Instance>  (2) 
nan

>  <PDB_ID>  (2) 
nan

>  <Standardized_SMILES>  (2) 
CN(C)c1cc(Oc2ccc(NC(=O)Nc3cccc(C(F)(F)F)c3)cc2)ncn1

>  <Name>  (2) 
nan

>  <Pocket>  (2) 
nan

>  <ATP_Site>  (2) 
nan

>  <Peripheral>  (2) 
nan

>  <Num_H_Atoms_ProtBoundConf>  (2) 
nan

>  <Num_Resolved_Atoms>  (2) 
nan

>  <Num_Not_Resolved_Atoms>  (2) 
nan

$$$$
CHEMBL485026
     RDKit          3D

  0  0  0  0  0  0  0  0  0  0999 V3000
M  V30 BEGIN CTAB
M  V30 COUNTS 52 55 0 0 0
M  V30 BEGIN ATOM
M  V30 1 C 3.966345 -2.233818 4.009115 0
M  V30 2 C 3.218439 -1.943680 2.724266 0
M  V30 3 S 3.847791 -2.909838 1.384443 0
M  V30 4 O 3.725258 -4.352291 1.793378 0
M  V30 5 O 5.325788 -2.642918 1.268608 0
M  V30 6 N 3.122935 -2.700769 -0.096721 0
M  V30 7 C 3.167101 -1.421479 -0.713811 0
M  V30 8 C 1.789686 -1.141741 -1.335889 0
M  V30 9 C 0.784032 -1.504919 -0.258632 0
M  V30 10 O -0.416674 -0.830915 -0.385293 0
M  V30 11 C -0.872584 0.042158 0.578071 0
M  V30 12 C -0.408649 0.497046 1.793068 0
M  V30 13 C -1.143966 1.402422 2.525359 0
M  V30 14 C -0.555040 1.772696 3.728088 0
M  V30 15 N -1.247257 2.669488 4.489415 0
M  V30 16 C -2.437167 3.164224 4.088901 0
M  V30 17 C -3.037951 2.809294 2.899277 0
M  V30 18 C -2.360203 1.903962 2.109047 0
M  V30 19 C -2.841841 1.456746 0.888620 0
M  V30 20 C -2.108458 0.530015 0.119315 0
M  V30 21 C -2.820747 0.223053 -1.105869 0
M  V30 22 C -3.423386 1.181030 -1.921488 0
M  V30 23 C -4.078626 0.764574 -3.072901 0
M  V30 24 C -4.148730 -0.572757 -3.430655 0
M  V30 25 C -3.552728 -1.527941 -2.625288 0
M  V30 26 C -2.919733 -1.090780 -1.506729 0
M  V30 27 C 0.668471 -3.005332 -0.207491 0
M  V30 28 C 2.053490 -3.548290 -0.478317 0
M  V30 29 H 4.719492 -3.049517 3.832536 0
M  V30 30 H 3.301984 -2.507257 4.827915 0
M  V30 31 H 4.523074 -1.319134 4.317625 0
M  V30 32 H 3.250198 -0.850704 2.519601 0
M  V30 33 H 2.150851 -2.173368 2.922632 0
M  V30 34 H 3.319118 -0.639085 0.057309 0
M  V30 35 H 3.924405 -1.312647 -1.499002 0
M  V30 36 H 1.741902 -0.085301 -1.634525 0
M  V30 37 H 1.686422 -1.790901 -2.228558 0
M  V30 38 H 1.248219 -1.221851 0.706445 0
M  V30 39 H 0.527072 0.063984 2.035946 0
M  V30 40 H 0.394716 1.400247 4.084246 0
M  V30 41 H -2.957251 3.884467 4.736395 0
M  V30 42 H -3.990821 3.194469 2.560711 0
M  V30 43 H -3.796931 1.889571 0.625274 0
M  V30 44 H -3.334275 2.205858 -1.589114 0
M  V30 45 H -4.529217 1.572509 -3.665805 0
M  V30 46 H -4.690628 -0.763819 -4.355157 0
M  V30 47 H -3.642921 -2.544590 -2.957975 0
M  V30 48 H -2.460823 -1.848385 -0.890069 0
M  V30 49 H 0.432873 -3.324439 0.849529 0
M  V30 50 H -0.086980 -3.417192 -0.882993 0
M  V30 51 H 2.225624 -4.552467 -0.054945 0
M  V30 52 H 2.112639 -3.696230 -1.594218 0
M  V30 END ATOM
M  V30 BEGIN BOND
M  V30 1 1 1 2
M  V30 2 1 2 3
M  V30 3 2 3 4
M  V30 4 2 3 5
M  V30 5 1 3 6
M  V30 6 1 6 7
M  V30 7 1 7 8
M  V30 8 1 8 9
M  V30 9 1 9 10
M  V30 10 1 10 11
M  V30 11 2 11 12
M  V30 12 1 12 13
M  V30 13 2 13 14
M  V30 14 1 14 15
M  V30 15 2 15 16
M  V30 16 1 16 17
M  V30 17 2 17 18
M  V30 18 1 18 19
M  V30 19 2 19 20
M  V30 20 1 20 21
M  V30 21 2 21 22
M  V30 22 1 22 23
M  V30 23 2 23 24
M  V30 24 1 24 25
M  V30 25 2 25 26
M  V30 26 1 9 27
M  V30 27 1 27 28
M  V30 28 1 28 6
M  V30 29 1 20 11
M  V30 30 1 26 21
M  V30 31 1 18 13
M  V30 32 1 1 29
M  V30 33 1 1 30
M  V30 34 1 1 31
M  V30 35 1 2 32
M  V30 36 1 2 33
M  V30 37 1 7 34
M  V30 38 1 7 35
M  V30 39 1 8 36
M  V30 40 1 8 37
M  V30 41 1 9 38
M  V30 42 1 12 39
M  V30 43 1 14 40
M  V30 44 1 16 41
M  V30 45 1 17 42
M  V30 46 1 19 43
M  V30 47 1 22 44
M  V30 48 1 23 45
M  V30 49 1 24 46
M  V30 50 1 25 47
M  V30 51 1 26 48
M  V30 52 1 27 49
M  V30 53 1 27 50
M  V30 54 1 28 51
M  V30 55 1 28 52
M  V30 END BOND
M  V30 END CTAB
M  END
>  <Dataset>  (3) 
ChEMBL_Kinases

>  <Ligand_Instance>  (3) 
nan

>  <PDB_ID>  (3) 
nan

>  <Standardized_SMILES>  (3) 
CCS(=O)(=O)N1CCC(Oc2cc3cnccc3cc2-c2ccccc2)CC1

>  <Name>  (3) 
nan

>  <Pocket>  (3) 
nan

>  <ATP_Site>  (3) 
nan

>  <Peripheral>  (3) 
nan

>  <Num_H_Atoms_ProtBoundConf>  (3) 
nan

>  <Num_Resolved_Atoms>  (3) 
nan

>  <Num_Not_Resolved_Atoms>  (3) 
nan

$$$$
CHEMBL4850319
     RDKit          3D

  0  0  0  0  0  0  0  0  0  0999 V3000
M  V30 BEGIN CTAB
M  V30 COUNTS 41 43 0 0 0
M  V30 BEGIN ATOM
M  V30 1 C -1.397766 -4.894467 -0.264524 0
M  V30 2 O -2.130290 -4.032773 0.616504 0
M  V30 3 C -1.537945 -2.909464 1.165722 0
M  V30 4 C -0.236346 -2.501848 0.944542 0
M  V30 5 C 0.255197 -1.354527 1.549205 0
M  V30 6 N 1.610149 -0.953038 1.304152 0
M  V30 7 C 1.779679 -0.081166 0.178505 0
M  V30 8 O 0.620154 0.111208 -0.326205 0
M  V30 9 C 3.109797 0.412795 -0.194938 0 CFG=2
M  V30 10 N 4.096516 -0.133590 0.728800 0
M  V30 11 C 3.210642 1.865811 -0.325979 0
M  V30 12 C 2.158420 2.755721 -0.294450 0
M  V30 13 C 2.286195 4.121617 -0.422771 0
M  V30 14 C 3.542543 4.665876 -0.596033 0
M  V30 15 C 4.623497 3.790478 -0.631661 0
M  V30 16 C 4.458912 2.423604 -0.499596 0
M  V30 17 C -0.507044 -0.567140 2.389577 0
M  V30 18 C -1.807097 -0.974943 2.610061 0
M  V30 19 C -2.298240 -2.122181 2.005271 0
M  V30 20 C -3.682789 -2.502354 2.278346 0
M  V30 21 C -4.591945 -1.848621 3.083615 0
M  V30 22 N -5.771017 -2.513878 3.079551 0
M  V30 23 C -5.565789 -3.575769 2.264192 0
M  V30 24 O -4.327759 -3.548259 1.803546 0
M  V30 25 H -0.706251 -5.555663 0.296148 0
M  V30 26 H -2.086359 -5.536000 -0.848565 0
M  V30 27 H -0.788296 -4.232912 -0.936272 0
M  V30 28 H 0.370645 -3.096987 0.297252 0
M  V30 29 H 2.428197 -1.272133 1.904705 0
M  V30 30 H 3.336055 -0.050473 -1.201135 0
M  V30 31 H 4.215457 -1.162176 0.581962 0
M  V30 32 H 4.981592 0.398116 0.757819 0
M  V30 33 H 1.175179 2.370671 -0.161735 0
M  V30 34 H 1.422604 4.770883 -0.390129 0
M  V30 35 H 3.638408 5.730557 -0.695368 0
M  V30 36 H 5.576554 4.307710 -0.772063 0
M  V30 37 H 5.400352 1.896838 -0.551425 0
M  V30 38 H -0.094084 0.313176 2.839862 0
M  V30 39 H -2.441389 -0.377332 3.269803 0
M  V30 40 H -4.412989 -0.940624 3.643544 0
M  V30 41 H -6.360513 -4.292796 2.075243 0
M  V30 END ATOM
M  V30 BEGIN BOND
M  V30 1 1 1 2
M  V30 2 1 2 3
M  V30 3 2 3 4
M  V30 4 1 4 5
M  V30 5 1 5 6
M  V30 6 1 6 7
M  V30 7 2 7 8
M  V30 8 1 7 9
M  V30 9 1 9 10
M  V30 10 1 9 11
M  V30 11 2 11 12
M  V30 12 1 12 13
M  V30 13 2 13 14
M  V30 14 1 14 15
M  V30 15 2 15 16
M  V30 16 2 5 17
M  V30 17 1 17 18
M  V30 18 2 18 19
M  V30 19 1 19 20
M  V30 20 2 20 21
M  V30 21 1 21 22
M  V30 22 2 22 23
M  V30 23 1 23 24
M  V30 24 1 19 3
M  V30 25 1 24 20
M  V30 26 1 16 11
M  V30 27 1 1 25
M  V30 28 1 1 26
M  V30 29 1 1 27
M  V30 30 1 4 28
M  V30 31 1 6 29
M  V30 32 1 9 30 CFG=3
M  V30 33 1 10 31
M  V30 34 1 10 32
M  V30 35 1 12 33
M  V30 36 1 13 34
M  V30 37 1 14 35
M  V30 38 1 15 36
M  V30 39 1 16 37
M  V30 40 1 17 38
M  V30 41 1 18 39
M  V30 42 1 21 40
M  V30 43 1 23 41
M  V30 END BOND
M  V30 END CTAB
M  END
>  <Dataset>  (4) 
ChEMBL_Kinases

>  <Ligand_Instance>  (4) 
nan

>  <PDB_ID>  (4) 
nan

>  <Standardized_SMILES>  (4) 
COc1cc(NC(=O)[C@H](N)c2ccccc2)ccc1-c1cnco1

>  <Name>  (4) 
nan

>  <Pocket>  (4) 
nan

>  <ATP_Site>  (4) 
nan

>  <Peripheral>  (4) 
nan

>  <Num_H_Atoms_ProtBoundConf>  (4) 
nan

>  <Num_Resolved_Atoms>  (4) 
nan

>  <Num_Not_Resolved_Atoms>  (4) 
nan

$$$$
CHEMBL4850326
     RDKit          3D

  0  0  0  0  0  0  0  0  0  0999 V3000
M  V30 BEGIN CTAB
M  V30 COUNTS 42 45 0 0 0
M  V30 BEGIN ATOM
M  V30 1 C 0.378490 -6.342353 2.432407 0
M  V30 2 O 1.348275 -6.268494 1.395615 0
M  V30 3 C 1.384081 -5.111037 0.629873 0
M  V30 4 C 0.495808 -4.088808 0.892911 0
M  V30 5 C 0.581026 -2.964599 0.097703 0
M  V30 6 C 1.469124 -2.770224 -0.930844 0
M  V30 7 N 1.575665 -1.629417 -1.730108 0
M  V30 8 C 1.175529 -0.283026 -1.540305 0
M  V30 9 C 0.965804 0.593989 -2.584632 0
M  V30 10 N 0.601786 1.873163 -2.408821 0
M  V30 11 C 0.405428 2.426995 -1.198324 0
M  V30 12 O 0.065930 3.627219 -1.099849 0
M  V30 13 C 0.596954 1.609731 -0.102041 0
M  V30 14 C 0.393055 2.175816 1.230065 0
M  V30 15 C 1.529747 2.733386 1.782929 0
M  V30 16 C 1.408134 3.293128 3.054715 0
M  V30 17 C 0.172802 3.264073 3.693499 0
M  V30 18 C -0.956637 2.703188 3.129395 0
M  V30 19 N -2.237060 2.554932 3.537639 0
M  V30 20 C -2.885961 1.919926 2.541495 0
M  V30 21 C -2.046110 1.646260 1.476722 0
M  V30 22 C -0.829420 2.156868 1.883268 0
M  V30 23 C 0.971601 0.296488 -0.304188 0
M  V30 24 C 2.329533 -3.825743 -1.144895 0
M  V30 25 C 2.300411 -4.976003 -0.390874 0
M  V30 26 H 0.409612 -7.297003 2.969375 0
M  V30 27 H -0.623482 -6.204068 1.940539 0
M  V30 28 H 0.487266 -5.465627 3.119385 0
M  V30 29 H -0.210545 -4.196984 1.682294 0
M  V30 30 H -0.135805 -2.209799 0.336508 0
M  V30 31 H 2.045525 -1.759003 -2.678277 0
M  V30 32 H 1.105490 0.220186 -3.609755 0
M  V30 33 H 0.467468 2.458364 -3.271350 0
M  V30 34 H 2.489998 2.758153 1.291083 0
M  V30 35 H 2.240624 3.760345 3.586105 0
M  V30 36 H 0.094240 3.703739 4.682829 0
M  V30 37 H -2.638513 2.872341 4.447553 0
M  V30 38 H -3.949370 1.644739 2.553811 0
M  V30 39 H -2.291440 1.149232 0.547981 0
M  V30 40 H 1.105920 -0.253273 0.604702 0
M  V30 41 H 3.091189 -3.800426 -1.938668 0
M  V30 42 H 2.982723 -5.788919 -0.575754 0
M  V30 END ATOM
M  V30 BEGIN BOND
M  V30 1 1 1 2
M  V30 2 1 2 3
M  V30 3 2 3 4
M  V30 4 1 4 5
M  V30 5 2 5 6
M  V30 6 1 6 7
M  V30 7 1 7 8
M  V30 8 2 8 9
M  V30 9 1 9 10
M  V30 10 1 10 11
M  V30 11 2 11 12
M  V30 12 1 11 13
M  V30 13 1 13 14
M  V30 14 2 14 15
M  V30 15 1 15 16
M  V30 16 2 16 17
M  V30 17 1 17 18
M  V30 18 1 18 19
M  V30 19 1 19 20
M  V30 20 2 20 21
M  V30 21 1 21 22
M  V30 22 2 13 23
M  V30 23 1 6 24
M  V30 24 2 24 25
M  V30 25 1 25 3
M  V30 26 1 23 8
M  V30 27 1 22 14
M  V30 28 2 22 18
M  V30 29 1 1 26
M  V30 30 1 1 27
M  V30 31 1 1 28
M  V30 32 1 4 29
M  V30 33 1 5 30
M  V30 34 1 7 31
M  V30 35 1 9 32
M  V30 36 1 10 33
M  V30 37 1 15 34
M  V30 38 1 16 35
M  V30 39 1 17 36
M  V30 40 1 19 37
M  V30 41 1 20 38
M  V30 42 1 21 39
M  V30 43 1 23 40
M  V30 44 1 24 41
M  V30 45 1 25 42
M  V30 END BOND
M  V30 END CTAB
M  END
>  <Dataset>  (5) 
ChEMBL_Kinases

>  <Ligand_Instance>  (5) 
nan

>  <PDB_ID>  (5) 
nan

>  <Standardized_SMILES>  (5) 
COc1ccc(Nc2c[nH]c(=O)c(-c3cccc4[nH]ccc34)c2)cc1

>  <Name>  (5) 
nan

>  <Pocket>  (5) 
nan

>  <ATP_Site>  (5) 
nan

>  <Peripheral>  (5) 
nan

>  <Num_H_Atoms_ProtBoundConf>  (5) 
nan

>  <Num_Resolved_Atoms>  (5) 
nan

>  <Num_Not_Resolved_Atoms>  (5) 
nan

$$$$
CHEMBL4850342
     RDKit          3D

  0  0  0  0  0  0  0  0  0  0999 V3000
M  V30 BEGIN CTAB
M  V30 COUNTS 51 53 0 0 0
M  V30 BEGIN ATOM
M  V30 1 N 1.967426 -4.266211 4.482448 0
M  V30 2 C 1.935122 -3.516859 3.595769 0
M  V30 3 C 1.896376 -2.595568 2.479684 0
M  V30 4 C 2.969958 -2.655018 1.642888 0
M  V30 5 N 2.979962 -1.817666 0.608696 0
M  V30 6 C 2.003891 -0.943780 0.361367 0
M  V30 7 N 2.161706 -0.111627 -0.783148 0
M  V30 8 C 1.564640 0.853751 -1.632244 0
M  V30 9 C 2.355667 2.096686 -1.657781 0
M  V30 10 C 3.286946 2.243251 -2.692660 0
M  V30 11 N 4.140776 3.262449 -2.924475 0
M  V30 12 C 4.123360 4.311801 -2.052791 0
M  V30 13 C 3.224516 4.235178 -1.002327 0
M  V30 14 C 2.374271 3.173044 -0.811018 0
M  V30 15 C 1.421791 3.126375 0.320931 0
M  V30 16 F 1.635459 2.093127 1.181709 0
M  V30 17 F 1.585150 4.284255 1.050496 0
M  V30 18 F 0.104228 3.162605 -0.129323 0
M  V30 19 C 0.957710 -0.924173 1.222791 0
M  V30 20 C 0.832724 -1.733151 2.322147 0
M  V30 21 N -0.243458 -1.755398 3.235914 0
M  V30 22 C -1.455053 -1.037518 3.426362 0
M  V30 23 C -2.443388 -0.991109 2.326092 0
M  V30 24 C -2.996295 -2.288103 1.837777 0
M  V30 25 C -3.995942 -1.944698 0.714293 0
M  V30 26 C -4.500969 -3.188803 0.034295 0
M  V30 27 O -3.406496 -3.748048 -0.650666 0
M  V30 28 C -2.561287 -4.238606 0.321494 0
M  V30 29 C -1.929634 -3.117757 1.132406 0
M  V30 30 H 3.776367 -3.326684 1.785476 0
M  V30 31 H 3.129980 -0.169578 -1.258846 0
M  V30 32 H 1.549459 0.436319 -2.689538 0
M  V30 33 H 0.489122 1.044850 -1.385529 0
M  V30 34 H 3.381189 1.448777 -3.448279 0
M  V30 35 H 4.725161 5.186595 -2.088812 0
M  V30 36 H 3.145488 5.041599 -0.254145 0
M  V30 37 H 0.174182 -0.205140 1.013390 0
M  V30 38 H -0.147702 -2.504493 3.989761 0
M  V30 39 H -1.208712 0.051941 3.665875 0
M  V30 40 H -1.963890 -1.350897 4.389623 0
M  V30 41 H -2.117257 -0.341897 1.466904 0
M  V30 42 H -3.333261 -0.407882 2.746378 0
M  V30 43 H -3.538365 -2.832708 2.605889 0
M  V30 44 H -3.431434 -1.355755 -0.026900 0
M  V30 45 H -4.803292 -1.316912 1.087787 0
M  V30 46 H -4.963106 -3.902066 0.735968 0
M  V30 47 H -5.237721 -2.845141 -0.720943 0
M  V30 48 H -3.013870 -4.951913 1.024702 0
M  V30 49 H -1.699678 -4.747032 -0.187661 0
M  V30 50 H -1.394874 -2.435744 0.462580 0
M  V30 51 H -1.259241 -3.611376 1.849854 0
M  V30 END ATOM
M  V30 BEGIN BOND
M  V30 1 3 1 2
M  V30 2 1 2 3
M  V30 3 2 3 4
M  V30 4 1 4 5
M  V30 5 2 5 6
M  V30 6 1 6 7
M  V30 7 1 7 8
M  V30 8 1 8 9
M  V30 9 2 9 10
M  V30 10 1 10 11
M  V30 11 2 11 12
M  V30 12 1 12 13
M  V30 13 2 13 14
M  V30 14 1 14 15
M  V30 15 1 15 16
M  V30 16 1 15 17
M  V30 17 1 15 18
M  V30 18 1 6 19
M  V30 19 2 19 20
M  V30 20 1 20 21
M  V30 21 1 21 22
M  V30 22 1 22 23
M  V30 23 1 23 24
M  V30 24 1 24 25
M  V30 25 1 25 26
M  V30 26 1 26 27
M  V30 27 1 27 28
M  V30 28 1 28 29
M  V30 29 1 20 3
M  V30 30 1 29 24
M  V30 31 1 14 9
M  V30 32 1 4 30
M  V30 33 1 7 31
M  V30 34 1 8 32
M  V30 35 1 8 33
M  V30 36 1 10 34
M  V30 37 1 12 35
M  V30 38 1 13 36
M  V30 39 1 19 37
M  V30 40 1 21 38
M  V30 41 1 22 39
M  V30 42 1 22 40
M  V30 43 1 23 41
M  V30 44 1 23 42
M  V30 45 1 24 43
M  V30 46 1 25 44
M  V30 47 1 25 45
M  V30 48 1 26 46
M  V30 49 1 26 47
M  V30 50 1 28 48
M  V30 51 1 28 49
M  V30 52 1 29 50
M  V30 53 1 29 51
M  V30 END BOND
M  V30 END CTAB
M  END
>  <Dataset>  (6) 
ChEMBL_Kinases

>  <Ligand_Instance>  (6) 
nan

>  <PDB_ID>  (6) 
nan

>  <Standardized_SMILES>  (6) 
N#Cc1cnc(NCc2cnccc2C(F)(F)F)cc1NCCC1CCOCC1

>  <Name>  (6) 
nan

>  <Pocket>  (6) 
nan

>  <ATP_Site>  (6) 
nan

>  <Peripheral>  (6) 
nan

>  <Num_H_Atoms_ProtBoundConf>  (6) 
nan

>  <Num_Resolved_Atoms>  (6) 
nan

>  <Num_Not_Resolved_Atoms>  (6) 
nan

$$$$
CHEMBL4849349
     RDKit          3D

  0  0  0  0  0  0  0  0  0  0999 V3000
M  V30 BEGIN CTAB
M  V30 COUNTS 42 44 0 0 0
M  V30 BEGIN ATOM
M  V30 1 N -0.031259 -5.099483 1.774716 0
M  V30 2 C 0.531363 -5.524912 0.538456 0
M  V30 3 C 1.077083 -4.610512 -0.352932 0
M  V30 4 C 1.643335 -4.935588 -1.573269 0
M  V30 5 O 2.158384 -3.935935 -2.382873 0
M  V30 6 C 2.121800 -2.584999 -1.995606 0
M  V30 7 C 1.025734 -1.823513 -2.346303 0
M  V30 8 C 1.000271 -0.480833 -1.955638 0
M  V30 9 C 2.067511 0.044528 -1.232861 0
M  V30 10 N 1.831383 1.425274 -0.942198 0
M  V30 11 C 1.142946 1.678084 0.292800 0
M  V30 12 O 0.806986 0.697566 1.008893 0
M  V30 13 N 0.789567 2.953023 0.809082 0
M  V30 14 C 0.095822 2.991557 2.075821 0
M  V30 15 C 0.732105 3.068566 3.300757 0
M  V30 16 C -0.042911 3.098690 4.441443 0
M  V30 17 C -1.424117 3.054034 4.385091 0
M  V30 18 C -2.041699 2.977264 3.153125 0
M  V30 19 C -3.529966 2.936034 3.238755 0
M  V30 20 F -3.936916 4.016044 3.992356 0
M  V30 21 F -4.137375 2.954073 2.012041 0
M  V30 22 F -3.932784 1.785009 3.900206 0
M  V30 23 C -1.284550 2.945918 1.998023 0
M  V30 24 C 3.152294 -0.738925 -0.894744 0
M  V30 25 C 3.172582 -2.059953 -1.281631 0
M  V30 26 N 1.634988 -6.255574 -1.862490 0
M  V30 27 C 1.098677 -7.146433 -0.984667 0
M  V30 28 N 0.549424 -6.830995 0.199060 0
M  V30 29 H 0.324787 -5.371002 2.706431 0
M  V30 30 H -0.847511 -4.480186 2.015072 0
M  V30 31 H 1.057034 -3.551949 -0.066919 0
M  V30 32 H 0.231392 -2.300393 -2.910105 0
M  V30 33 H 0.108975 0.026813 -2.274401 0
M  V30 34 H 2.062115 2.307004 -1.455381 0
M  V30 35 H 1.069764 3.783196 0.210572 0
M  V30 36 H 1.821394 3.101517 3.297014 0
M  V30 37 H 0.499223 3.159170 5.376063 0
M  V30 38 H -1.931908 3.082910 5.326648 0
M  V30 39 H -1.878333 2.885358 1.095029 0
M  V30 40 H 3.906473 -0.202361 -0.334225 0
M  V30 41 H 4.047380 -2.629215 -0.990140 0
M  V30 42 H 1.123428 -8.201415 -1.279357 0
M  V30 END ATOM
M  V30 BEGIN BOND
M  V30 1 1 1 2
M  V30 2 2 2 3
M  V30 3 1 3 4
M  V30 4 1 4 5
M  V30 5 1 5 6
M  V30 6 2 6 7
M  V30 7 1 7 8
M  V30 8 2 8 9
M  V30 9 1 9 10
M  V30 10 1 10 11
M  V30 11 2 11 12
M  V30 12 1 11 13
M  V30 13 1 13 14
M  V30 14 2 14 15
M  V30 15 1 15 16
M  V30 16 2 16 17
M  V30 17 1 17 18
M  V30 18 1 18 19
M  V30 19 1 19 20
M  V30 20 1 19 21
M  V30 21 1 19 22
M  V30 22 2 18 23
M  V30 23 1 9 24
M  V30 24 2 24 25
M  V30 25 2 4 26
M  V30 26 1 26 27
M  V30 27 2 27 28
M  V30 28 1 28 2
M  V30 29 1 25 6
M  V30 30 1 23 14
M  V30 31 1 1 29
M  V30 32 1 1 30
M  V30 33 1 3 31
M  V30 34 1 7 32
M  V30 35 1 8 33
M  V30 36 1 10 34
M  V30 37 1 13 35
M  V30 38 1 15 36
M  V30 39 1 16 37
M  V30 40 1 17 38
M  V30 41 1 23 39
M  V30 42 1 24 40
M  V30 43 1 25 41
M  V30 44 1 27 42
M  V30 END BOND
M  V30 END CTAB
M  END
>  <Dataset>  (7) 
ChEMBL_Kinases

>  <Ligand_Instance>  (7) 
nan

>  <PDB_ID>  (7) 
nan

>  <Standardized_SMILES>  (7) 
Nc1cc(Oc2ccc(NC(=O)Nc3cccc(C(F)(F)F)c3)cc2)ncn1

>  <Name>  (7) 
nan

>  <Pocket>  (7) 
nan

>  <ATP_Site>  (7) 
nan

>  <Peripheral>  (7) 
nan

>  <Num_H_Atoms_ProtBoundConf>  (7) 
nan

>  <Num_Resolved_Atoms>  (7) 
nan

>  <Num_Not_Resolved_Atoms>  (7) 
nan

$$$$
CHEMBL4850559
     RDKit          3D

  0  0  0  0  0  0  0  0  0  0999 V3000
M  V30 BEGIN CTAB
M  V30 COUNTS 43 46 0 0 0
M  V30 BEGIN ATOM
M  V30 1 O 2.399141 0.728468 4.120284 0
M  V30 2 S 1.986564 -0.298889 3.089903 0
M  V30 3 O 2.073990 -1.625414 3.794919 0
M  V30 4 N 3.055787 -0.295529 1.782207 0
M  V30 5 C 3.307036 0.767631 0.897450 0
M  V30 6 C 3.373535 0.557150 -0.481172 0
M  V30 7 C 3.612654 1.513927 -1.451177 0
M  V30 8 C 3.802725 2.803074 -0.992224 0
M  V30 9 C 4.059901 3.824820 -2.052286 0
M  V30 10 F 5.387502 3.932389 -2.355724 0
M  V30 11 F 3.378409 3.474786 -3.221674 0
M  V30 12 F 3.499210 5.008129 -1.616646 0
M  V30 13 C 3.750714 3.084409 0.357611 0
M  V30 14 C 3.506632 2.079567 1.282114 0
M  V30 15 C 0.327203 -0.043875 2.687929 0
M  V30 16 C -0.180888 1.238623 2.654715 0
M  V30 17 C -1.505553 1.464061 2.335464 0
M  V30 18 C -2.338027 0.378282 2.043249 0
M  V30 19 C -1.859859 -0.918955 2.067772 0
M  V30 20 C -2.712143 -2.063900 1.766132 0
M  V30 21 N -3.960018 -2.294608 2.214381 0
M  V30 22 N -4.443091 -3.441031 1.737192 0
M  V30 23 C -3.520488 -4.019675 0.944598 0
M  V30 24 C -3.436910 -5.185849 0.187212 0
M  V30 25 C -2.314183 -5.518232 -0.548458 0
M  V30 26 F -2.249086 -6.658518 -1.281171 0
M  V30 27 C -1.235608 -4.660615 -0.530726 0
M  V30 28 C -1.340577 -3.509618 0.227436 0
M  V30 29 C -2.446895 -3.157687 0.967377 0
M  V30 30 C -0.528822 -1.111357 2.391105 0
M  V30 31 H 3.642049 -1.147509 1.529288 0
M  V30 32 H 3.215366 -0.485953 -0.793988 0
M  V30 33 H 3.629914 1.169635 -2.482987 0
M  V30 34 H 3.908599 4.117800 0.651713 0
M  V30 35 H 3.470331 2.320655 2.328256 0
M  V30 36 H 0.469542 2.080832 2.882568 0
M  V30 37 H -1.885964 2.497559 2.316064 0
M  V30 38 H -3.379137 0.579062 1.794095 0
M  V30 39 H -5.372742 -3.871370 1.912033 0
M  V30 40 H -4.295716 -5.845468 0.187406 0
M  V30 41 H -0.340047 -4.890389 -1.095779 0
M  V30 42 H -0.469341 -2.874345 0.206377 0
M  V30 43 H -0.066741 -2.081451 2.435952 0
M  V30 END ATOM
M  V30 BEGIN BOND
M  V30 1 2 1 2
M  V30 2 2 2 3
M  V30 3 1 2 4
M  V30 4 1 4 5
M  V30 5 2 5 6
M  V30 6 1 6 7
M  V30 7 2 7 8
M  V30 8 1 8 9
M  V30 9 1 9 10
M  V30 10 1 9 11
M  V30 11 1 9 12
M  V30 12 1 8 13
M  V30 13 2 13 14
M  V30 14 1 2 15
M  V30 15 2 15 16
M  V30 16 1 16 17
M  V30 17 2 17 18
M  V30 18 1 18 19
M  V30 19 1 19 20
M  V30 20 2 20 21
M  V30 21 1 21 22
M  V30 22 1 22 23
M  V30 23 2 23 24
M  V30 24 1 24 25
M  V30 25 1 25 26
M  V30 26 2 25 27
M  V30 27 1 27 28
M  V30 28 2 28 29
M  V30 29 2 19 30
M  V30 30 1 14 5
M  V30 31 1 30 15
M  V30 32 1 29 20
M  V30 33 1 29 23
M  V30 34 1 4 31
M  V30 35 1 6 32
M  V30 36 1 7 33
M  V30 37 1 13 34
M  V30 38 1 14 35
M  V30 39 1 16 36
M  V30 40 1 17 37
M  V30 41 1 18 38
M  V30 42 1 22 39
M  V30 43 1 24 40
M  V30 44 1 27 41
M  V30 45 1 28 42
M  V30 46 1 30 43
M  V30 END BOND
M  V30 END CTAB
M  END
>  <Dataset>  (8) 
ChEMBL_Kinases

>  <Ligand_Instance>  (8) 
nan

>  <PDB_ID>  (8) 
nan

>  <Standardized_SMILES>  (8) 
O=S(=O)(Nc1ccc(C(F)(F)F)cc1)c1cccc(-c2n[nH]c3cc(F)ccc23)c1

>  <Name>  (8) 
nan

>  <Pocket>  (8) 
nan

>  <ATP_Site>  (8) 
nan

>  <Peripheral>  (8) 
nan

>  <Num_H_Atoms_ProtBoundConf>  (8) 
nan

>  <Num_Resolved_Atoms>  (8) 
nan

>  <Num_Not_Resolved_Atoms>  (8) 
nan

$$$$
CHEMBL4850608
     RDKit          3D

  0  0  0  0  0  0  0  0  0  0999 V3000
M  V30 BEGIN CTAB
M  V30 COUNTS 78 82 0 0 0
M  V30 BEGIN ATOM
M  V30 1 C 2.650452 -4.623263 4.887744 0
M  V30 2 C 2.471152 -3.280397 4.249589 0
M  V30 3 C 3.120010 -3.214572 2.906223 0
M  V30 4 O 3.766808 -4.113784 2.273674 0
M  V30 5 N 3.065013 -2.003219 2.129188 0
M  V30 6 C 3.634671 -1.783485 0.835074 0 CFG=1
M  V30 7 C 2.640412 -1.441128 -0.249238 0
M  V30 8 C 3.051767 -0.100214 -0.890687 0
M  V30 9 C 3.191552 0.891007 0.199177 0 CFG=2
M  V30 10 N 2.926409 2.255271 -0.077835 0
M  V30 11 C 3.716674 3.270626 0.373101 0
M  V30 12 O 4.748578 3.070835 1.066801 0
M  V30 13 C 3.529124 4.610004 0.159145 0
M  V30 14 C 2.433993 5.018235 -0.588811 0
M  V30 15 C 2.177461 6.449767 -0.856619 0
M  V30 16 C 1.612153 4.034028 -1.062442 0
M  V30 17 C 0.528673 4.463497 -1.793750 0
M  V30 18 N -0.346369 3.540209 -2.296365 0
M  V30 19 C -0.094926 2.218221 -2.041413 0
M  V30 20 N -0.954006 1.209323 -2.520362 0
M  V30 21 C -1.946562 0.412016 -1.922983 0
M  V30 22 C -2.160420 0.582684 -0.567998 0
M  V30 23 C -3.103154 -0.238403 0.047145 0
M  V30 24 C -3.802719 -1.189740 -0.657452 0
M  V30 25 N -4.772494 -2.017552 -0.029824 0
M  V30 26 C -5.243395 -1.821976 1.329353 0
M  V30 27 C -5.131132 -3.178671 1.994365 0
M  V30 28 N -4.244024 -4.031858 1.252412 0
M  V30 29 C -3.562415 -5.030438 1.982279 0
M  V30 30 C -4.719346 -4.387261 -0.042929 0
M  V30 31 C -5.411247 -3.167214 -0.652294 0
M  V30 32 C -3.555197 -1.321732 -2.005018 0
M  V30 33 C -2.640858 -0.545132 -2.680065 0
M  V30 34 O -2.329362 -0.583155 -4.004990 0
M  V30 35 C -2.897140 -1.501394 -4.898760 0
M  V30 36 N 0.978289 1.861631 -1.321542 0
M  V30 37 C 1.881868 2.702675 -0.794939 0
M  V30 38 C 4.497432 0.609931 0.857881 0
M  V30 39 C 4.816333 -0.857543 0.832311 0
M  V30 40 H 3.394437 -4.600178 5.739549 0
M  V30 41 H 1.717871 -4.979570 5.370291 0
M  V30 42 H 3.005859 -5.417866 4.196980 0
M  V30 43 H 1.381747 -3.056693 4.187909 0
M  V30 44 H 2.927452 -2.523867 4.944971 0
M  V30 45 H 2.552050 -1.175549 2.546835 0
M  V30 46 H 4.066882 -2.788553 0.545290 0
M  V30 47 H 1.618300 -1.370017 0.144179 0
M  V30 48 H 2.650782 -2.165002 -1.078997 0
M  V30 49 H 2.438697 0.123823 -1.742686 0
M  V30 50 H 4.080743 -0.319941 -1.309563 0
M  V30 51 H 2.414426 0.606245 0.984444 0
M  V30 52 H 4.176482 5.397836 0.530829 0
M  V30 53 H 1.200446 6.793389 -0.408352 0
M  V30 54 H 2.211633 6.687586 -1.949732 0
M  V30 55 H 2.996395 7.039735 -0.404767 0
M  V30 56 H 0.348748 5.516675 -1.987041 0
M  V30 57 H -0.738456 1.096620 -3.551984 0
M  V30 58 H -1.606636 1.330108 -0.022320 0
M  V30 59 H -3.224462 -0.065145 1.090567 0
M  V30 60 H -6.342839 -1.555898 1.246335 0
M  V30 61 H -4.799338 -0.999521 1.871931 0
M  V30 62 H -6.148368 -3.672033 1.939537 0
M  V30 63 H -4.878394 -3.117227 3.050310 0
M  V30 64 H -2.566392 -4.584949 2.289155 0
M  V30 65 H -4.046867 -5.325009 2.946601 0
M  V30 66 H -3.295332 -5.911414 1.390058 0
M  V30 67 H -5.399641 -5.254928 -0.037881 0
M  V30 68 H -3.835164 -4.575137 -0.715235 0
M  V30 69 H -5.344564 -3.179687 -1.746103 0
M  V30 70 H -6.470312 -3.220508 -0.330140 0
M  V30 71 H -4.032813 -2.022253 -2.671971 0
M  V30 72 H -2.857227 -2.513384 -4.401585 0
M  V30 73 H -2.360635 -1.597689 -5.860884 0
M  V30 74 H -3.970047 -1.243478 -5.133153 0
M  V30 75 H 4.560800 0.949665 1.906142 0
M  V30 76 H 5.293868 1.064557 0.194300 0
M  V30 77 H 5.445477 -1.157908 -0.057334 0
M  V30 78 H 5.445187 -1.131134 1.696287 0
M  V30 END ATOM
M  V30 BEGIN BOND
M  V30 1 1 1 2
M  V30 2 1 2 3
M  V30 3 2 3 4
M  V30 4 1 3 5
M  V30 5 1 5 6
M  V30 6 1 6 7
M  V30 7 1 7 8
M  V30 8 1 8 9
M  V30 9 1 9 10
M  V30 10 1 10 11
M  V30 11 2 11 12
M  V30 12 1 11 13
M  V30 13 2 13 14
M  V30 14 1 14 15
M  V30 15 1 14 16
M  V30 16 2 16 17
M  V30 17 1 17 18
M  V30 18 2 18 19
M  V30 19 1 19 20
M  V30 20 1 20 21
M  V30 21 2 21 22
M  V30 22 1 22 23
M  V30 23 2 23 24
M  V30 24 1 24 25
M  V30 25 1 25 26
M  V30 26 1 26 27
M  V30 27 1 27 28
M  V30 28 1 28 29
M  V30 29 1 28 30
M  V30 30 1 30 31
M  V30 31 1 24 32
M  V30 32 2 32 33
M  V30 33 1 33 34
M  V30 34 1 34 35
M  V30 35 1 19 36
M  V30 36 2 36 37
M  V30 37 1 9 38
M  V30 38 1 38 39
M  V30 39 1 39 6
M  V30 40 1 37 10
M  V30 41 1 37 16
M  V30 42 1 33 21
M  V30 43 1 31 25
M  V30 44 1 1 40
M  V30 45 1 1 41
M  V30 46 1 1 42
M  V30 47 1 2 43
M  V30 48 1 2 44
M  V30 49 1 5 45
M  V30 50 1 6 46 CFG=3
M  V30 51 1 7 47
M  V30 52 1 7 48
M  V30 53 1 8 49
M  V30 54 1 8 50
M  V30 55 1 9 51 CFG=1
M  V30 56 1 13 52
M  V30 57 1 15 53
M  V30 58 1 15 54
M  V30 59 1 15 55
M  V30 60 1 17 56
M  V30 61 1 20 57
M  V30 62 1 22 58
M  V30 63 1 23 59
M  V30 64 1 26 60
M  V30 65 1 26 61
M  V30 66 1 27 62
M  V30 67 1 27 63
M  V30 68 1 29 64
M  V30 69 1 29 65
M  V30 70 1 29 66
M  V30 71 1 30 67
M  V30 72 1 30 68
M  V30 73 1 31 69
M  V30 74 1 31 70
M  V30 75 1 32 71
M  V30 76 1 35 72
M  V30 77 1 35 73
M  V30 78 1 35 74
M  V30 79 1 38 75
M  V30 80 1 38 76
M  V30 81 1 39 77
M  V30 82 1 39 78
M  V30 END BOND
M  V30 END CTAB
M  END
>  <Dataset>  (9) 
ChEMBL_Kinases

>  <Ligand_Instance>  (9) 
nan

>  <PDB_ID>  (9) 
nan

>  <Standardized_SMILES>  (9) 
CCC(=O)N[C@H]1CC[C@H](n2c(=O)cc(C)c3cnc(Nc4ccc(N5CCN(C)CC5)cc4OC)nc32)CC1

>  <Name>  (9) 
nan

>  <Pocket>  (9) 
nan

>  <ATP_Site>  (9) 
nan

>  <Peripheral>  (9) 
nan

>  <Num_H_Atoms_ProtBoundConf>  (9) 
nan

>  <Num_Resolved_Atoms>  (9) 
nan

>  <Num_Not_Resolved_Atoms>  (9) 
nan

$$$$
CHEMBL4850634
     RDKit          3D

  0  0  0  0  0  0  0  0  0  0999 V3000
M  V30 BEGIN CTAB
M  V30 COUNTS 40 43 0 0 0
M  V30 BEGIN ATOM
M  V30 1 O 3.124938 2.065960 -0.784581 0
M  V30 2 S 3.385257 1.352135 0.535043 0
M  V30 3 O 4.319662 2.191316 1.358082 0
M  V30 4 N 4.150055 -0.162452 0.226245 0
M  V30 5 C 3.720132 -1.302889 -0.497232 0
M  V30 6 C 2.480432 -1.894665 -0.388146 0
M  V30 7 C 2.054454 -3.003836 -1.085042 0
M  V30 8 C 2.956257 -3.562435 -1.966098 0
M  V30 9 F 2.652726 -4.655776 -2.708334 0
M  V30 10 C 4.220752 -3.043899 -2.146140 0
M  V30 11 C 4.572036 -1.932688 -1.412168 0
M  V30 12 C 1.903289 1.205747 1.428323 0
M  V30 13 C 1.967155 1.201120 2.826437 0
M  V30 14 C 0.891883 1.098967 3.684916 0
M  V30 15 C -0.360218 0.991592 3.115528 0
M  V30 16 C -0.481577 0.990899 1.743557 0
M  V30 17 C -1.784995 0.879597 1.076519 0
M  V30 18 N -2.158196 1.640663 0.047954 0
M  V30 19 N -3.397811 1.306078 -0.344869 0
M  V30 20 C -3.780931 0.308888 0.477807 0
M  V30 21 C -4.968524 -0.423921 0.536923 0
M  V30 22 C -5.196334 -1.425387 1.457593 0
M  V30 23 F -6.352634 -2.124781 1.500258 0
M  V30 24 C -4.149901 -1.668425 2.344250 0
M  V30 25 C -2.952669 -0.988287 2.346575 0
M  V30 26 C -2.796826 -0.004072 1.400808 0
M  V30 27 C 0.609502 1.094308 0.906133 0
M  V30 28 H 5.122413 -0.358055 0.615127 0
M  V30 29 H 1.769548 -1.468095 0.298803 0
M  V30 30 H 1.068354 -3.420334 -0.954445 0
M  V30 31 H 4.920231 -3.492224 -2.841661 0
M  V30 32 H 5.573310 -1.491250 -1.529684 0
M  V30 33 H 2.950185 1.285283 3.292058 0
M  V30 34 H 1.056598 1.105765 4.753842 0
M  V30 35 H -1.234090 0.909088 3.747229 0
M  V30 36 H -3.996665 1.693113 -1.114186 0
M  V30 37 H -5.748921 -0.205549 -0.163528 0
M  V30 38 H -4.323709 -2.454605 3.070028 0
M  V30 39 H -2.161658 -1.185015 3.030516 0
M  V30 40 H 0.579974 1.099673 -0.178614 0
M  V30 END ATOM
M  V30 BEGIN BOND
M  V30 1 2 1 2
M  V30 2 2 2 3
M  V30 3 1 2 4
M  V30 4 1 4 5
M  V30 5 2 5 6
M  V30 6 1 6 7
M  V30 7 2 7 8
M  V30 8 1 8 9
M  V30 9 1 8 10
M  V30 10 2 10 11
M  V30 11 1 2 12
M  V30 12 2 12 13
M  V30 13 1 13 14
M  V30 14 2 14 15
M  V30 15 1 15 16
M  V30 16 1 16 17
M  V30 17 2 17 18
M  V30 18 1 18 19
M  V30 19 1 19 20
M  V30 20 2 20 21
M  V30 21 1 21 22
M  V30 22 1 22 23
M  V30 23 2 22 24
M  V30 24 1 24 25
M  V30 25 2 25 26
M  V30 26 2 16 27
M  V30 27 1 11 5
M  V30 28 1 27 12
M  V30 29 1 26 17
M  V30 30 1 26 20
M  V30 31 1 4 28
M  V30 32 1 6 29
M  V30 33 1 7 30
M  V30 34 1 10 31
M  V30 35 1 11 32
M  V30 36 1 13 33
M  V30 37 1 14 34
M  V30 38 1 15 35
M  V30 39 1 19 36
M  V30 40 1 21 37
M  V30 41 1 24 38
M  V30 42 1 25 39
M  V30 43 1 27 40
M  V30 END BOND
M  V30 END CTAB
M  END
>  <Dataset>  (10) 
ChEMBL_Kinases

>  <Ligand_Instance>  (10) 
nan

>  <PDB_ID>  (10) 
nan

>  <Standardized_SMILES>  (10) 
O=S(=O)(Nc1ccc(F)cc1)c1cccc(-c2n[nH]c3cc(F)ccc23)c1

>  <Name>  (10) 
nan

>  <Pocket>  (10) 
nan

>  <ATP_Site>  (10) 
nan

>  <Peripheral>  (10) 
nan

>  <Num_H_Atoms_ProtBoundConf>  (10) 
nan

>  <Num_Resolved_Atoms>  (10) 
nan

>  <Num_Not_Resolved_Atoms>  (10) 
nan

$$$$
CHEMBL4850639
     RDKit          3D

  0  0  0  0  0  0  0  0  0  0999 V3000
M  V30 BEGIN CTAB
M  V30 COUNTS 46 48 0 0 0
M  V30 BEGIN ATOM
M  V30 1 N -4.670313 -0.126148 1.995557 0
M  V30 2 C -3.752808 -0.689591 1.627719 0
M  V30 3 C -2.610217 -1.403143 1.143406 0
M  V30 4 C -2.213016 -2.580892 1.739177 0
M  V30 5 N -1.145745 -3.304247 1.333517 0
M  V30 6 C -0.397611 -2.870424 0.275883 0
M  V30 7 N 0.728689 -3.616209 -0.166659 0
M  V30 8 C 2.067836 -3.442081 0.313806 0
M  V30 9 C 2.619120 -2.086960 0.095638 0
M  V30 10 C 2.465922 -1.083513 1.042956 0
M  V30 11 C 2.993120 0.176455 0.811233 0
M  V30 12 C 3.680425 0.447194 -0.372317 0
M  V30 13 C 3.826213 -0.556660 -1.305257 0
M  V30 14 C 3.308395 -1.816907 -1.092241 0
M  V30 15 C -0.796098 -1.682746 -0.326801 0
M  V30 16 C -1.874455 -0.918152 0.055259 0
M  V30 17 N -2.233114 0.283706 -0.592370 0
M  V30 18 C -1.583327 0.923667 -1.737184 0 CFG=1
M  V30 19 C -1.632199 0.040772 -2.922170 0
M  V30 20 C -2.115995 0.801770 -4.131320 0
M  V30 21 C -3.456356 1.400400 -3.764454 0 CFG=1
M  V30 22 O -4.257513 0.365895 -3.282418 0
M  V30 23 C -3.317834 2.465239 -2.705606 0
M  V30 24 C -2.045339 2.335230 -1.917894 0
M  V30 25 H -2.803547 -2.927501 2.577476 0
M  V30 26 H 0.229090 -4.220326 -0.857502 0
M  V30 27 H 2.193551 -3.724029 1.379752 0
M  V30 28 H 2.713726 -4.149970 -0.250210 0
M  V30 29 H 1.938448 -1.278070 1.959776 0
M  V30 30 H 2.902076 0.991516 1.514739 0
M  V30 31 H 4.124534 1.396386 -0.639613 0
M  V30 32 H 4.349828 -0.396021 -2.236255 0
M  V30 33 H 3.434227 -2.596784 -1.841861 0
M  V30 34 H -0.177433 -1.398516 -1.137672 0
M  V30 35 H -3.081262 0.801160 -0.211813 0
M  V30 36 H -0.505108 1.000222 -1.404374 0
M  V30 37 H -0.606301 -0.326150 -3.221866 0
M  V30 38 H -2.214490 -0.892924 -2.777909 0
M  V30 39 H -2.289206 0.067431 -4.945840 0
M  V30 40 H -1.363341 1.562504 -4.412839 0
M  V30 41 H -3.924208 1.758347 -4.704160 0
M  V30 42 H -4.191736 -0.449149 -3.839073 0
M  V30 43 H -3.296768 3.442432 -3.228649 0
M  V30 44 H -4.206596 2.475977 -2.044366 0
M  V30 45 H -1.266248 2.997727 -2.353796 0
M  V30 46 H -2.255393 2.745129 -0.905956 0
M  V30 END ATOM
M  V30 BEGIN BOND
M  V30 1 3 1 2
M  V30 2 1 2 3
M  V30 3 2 3 4
M  V30 4 1 4 5
M  V30 5 2 5 6
M  V30 6 1 6 7
M  V30 7 1 7 8
M  V30 8 1 8 9
M  V30 9 2 9 10
M  V30 10 1 10 11
M  V30 11 2 11 12
M  V30 12 1 12 13
M  V30 13 2 13 14
M  V30 14 1 6 15
M  V30 15 2 15 16
M  V30 16 1 16 17
M  V30 17 1 17 18
M  V30 18 1 18 19
M  V30 19 1 19 20
M  V30 20 1 20 21
M  V30 21 1 21 22
M  V30 22 1 21 23
M  V30 23 1 23 24
M  V30 24 1 16 3
M  V30 25 1 24 18
M  V30 26 1 14 9
M  V30 27 1 4 25
M  V30 28 1 7 26
M  V30 29 1 8 27
M  V30 30 1 8 28
M  V30 31 1 10 29
M  V30 32 1 11 30
M  V30 33 1 12 31
M  V30 34 1 13 32
M  V30 35 1 14 33
M  V30 36 1 15 34
M  V30 37 1 17 35
M  V30 38 1 18 36 CFG=1
M  V30 39 1 19 37
M  V30 40 1 19 38
M  V30 41 1 20 39
M  V30 42 1 20 40
M  V30 43 1 21 41 CFG=3
M  V30 44 1 22 42
M  V30 45 1 23 43
M  V30 46 1 23 44
M  V30 47 1 24 45
M  V30 48 1 24 46
M  V30 END BOND
M  V30 END CTAB
M  END
>  <Dataset>  (11) 
ChEMBL_Kinases

>  <Ligand_Instance>  (11) 
nan

>  <PDB_ID>  (11) 
nan

>  <Standardized_SMILES>  (11) 
N#Cc1cnc(NCc2ccccc2)cc1N[C@H]1CC[C@@H](O)CC1

>  <Name>  (11) 
nan

>  <Pocket>  (11) 
nan

>  <ATP_Site>  (11) 
nan

>  <Peripheral>  (11) 
nan

>  <Num_H_Atoms_ProtBoundConf>  (11) 
nan

>  <Num_Resolved_Atoms>  (11) 
nan

>  <Num_Not_Resolved_Atoms>  (11) 
nan

$$$$
CHEMBL4850675
     RDKit          3D

  0  0  0  0  0  0  0  0  0  0999 V3000
M  V30 BEGIN CTAB
M  V30 COUNTS 38 41 0 0 0
M  V30 BEGIN ATOM
M  V30 1 C 0.303010 -5.992190 3.228218 0
M  V30 2 O 1.276298 -5.178695 3.891238 0
M  V30 3 C 1.732192 -4.025747 3.251255 0
M  V30 4 N 2.649731 -3.204735 3.809654 0
M  V30 5 C 3.109435 -2.090758 3.223910 0
M  V30 6 C 2.636693 -1.738155 1.981064 0
M  V30 7 C 3.071597 -0.548359 1.256684 0
M  V30 8 N 4.330471 -0.083491 1.082501 0
M  V30 9 N 4.305839 1.028944 0.362330 0
M  V30 10 C 3.046640 1.349137 0.030114 0
M  V30 11 N 2.499492 2.374254 -0.685555 0
M  V30 12 C 1.162105 2.443296 -0.863263 0
M  V30 13 C 0.298750 1.480265 -0.327971 0
M  V30 14 C -1.151297 1.528799 -0.503572 0
M  V30 15 C -1.900784 0.993642 0.544447 0
M  V30 16 C -3.287800 1.012982 0.432052 0
M  V30 17 C -3.921834 1.543390 -0.679186 0
M  V30 18 O -5.314362 1.549370 -0.765022 0
M  V30 19 C -3.165990 2.076104 -1.721839 0
M  V30 20 O -3.761778 2.622806 -2.864369 0
M  V30 21 C -1.783278 2.057534 -1.611242 0
M  V30 22 C 0.905814 0.466222 0.386510 0
M  V30 23 C 2.263362 0.353146 0.594534 0
M  V30 24 C 1.701217 -2.580680 1.418569 0
M  V30 25 N 1.262199 -3.685423 2.028274 0
M  V30 26 H 0.415329 -7.051451 3.479332 0
M  V30 27 H 0.525079 -5.914100 2.132450 0
M  V30 28 H -0.721839 -5.605195 3.383523 0
M  V30 29 H 3.845587 -1.451734 3.696242 0
M  V30 30 H 5.153732 1.590033 0.085153 0
M  V30 31 H 0.728431 3.256881 -1.431425 0
M  V30 32 H -1.498781 0.559521 1.447731 0
M  V30 33 H -3.953562 0.612629 1.210550 0
M  V30 34 H -5.836731 0.689422 -0.641104 0
M  V30 35 H -3.824123 1.989359 -3.668950 0
M  V30 36 H -1.134732 2.447740 -2.369587 0
M  V30 37 H 0.254506 -0.271113 0.797572 0
M  V30 38 H 1.254098 -2.424786 0.461357 0
M  V30 END ATOM
M  V30 BEGIN BOND
M  V30 1 1 1 2
M  V30 2 1 2 3
M  V30 3 2 3 4
M  V30 4 1 4 5
M  V30 5 2 5 6
M  V30 6 1 6 7
M  V30 7 2 7 8
M  V30 8 1 8 9
M  V30 9 1 9 10
M  V30 10 2 10 11
M  V30 11 1 11 12
M  V30 12 2 12 13
M  V30 13 1 13 14
M  V30 14 2 14 15
M  V30 15 1 15 16
M  V30 16 2 16 17
M  V30 17 1 17 18
M  V30 18 1 17 19
M  V30 19 1 19 20
M  V30 20 2 19 21
M  V30 21 1 13 22
M  V30 22 2 22 23
M  V30 23 1 6 24
M  V30 24 2 24 25
M  V30 25 1 25 3
M  V30 26 1 23 7
M  V30 27 1 23 10
M  V30 28 1 21 14
M  V30 29 1 1 26
M  V30 30 1 1 27
M  V30 31 1 1 28
M  V30 32 1 5 29
M  V30 33 1 9 30
M  V30 34 1 12 31
M  V30 35 1 15 32
M  V30 36 1 16 33
M  V30 37 1 18 34
M  V30 38 1 20 35
M  V30 39 1 21 36
M  V30 40 1 22 37
M  V30 41 1 24 38
M  V30 END BOND
M  V30 END CTAB
M  END
>  <Dataset>  (12) 
ChEMBL_Kinases

>  <Ligand_Instance>  (12) 
nan

>  <PDB_ID>  (12) 
nan

>  <Standardized_SMILES>  (12) 
COc1ncc(-c2n[nH]c3ncc(-c4ccc(O)c(O)c4)cc23)cn1

>  <Name>  (12) 
nan

>  <Pocket>  (12) 
nan

>  <ATP_Site>  (12) 
nan

>  <Peripheral>  (12) 
nan

>  <Num_H_Atoms_ProtBoundConf>  (12) 
nan

>  <Num_Resolved_Atoms>  (12) 
nan

>  <Num_Not_Resolved_Atoms>  (12) 
nan

$$$$
CHEMBL4850687
     RDKit          3D

  0  0  0  0  0  0  0  0  0  0999 V3000
M  V30 BEGIN CTAB
M  V30 COUNTS 67 71 0 0 0
M  V30 BEGIN ATOM
M  V30 1 C 6.168328 -0.849886 4.679581 0
M  V30 2 C 5.363837 -1.724133 3.789174 0
M  V30 3 O 5.468146 -2.911934 3.456983 0
M  V30 4 C 4.207264 -1.043784 3.174917 0
M  V30 5 C 4.471595 -0.435862 1.963780 0
M  V30 6 C 5.815812 -0.467639 1.339673 0
M  V30 7 C 3.407808 0.215732 1.358192 0
M  V30 8 C 3.671542 0.819135 0.153737 0
M  V30 9 N 2.627734 1.446588 -0.420342 0
M  V30 10 C 1.429195 1.442402 0.204314 0
M  V30 11 N 0.272691 2.082172 -0.372021 0
M  V30 12 C -0.747495 1.134865 -0.743927 0
M  V30 13 C -1.919626 1.573140 -1.315907 0
M  V30 14 C -2.923042 0.678998 -1.659790 0
M  V30 15 C -2.749324 -0.662073 -1.428410 0
M  V30 16 N -3.693806 -1.689905 -1.721505 0
M  V30 17 C -3.535977 -3.102382 -1.429608 0
M  V30 18 C -3.238323 -3.794184 -2.715094 0
M  V30 19 N -3.920886 -3.086088 -3.787020 0
M  V30 20 C -3.266537 -3.105134 -5.057789 0
M  V30 21 O -2.236722 -3.780505 -4.822950 0
M  V30 22 C -3.980565 -2.371334 -6.138249 0
M  V30 23 Cl -3.119215 -2.444455 -7.670369 0
M  V30 24 C -5.192949 -2.446240 -3.433374 0
M  V30 25 C -4.973691 -1.410523 -2.369008 0
M  V30 26 C -1.587115 -1.086003 -0.864780 0
M  V30 27 N -0.650921 -0.181366 -0.552221 0
M  V30 28 N 1.197058 0.839366 1.392884 0
M  V30 29 C 2.194801 0.198943 2.011722 0
M  V30 30 N 1.916951 -0.378188 3.173583 0
M  V30 31 C 0.697358 -0.438603 3.864848 0
M  V30 32 C -0.571601 -0.055098 3.268898 0
M  V30 33 C -0.806893 1.379054 3.659526 0
M  V30 34 C 0.269930 1.755104 4.655881 0
M  V30 35 C 0.776596 0.423695 5.127619 0
M  V30 36 C 2.954735 -1.027258 3.789816 0
M  V30 37 O 2.894801 -1.642831 4.910166 0
M  V30 38 H 5.695263 -0.804557 5.681280 0
M  V30 39 H 7.201103 -1.232021 4.806882 0
M  V30 40 H 6.174691 0.204566 4.291950 0
M  V30 41 H 6.463024 -1.178388 1.897302 0
M  V30 42 H 5.824492 -0.739784 0.278435 0
M  V30 43 H 6.335330 0.533728 1.417098 0
M  V30 44 H 4.623240 0.808337 -0.320373 0
M  V30 45 H 0.125900 3.080315 -0.528213 0
M  V30 46 H -2.071132 2.629008 -1.508493 0
M  V30 47 H -3.828141 1.011245 -2.100568 0
M  V30 48 H -4.515069 -3.529157 -1.060134 0
M  V30 49 H -2.823073 -3.324633 -0.621375 0
M  V30 50 H -2.149772 -3.918368 -2.907452 0
M  V30 51 H -3.645614 -4.847505 -2.729968 0
M  V30 52 H -5.011140 -2.764127 -6.246253 0
M  V30 53 H -4.076101 -1.281516 -5.888763 0
M  V30 54 H -5.697264 -2.021208 -4.316341 0
M  V30 55 H -5.836725 -3.304696 -3.081394 0
M  V30 56 H -5.759841 -1.596161 -1.582701 0
M  V30 57 H -5.097215 -0.393144 -2.719811 0
M  V30 58 H -1.246718 -2.076275 -0.604311 0
M  V30 59 H 0.608522 -1.492994 4.288201 0
M  V30 60 H -0.789700 -0.309930 2.231026 0
M  V30 61 H -1.378249 -0.625405 3.831624 0
M  V30 62 H -1.787528 1.543639 4.190857 0
M  V30 63 H -0.867714 2.076475 2.799119 0
M  V30 64 H 1.053071 2.400172 4.219241 0
M  V30 65 H -0.162638 2.302250 5.543730 0
M  V30 66 H 1.842925 0.490148 5.449875 0
M  V30 67 H 0.115341 0.005981 5.921371 0
M  V30 END ATOM
M  V30 BEGIN BOND
M  V30 1 1 1 2
M  V30 2 2 2 3
M  V30 3 1 2 4
M  V30 4 2 4 5
M  V30 5 1 5 6
M  V30 6 1 5 7
M  V30 7 2 7 8
M  V30 8 1 8 9
M  V30 9 2 9 10
M  V30 10 1 10 11
M  V30 11 1 11 12
M  V30 12 2 12 13
M  V30 13 1 13 14
M  V30 14 2 14 15
M  V30 15 1 15 16
M  V30 16 1 16 17
M  V30 17 1 17 18
M  V30 18 1 18 19
M  V30 19 1 19 20
M  V30 20 2 20 21
M  V30 21 1 20 22
M  V30 22 1 22 23
M  V30 23 1 19 24
M  V30 24 1 24 25
M  V30 25 1 15 26
M  V30 26 2 26 27
M  V30 27 1 10 28
M  V30 28 2 28 29
M  V30 29 1 29 30
M  V30 30 1 30 31
M  V30 31 1 31 32
M  V30 32 1 32 33
M  V30 33 1 33 34
M  V30 34 1 34 35
M  V30 35 1 30 36
M  V30 36 2 36 37
M  V30 37 1 36 4
M  V30 38 1 29 7
M  V30 39 1 35 31
M  V30 40 1 27 12
M  V30 41 1 25 16
M  V30 42 1 1 38
M  V30 43 1 1 39
M  V30 44 1 1 40
M  V30 45 1 6 41
M  V30 46 1 6 42
M  V30 47 1 6 43
M  V30 48 1 8 44
M  V30 49 1 11 45
M  V30 50 1 13 46
M  V30 51 1 14 47
M  V30 52 1 17 48
M  V30 53 1 17 49
M  V30 54 1 18 50
M  V30 55 1 18 51
M  V30 56 1 22 52
M  V30 57 1 22 53
M  V30 58 1 24 54
M  V30 59 1 24 55
M  V30 60 1 25 56
M  V30 61 1 25 57
M  V30 62 1 26 58
M  V30 63 1 31 59
M  V30 64 1 32 60
M  V30 65 1 32 61
M  V30 66 1 33 62
M  V30 67 1 33 63
M  V30 68 1 34 64
M  V30 69 1 34 65
M  V30 70 1 35 66
M  V30 71 1 35 67
M  V30 END BOND
M  V30 END CTAB
M  END
>  <Dataset>  (13) 
ChEMBL_Kinases

>  <Ligand_Instance>  (13) 
nan

>  <PDB_ID>  (13) 
nan

>  <Standardized_SMILES>  (13) 
CC(=O)c1c(C)c2cnc(Nc3ccc(N4CCN(C(=O)CCl)CC4)cn3)nc2n(C2CCCC2)c1=O

>  <Name>  (13) 
nan

>  <Pocket>  (13) 
nan

>  <ATP_Site>  (13) 
nan

>  <Peripheral>  (13) 
nan

>  <Num_H_Atoms_ProtBoundConf>  (13) 
nan

>  <Num_Resolved_Atoms>  (13) 
nan

>  <Num_Not_Resolved_Atoms>  (13) 
nan

$$$$
CHEMBL4850703
     RDKit          3D

  0  0  0  0  0  0  0  0  0  0999 V3000
M  V30 BEGIN CTAB
M  V30 COUNTS 45 48 0 0 0
M  V30 BEGIN ATOM
M  V30 1 C 3.568395 -1.571207 2.716882 0
M  V30 2 C 3.172994 -0.777797 1.476386 0 CFG=2
M  V30 3 C 3.278390 -1.698944 0.265118 0
M  V30 4 O 4.593408 -2.150536 0.151938 0
M  V30 5 N 4.028876 0.361567 1.311903 0
M  V30 6 C 5.309080 0.376220 1.726286 0
M  V30 7 N 5.860447 1.570029 1.440588 0
M  V30 8 N 4.942956 2.318467 0.846957 0
M  V30 9 C 3.822757 1.574208 0.770269 0
M  V30 10 C 2.550562 1.989553 0.190443 0
M  V30 11 C 2.564607 2.889501 -0.881226 0
M  V30 12 C 1.375391 3.309652 -1.461227 0
M  V30 13 C 0.155926 2.849053 -0.993523 0
M  V30 14 C 0.186356 1.962007 0.065731 0
M  V30 15 N -0.947833 1.351412 0.717881 0
M  V30 16 C -1.265564 0.130645 0.078343 0
M  V30 17 O -0.564532 -0.229763 -0.902663 0
M  V30 18 C -2.361611 -0.737874 0.490442 0
M  V30 19 C -2.651386 -1.924876 -0.150497 0
M  V30 20 C -3.748031 -2.489455 0.500282 0
M  V30 21 C -4.430828 -3.662568 0.261939 0
M  V30 22 C -5.506749 -4.034702 1.042798 0
M  V30 23 C -5.841099 -3.160362 2.060882 0
M  V30 24 C -5.171823 -1.982134 2.316708 0
M  V30 25 C -4.096339 -1.630486 1.520239 0
M  V30 26 N -3.239826 -0.573205 1.494717 0
M  V30 27 N 1.340714 1.552944 0.630194 0
M  V30 28 H 4.637761 -1.837895 2.687630 0
M  V30 29 H 3.341901 -0.952152 3.618286 0
M  V30 30 H 2.976839 -2.511054 2.698245 0
M  V30 31 H 2.116053 -0.488832 1.579382 0
M  V30 32 H 3.034718 -1.112557 -0.639067 0
M  V30 33 H 2.592042 -2.550738 0.384844 0
M  V30 34 H 4.583340 -2.981235 -0.397497 0
M  V30 35 H 5.950554 -0.333125 2.214057 0
M  V30 36 H 3.507377 3.278150 -1.281618 0
M  V30 37 H 1.323862 4.005182 -2.293622 0
M  V30 38 H -0.826680 3.091637 -1.348113 0
M  V30 39 H -1.537841 1.659010 1.546865 0
M  V30 40 H -2.160973 -2.401445 -1.012559 0
M  V30 41 H -4.151305 -4.347314 -0.552990 0
M  V30 42 H -6.060755 -4.949327 0.878572 0
M  V30 43 H -6.695448 -3.466589 2.672529 0
M  V30 44 H -5.462510 -1.320955 3.124305 0
M  V30 45 H -3.265339 0.234885 2.153107 0
M  V30 END ATOM
M  V30 BEGIN BOND
M  V30 1 1 1 2
M  V30 2 1 2 3
M  V30 3 1 3 4
M  V30 4 1 2 5
M  V30 5 1 5 6
M  V30 6 2 6 7
M  V30 7 1 7 8
M  V30 8 2 8 9
M  V30 9 1 9 10
M  V30 10 2 10 11
M  V30 11 1 11 12
M  V30 12 2 12 13
M  V30 13 1 13 14
M  V30 14 1 14 15
M  V30 15 1 15 16
M  V30 16 2 16 17
M  V30 17 1 16 18
M  V30 18 2 18 19
M  V30 19 1 19 20
M  V30 20 2 20 21
M  V30 21 1 21 22
M  V30 22 2 22 23
M  V30 23 1 23 24
M  V30 24 2 24 25
M  V30 25 1 25 26
M  V30 26 2 14 27
M  V30 27 1 9 5
M  V30 28 1 27 10
M  V30 29 1 26 18
M  V30 30 1 25 20
M  V30 31 1 1 28
M  V30 32 1 1 29
M  V30 33 1 1 30
M  V30 34 1 2 31 CFG=1
M  V30 35 1 3 32
M  V30 36 1 3 33
M  V30 37 1 4 34
M  V30 38 1 6 35
M  V30 39 1 11 36
M  V30 40 1 12 37
M  V30 41 1 13 38
M  V30 42 1 15 39
M  V30 43 1 19 40
M  V30 44 1 21 41
M  V30 45 1 22 42
M  V30 46 1 23 43
M  V30 47 1 24 44
M  V30 48 1 26 45
M  V30 END BOND
M  V30 END CTAB
M  END
>  <Dataset>  (14) 
ChEMBL_Kinases

>  <Ligand_Instance>  (14) 
nan

>  <PDB_ID>  (14) 
nan

>  <Standardized_SMILES>  (14) 
C[C@H](CO)n1cnnc1-c1cccc(NC(=O)c2cc3ccccc3[nH]2)n1

>  <Name>  (14) 
nan

>  <Pocket>  (14) 
nan

>  <ATP_Site>  (14) 
nan

>  <Peripheral>  (14) 
nan

>  <Num_H_Atoms_ProtBoundConf>  (14) 
nan

>  <Num_Resolved_Atoms>  (14) 
nan

>  <Num_Not_Resolved_Atoms>  (14) 
nan

$$$$
CHEMBL4850753
     RDKit          3D

  0  0  0  0  0  0  0  0  0  0999 V3000
M  V30 BEGIN CTAB
M  V30 COUNTS 54 56 0 0 0
M  V30 BEGIN ATOM
M  V30 1 C -1.580510 -3.735074 3.520138 0
M  V30 2 O -0.353949 -3.304713 4.027241 0
M  V30 3 C 0.536373 -3.023300 2.953632 0 CFG=1
M  V30 4 C 0.867322 -1.579955 3.028818 0
M  V30 5 C 2.198367 -1.171279 2.463845 0
M  V30 6 C 3.045955 -2.272743 1.967663 0 CFG=2
M  V30 7 C 2.778253 -2.699361 0.578161 0
M  V30 8 N 2.938361 -1.731772 -0.464208 0
M  V30 9 C 2.221511 -0.659612 -1.052706 0
M  V30 10 C 0.944950 -0.246358 -0.721028 0
M  V30 11 C 0.211698 0.764072 -1.284470 0
M  V30 12 N -1.102343 1.074831 -0.831190 0
M  V30 13 C -1.762641 2.188539 -1.531244 0
M  V30 14 C -3.100402 2.328090 -0.918627 0
M  V30 15 C -3.285410 3.360825 -0.025637 0
M  V30 16 N -4.468209 3.535616 0.565336 0
M  V30 17 C -5.469897 2.705718 0.287150 0
M  V30 18 C -5.292564 1.671414 -0.604376 0
M  V30 19 C -4.082058 1.424008 -1.263961 0
M  V30 20 C -3.924314 0.313248 -2.216452 0
M  V30 21 F -3.575150 0.778672 -3.489767 0
M  V30 22 F -5.196103 -0.250357 -2.403078 0
M  V30 23 F -3.131860 -0.708853 -1.805866 0
M  V30 24 N 0.841638 1.402602 -2.270045 0
M  V30 25 C 2.071010 1.114845 -2.697010 0
M  V30 26 C 2.744036 0.088846 -2.083821 0
M  V30 27 C 4.084539 -0.198565 -2.575056 0
M  V30 28 N 5.161787 -0.446776 -2.974979 0
M  V30 29 C 3.033298 -3.438950 2.946225 0
M  V30 30 C 1.657579 -3.986820 3.093460 0
M  V30 31 H -1.399227 -4.644598 2.929116 0
M  V30 32 H -2.343847 -3.808563 4.295830 0
M  V30 33 H -1.931280 -2.924668 2.827839 0
M  V30 34 H -0.109517 -3.261229 2.051659 0
M  V30 35 H 0.078219 -1.039911 2.429489 0
M  V30 36 H 0.687413 -1.205857 4.071025 0
M  V30 37 H 2.745422 -0.723981 3.375647 0
M  V30 38 H 2.158670 -0.308088 1.778175 0
M  V30 39 H 4.127199 -1.918386 1.992395 0
M  V30 40 H 3.372688 -3.623050 0.321726 0
M  V30 41 H 1.714215 -3.101352 0.548467 0
M  V30 42 H 3.895791 -1.870471 -0.922204 0
M  V30 43 H 0.456051 -0.797672 0.094389 0
M  V30 44 H -1.499350 0.515230 -0.057774 0
M  V30 45 H -1.129418 3.087696 -1.388991 0
M  V30 46 H -1.782157 1.894026 -2.601632 0
M  V30 47 H -2.453143 4.037759 0.196289 0
M  V30 48 H -6.437513 2.846907 0.770061 0
M  V30 49 H -6.161268 1.023488 -0.788369 0
M  V30 50 H 2.536614 1.650501 -3.488048 0
M  V30 51 H 3.708563 -4.223487 2.540905 0
M  V30 52 H 3.485697 -3.065075 3.879270 0
M  V30 53 H 1.539408 -4.769864 2.284931 0
M  V30 54 H 1.620462 -4.589643 4.050355 0
M  V30 END ATOM
M  V30 BEGIN BOND
M  V30 1 1 1 2
M  V30 2 1 2 3
M  V30 3 1 3 4
M  V30 4 1 4 5
M  V30 5 1 5 6
M  V30 6 1 6 7
M  V30 7 1 7 8
M  V30 8 1 8 9
M  V30 9 2 9 10
M  V30 10 1 10 11
M  V30 11 1 11 12
M  V30 12 1 12 13
M  V30 13 1 13 14
M  V30 14 2 14 15
M  V30 15 1 15 16
M  V30 16 2 16 17
M  V30 17 1 17 18
M  V30 18 2 18 19
M  V30 19 1 19 20
M  V30 20 1 20 21
M  V30 21 1 20 22
M  V30 22 1 20 23
M  V30 23 2 11 24
M  V30 24 1 24 25
M  V30 25 2 25 26
M  V30 26 1 26 27
M  V30 27 3 27 28
M  V30 28 1 6 29
M  V30 29 1 29 30
M  V30 30 1 30 3
M  V30 31 1 26 9
M  V30 32 1 19 14
M  V30 33 1 1 31
M  V30 34 1 1 32
M  V30 35 1 1 33
M  V30 36 1 3 34 CFG=3
M  V30 37 1 4 35
M  V30 38 1 4 36
M  V30 39 1 5 37
M  V30 40 1 5 38
M  V30 41 1 6 39 CFG=3
M  V30 42 1 7 40
M  V30 43 1 7 41
M  V30 44 1 8 42
M  V30 45 1 10 43
M  V30 46 1 12 44
M  V30 47 1 13 45
M  V30 48 1 13 46
M  V30 49 1 15 47
M  V30 50 1 17 48
M  V30 51 1 18 49
M  V30 52 1 25 50
M  V30 53 1 29 51
M  V30 54 1 29 52
M  V30 55 1 30 53
M  V30 56 1 30 54
M  V30 END BOND
M  V30 END CTAB
M  END
>  <Dataset>  (15) 
ChEMBL_Kinases

>  <Ligand_Instance>  (15) 
nan

>  <PDB_ID>  (15) 
nan

>  <Standardized_SMILES>  (15) 
CO[C@H]1CC[C@H](CNc2cc(NCc3cnccc3C(F)(F)F)ncc2C#N)CC1

>  <Name>  (15) 
nan

>  <Pocket>  (15) 
nan

>  <ATP_Site>  (15) 
nan

>  <Peripheral>  (15) 
nan

>  <Num_H_Atoms_ProtBoundConf>  (15) 
nan

>  <Num_Resolved_Atoms>  (15) 
nan

>  <Num_Not_Resolved_Atoms>  (15) 
nan

$$$$
CHEMBL4086439
     RDKit          3D

  0  0  0  0  0  0  0  0  0  0999 V3000
M  V30 BEGIN CTAB
M  V30 COUNTS 60 62 0 0 0
M  V30 BEGIN ATOM
M  V30 1 O -1.120003 -2.237833 4.663067 0
M  V30 2 C -0.809440 -1.342284 3.839029 0
M  V30 3 C 0.615464 -1.413567 3.483889 0
M  V30 4 C 1.041624 -0.376030 2.510031 0
M  V30 5 O 0.497202 -0.336065 1.372781 0
M  V30 6 N 2.067550 0.571763 2.868711 0
M  V30 7 C 2.376614 1.508001 1.841872 0
M  V30 8 C 1.573945 2.643821 1.948433 0
M  V30 9 C 1.726747 3.684202 1.026206 0
M  V30 10 C 2.681261 3.563251 0.016831 0
M  V30 11 C 3.465328 2.421899 -0.064379 0
M  V30 12 C 4.488775 2.245268 -1.112845 0
M  V30 13 O 5.210140 1.203663 -1.193719 0
M  V30 14 O 4.634249 3.296217 -2.034041 0
M  V30 15 C 3.316665 1.394372 0.843872 0
M  V30 16 N -1.688781 -0.379887 3.305583 0
M  V30 17 C -3.066796 -0.383736 3.708780 0
M  V30 18 C -3.810533 -1.643496 3.402202 0
M  V30 19 C -3.863158 -1.991113 1.947943 0
M  V30 20 N -4.495165 -0.999387 1.136008 0
M  V30 21 C -4.510484 -1.402382 -0.257975 0
M  V30 22 C -3.171330 -1.616791 -0.830780 0
M  V30 23 C -2.661666 -2.915086 -0.717290 0
M  V30 24 C -1.406361 -3.300788 -1.203998 0
M  V30 25 C -0.644003 -2.321762 -1.830171 0
M  V30 26 C 0.652117 -2.782179 -2.315792 0
M  V30 27 C 1.165894 -2.471277 -3.576055 0
M  V30 28 C 2.396674 -2.926562 -3.998255 0
M  V30 29 C 3.165418 -3.717182 -3.166464 0
M  V30 30 C 2.689459 -4.050113 -1.901801 0
M  V30 31 C 1.445741 -3.582007 -1.492538 0
M  V30 32 C -1.124621 -1.034249 -1.954413 0
M  V30 33 Cl -0.125990 0.139724 -2.745074 0
M  V30 34 C -2.366752 -0.691259 -1.462277 0
M  V30 35 H 1.277558 -1.349787 4.388490 0
M  V30 36 H 0.802500 -2.392900 3.023446 0
M  V30 37 H 2.468518 0.465235 3.840713 0
M  V30 38 H 0.810877 2.828624 2.692077 0
M  V30 39 H 1.122065 4.587673 1.072202 0
M  V30 40 H 2.835807 4.346675 -0.722968 0
M  V30 41 H 5.408997 3.249548 -2.695634 0
M  V30 42 H 3.873148 0.471658 0.867079 0
M  V30 43 H -1.359813 0.333633 2.625258 0
M  V30 44 H -3.125635 -0.245483 4.817430 0
M  V30 45 H -3.636759 0.475426 3.290162 0
M  V30 46 H -4.812691 -1.555421 3.853974 0
M  V30 47 H -3.320045 -2.493676 3.916517 0
M  V30 48 H -2.812744 -2.111303 1.608138 0
M  V30 49 H -4.457036 -2.924181 1.858620 0
M  V30 50 H -4.033200 -0.059321 1.195063 0
M  V30 51 H -5.141525 -2.285833 -0.427603 0
M  V30 52 H -4.969669 -0.558630 -0.839360 0
M  V30 53 H -3.243763 -3.702412 -0.228342 0
M  V30 54 H -1.085876 -4.326072 -1.075698 0
M  V30 55 H 0.568722 -1.854200 -4.228476 0
M  V30 56 H 2.792268 -2.685130 -4.973105 0
M  V30 57 H 4.153101 -4.123538 -3.416616 0
M  V30 58 H 3.230699 -4.670203 -1.178963 0
M  V30 59 H 1.040388 -3.819113 -0.515943 0
M  V30 60 H -2.775003 0.296623 -1.538964 0
M  V30 END ATOM
M  V30 BEGIN BOND
M  V30 1 2 1 2
M  V30 2 1 2 3
M  V30 3 1 3 4
M  V30 4 2 4 5
M  V30 5 1 4 6
M  V30 6 1 6 7
M  V30 7 2 7 8
M  V30 8 1 8 9
M  V30 9 2 9 10
M  V30 10 1 10 11
M  V30 11 1 11 12
M  V30 12 2 12 13
M  V30 13 1 12 14
M  V30 14 2 11 15
M  V30 15 1 2 16
M  V30 16 1 16 17
M  V30 17 1 17 18
M  V30 18 1 18 19
M  V30 19 1 19 20
M  V30 20 1 20 21
M  V30 21 1 21 22
M  V30 22 2 22 23
M  V30 23 1 23 24
M  V30 24 2 24 25
M  V30 25 1 25 26
M  V30 26 2 26 27
M  V30 27 1 27 28
M  V30 28 2 28 29
M  V30 29 1 29 30
M  V30 30 2 30 31
M  V30 31 1 25 32
M  V30 32 1 32 33
M  V30 33 2 32 34
M  V30 34 1 15 7
M  V30 35 1 34 22
M  V30 36 1 31 26
M  V30 37 1 3 35
M  V30 38 1 3 36
M  V30 39 1 6 37
M  V30 40 1 8 38
M  V30 41 1 9 39
M  V30 42 1 10 40
M  V30 43 1 14 41
M  V30 44 1 15 42
M  V30 45 1 16 43
M  V30 46 1 17 44
M  V30 47 1 17 45
M  V30 48 1 18 46
M  V30 49 1 18 47
M  V30 50 1 19 48
M  V30 51 1 19 49
M  V30 52 1 20 50
M  V30 53 1 21 51
M  V30 54 1 21 52
M  V30 55 1 23 53
M  V30 56 1 24 54
M  V30 57 1 27 55
M  V30 58 1 28 56
M  V30 59 1 29 57
M  V30 60 1 30 58
M  V30 61 1 31 59
M  V30 62 1 34 60
M  V30 END BOND
M  V30 END CTAB
M  END
>  <Dataset>  (16) 
ChEMBL_Kinases

>  <Ligand_Instance>  (16) 
nan

>  <PDB_ID>  (16) 
nan

>  <Standardized_SMILES>  (16) 
O=C(CC(=O)Nc1cccc(C(=O)O)c1)NCCCNCc1ccc(-c2ccccc2)c(Cl)c1

>  <Name>  (16) 
nan

>  <Pocket>  (16) 
nan

>  <ATP_Site>  (16) 
nan

>  <Peripheral>  (16) 
nan

>  <Num_H_Atoms_ProtBoundConf>  (16) 
nan

>  <Num_Resolved_Atoms>  (16) 
nan

>  <Num_Not_Resolved_Atoms>  (16) 
nan

$$$$
CHEMBL4850768
     RDKit          3D

  0  0  0  0  0  0  0  0  0  0999 V3000
M  V30 BEGIN CTAB
M  V30 COUNTS 44 46 0 0 0
M  V30 BEGIN ATOM
M  V30 1 C -2.342587 -4.192574 -0.690683 0
M  V30 2 O -2.365178 -3.819522 0.670204 0
M  V30 3 C -1.351182 -3.091226 1.271192 0
M  V30 4 C -0.231242 -2.669441 0.583331 0
M  V30 5 C 0.733206 -1.947837 1.256638 0
M  V30 6 N 1.890558 -1.523906 0.502668 0
M  V30 7 C 1.546529 -0.230547 -0.031456 0
M  V30 8 O 0.397668 0.267383 0.226146 0
M  V30 9 C 2.305225 0.716806 -0.883320 0 CFG=2
M  V30 10 N 3.587036 0.134942 -1.156532 0
M  V30 11 C 2.508579 2.051614 -0.234301 0
M  V30 12 C 3.290606 2.925817 -1.195447 0
M  V30 13 C 2.723900 4.313407 -1.087648 0
M  V30 14 C 1.565663 4.270301 -0.120756 0
M  V30 15 C 1.255283 2.797438 0.090984 0
M  V30 16 C 0.666062 -1.606672 2.592152 0
M  V30 17 C -0.454464 -2.030112 3.275364 0
M  V30 18 C -1.422826 -2.752157 2.608066 0
M  V30 19 C -2.608229 -3.188008 3.374810 0
M  V30 20 C -2.876020 -2.960894 4.697738 0
M  V30 21 N -4.053300 -3.513363 5.036951 0
M  V30 22 C -4.500844 -4.083973 3.892569 0
M  V30 23 O -3.630565 -3.876363 2.932783 0
M  V30 24 H -3.352570 -4.352168 -1.105053 0
M  V30 25 H -1.645278 -5.033369 -0.843969 0
M  V30 26 H -1.924960 -3.326236 -1.281817 0
M  V30 27 H -0.107883 -2.897709 -0.462184 0
M  V30 28 H 2.851126 -1.778032 0.200640 0
M  V30 29 H 1.698033 0.869758 -1.805740 0
M  V30 30 H 3.506274 -0.840517 -1.531082 0
M  V30 31 H 4.157762 0.672318 -1.829630 0
M  V30 32 H 3.121654 1.871211 0.687389 0
M  V30 33 H 4.378448 2.875714 -1.022396 0
M  V30 34 H 3.105280 2.582608 -2.254742 0
M  V30 35 H 2.298425 4.683746 -2.052047 0
M  V30 36 H 3.471737 5.083385 -0.790912 0
M  V30 37 H 1.880405 4.779646 0.810392 0
M  V30 38 H 0.662916 4.822461 -0.488599 0
M  V30 39 H 0.952096 2.699093 1.160294 0
M  V30 40 H 0.373176 2.485321 -0.510230 0
M  V30 41 H 1.467584 -1.043796 3.021840 0
M  V30 42 H -0.516779 -1.767944 4.322529 0
M  V30 43 H -2.187218 -2.400983 5.334900 0
M  V30 44 H -5.426221 -4.646439 3.706549 0
M  V30 END ATOM
M  V30 BEGIN BOND
M  V30 1 1 1 2
M  V30 2 1 2 3
M  V30 3 2 3 4
M  V30 4 1 4 5
M  V30 5 1 5 6
M  V30 6 1 6 7
M  V30 7 2 7 8
M  V30 8 1 7 9
M  V30 9 1 9 10
M  V30 10 1 9 11
M  V30 11 1 11 12
M  V30 12 1 12 13
M  V30 13 1 13 14
M  V30 14 1 14 15
M  V30 15 2 5 16
M  V30 16 1 16 17
M  V30 17 2 17 18
M  V30 18 1 18 19
M  V30 19 2 19 20
M  V30 20 1 20 21
M  V30 21 2 21 22
M  V30 22 1 22 23
M  V30 23 1 18 3
M  V30 24 1 23 19
M  V30 25 1 15 11
M  V30 26 1 1 24
M  V30 27 1 1 25
M  V30 28 1 1 26
M  V30 29 1 4 27
M  V30 30 1 6 28
M  V30 31 1 9 29 CFG=3
M  V30 32 1 10 30
M  V30 33 1 10 31
M  V30 34 1 11 32
M  V30 35 1 12 33
M  V30 36 1 12 34
M  V30 37 1 13 35
M  V30 38 1 13 36
M  V30 39 1 14 37
M  V30 40 1 14 38
M  V30 41 1 15 39
M  V30 42 1 15 40
M  V30 43 1 16 41
M  V30 44 1 17 42
M  V30 45 1 20 43
M  V30 46 1 22 44
M  V30 END BOND
M  V30 END CTAB
M  END
>  <Dataset>  (17) 
ChEMBL_Kinases

>  <Ligand_Instance>  (17) 
nan

>  <PDB_ID>  (17) 
nan

>  <Standardized_SMILES>  (17) 
COc1cc(NC(=O)[C@H](N)C2CCCC2)ccc1-c1cnco1

>  <Name>  (17) 
nan

>  <Pocket>  (17) 
nan

>  <ATP_Site>  (17) 
nan

>  <Peripheral>  (17) 
nan

>  <Num_H_Atoms_ProtBoundConf>  (17) 
nan

>  <Num_Resolved_Atoms>  (17) 
nan

>  <Num_Not_Resolved_Atoms>  (17) 
nan

$$$$
CHEMBL4086437
     RDKit          3D

  0  0  0  0  0  0  0  0  0  0999 V3000
M  V30 BEGIN CTAB
M  V30 COUNTS 35 37 0 0 0
M  V30 BEGIN ATOM
M  V30 1 C 0.329600 -5.701386 1.625701 0
M  V30 2 C -0.246558 -4.906614 2.771110 0
M  V30 3 O -1.256742 -4.020160 2.432477 0
M  V30 4 C -1.166297 -2.945966 1.621268 0
M  V30 5 C -0.149343 -2.362667 0.910255 0
M  V30 6 C -0.262196 -1.228948 0.115709 0
M  V30 7 C 0.910058 -0.726778 -0.581303 0
M  V30 8 C 1.152077 0.558064 -0.593332 0
M  V30 9 O 0.324882 1.470660 0.042462 0
M  V30 10 C 0.790720 2.771830 -0.111343 0
M  V30 11 C 0.212970 3.918606 0.391176 0
M  V30 12 C 0.867990 5.090275 0.103561 0
M  V30 13 C 2.025109 5.123139 -0.636355 0
M  V30 14 Cl 2.791694 6.680740 -0.950412 0
M  V30 15 C 2.602793 3.990018 -1.138763 0
M  V30 16 C 1.966414 2.787827 -0.867712 0
M  V30 17 C 2.202350 1.382453 -1.178137 0
M  V30 18 O 3.151268 0.920545 -1.841002 0
M  V30 19 C -1.530093 -0.687919 0.075703 0
M  V30 20 C -2.625322 -1.188937 0.747949 0
M  V30 21 C -2.426761 -2.335756 1.529568 0
M  V30 22 O -3.619960 -2.739228 2.160177 0
M  V30 23 H 1.029384 -5.137028 1.020208 0
M  V30 24 H 0.920248 -6.545442 2.059239 0
M  V30 25 H -0.510272 -6.167366 1.060272 0
M  V30 26 H -0.601226 -5.686434 3.517807 0
M  V30 27 H 0.615670 -4.350453 3.268339 0
M  V30 28 H 0.795483 -2.835063 1.008235 0
M  V30 29 H 1.634954 -1.347874 -1.119391 0
M  V30 30 H -0.705733 3.875009 0.975960 0
M  V30 31 H 0.473486 6.040372 0.463892 0
M  V30 32 H 3.496361 3.956264 -1.718142 0
M  V30 33 H -1.659522 0.199280 -0.541074 0
M  V30 34 H -3.555522 -0.676249 0.634617 0
M  V30 35 H -4.083801 -2.046268 2.770571 0
M  V30 END ATOM
M  V30 BEGIN BOND
M  V30 1 1 1 2
M  V30 2 1 2 3
M  V30 3 1 3 4
M  V30 4 2 4 5
M  V30 5 1 5 6
M  V30 6 1 6 7
M  V30 7 2 7 8
M  V30 8 1 8 9
M  V30 9 1 9 10
M  V30 10 2 10 11
M  V30 11 1 11 12
M  V30 12 2 12 13
M  V30 13 1 13 14
M  V30 14 1 13 15
M  V30 15 2 15 16
M  V30 16 1 16 17
M  V30 17 2 17 18
M  V30 18 2 6 19
M  V30 19 1 19 20
M  V30 20 2 20 21
M  V30 21 1 21 22
M  V30 22 1 21 4
M  V30 23 1 17 8
M  V30 24 1 16 10
M  V30 25 1 1 23
M  V30 26 1 1 24
M  V30 27 1 1 25
M  V30 28 1 2 26
M  V30 29 1 2 27
M  V30 30 1 5 28
M  V30 31 1 7 29
M  V30 32 1 11 30
M  V30 33 1 12 31
M  V30 34 1 15 32
M  V30 35 1 19 33
M  V30 36 1 20 34
M  V30 37 1 22 35
M  V30 END BOND
M  V30 END CTAB
M  END
>  <Dataset>  (18) 
ChEMBL_Kinases

>  <Ligand_Instance>  (18) 
nan

>  <PDB_ID>  (18) 
nan

>  <Standardized_SMILES>  (18) 
CCOc1cc(/C=C2\Oc3ccc(Cl)cc3C2=O)ccc1O

>  <Name>  (18) 
nan

>  <Pocket>  (18) 
nan

>  <ATP_Site>  (18) 
nan

>  <Peripheral>  (18) 
nan

>  <Num_H_Atoms_ProtBoundConf>  (18) 
nan

>  <Num_Resolved_Atoms>  (18) 
nan

>  <Num_Not_Resolved_Atoms>  (18) 
nan

$$$$
CHEMBL4850780
     RDKit          3D

  0  0  0  0  0  0  0  0  0  0999 V3000
M  V30 BEGIN CTAB
M  V30 COUNTS 54 56 0 0 0
M  V30 BEGIN ATOM
M  V30 1 C 0.625007 -5.307393 1.679081 0
M  V30 2 N 1.980386 -4.954576 2.081690 0
M  V30 3 C 3.067521 -5.230098 1.177551 0
M  V30 4 C 3.401093 -4.224695 0.270555 0
M  V30 5 C 4.432427 -4.353986 -0.663306 0
M  V30 6 O 4.693102 -3.302557 -1.525534 0
M  V30 7 C 3.981857 -2.113312 -1.518081 0
M  V30 8 C 4.436344 -1.092554 -0.705340 0
M  V30 9 C 3.713780 0.079387 -0.714426 0
M  V30 10 C 2.574266 0.209756 -1.517354 0
M  V30 11 N 1.833668 1.451492 -1.507721 0
M  V30 12 C 0.775322 1.555009 -0.539914 0
M  V30 13 O 0.626855 0.520877 0.194356 0
M  V30 14 N -0.103505 2.659021 -0.317254 0
M  V30 15 C -1.072427 2.496055 0.715499 0
M  V30 16 C -0.691207 2.893318 1.980862 0
M  V30 17 C -1.589463 2.759460 3.024219 0
M  V30 18 C -2.836130 2.232102 2.758485 0
M  V30 19 C -3.265361 1.820729 1.513869 0
M  V30 20 C -4.614533 1.254885 1.251262 0
M  V30 21 C -5.615900 2.329199 0.900242 0
M  V30 22 C -5.090566 0.400147 2.404851 0
M  V30 23 C -4.457390 0.407313 -0.009335 0
M  V30 24 C -2.333143 1.975287 0.509470 0
M  V30 25 C 2.149497 -0.833638 -2.317966 0
M  V30 26 C 2.852401 -2.017240 -2.329122 0
M  V30 27 N 5.112660 -5.534996 -0.646191 0
M  V30 28 C 4.774007 -6.503362 0.244422 0
M  V30 29 N 3.782476 -6.381601 1.143652 0
M  V30 30 H 0.149662 -4.378761 1.295100 0
M  V30 31 H 0.683851 -6.035608 0.846836 0
M  V30 32 H 0.064634 -5.734478 2.540950 0
M  V30 33 H 2.057568 -4.509669 3.037458 0
M  V30 34 H 2.846503 -3.290351 0.273055 0
M  V30 35 H 5.323004 -1.244340 -0.103777 0
M  V30 36 H 4.043793 0.897562 -0.088939 0
M  V30 37 H 1.929927 2.324770 -2.099594 0
M  V30 38 H 0.106292 3.461739 -0.978575 0
M  V30 39 H 0.281130 3.308704 2.207923 0
M  V30 40 H -1.318966 3.063125 4.031635 0
M  V30 41 H -3.505291 2.145944 3.602816 0
M  V30 42 H -5.522080 3.222381 1.548338 0
M  V30 43 H -6.621763 1.895570 1.059540 0
M  V30 44 H -5.545323 2.563074 -0.172683 0
M  V30 45 H -4.403150 -0.482661 2.455217 0
M  V30 46 H -5.123780 0.935732 3.349444 0
M  V30 47 H -6.085168 -0.015951 2.144494 0
M  V30 48 H -4.506626 1.020231 -0.924246 0
M  V30 49 H -5.209966 -0.409027 -0.059700 0
M  V30 50 H -3.466296 -0.111159 0.050376 0
M  V30 51 H -2.581578 1.678758 -0.504256 0
M  V30 52 H 1.267859 -0.720124 -2.933596 0
M  V30 53 H 2.545551 -2.855149 -2.946168 0
M  V30 54 H 5.338129 -7.447794 0.238530 0
M  V30 END ATOM
M  V30 BEGIN BOND
M  V30 1 1 1 2
M  V30 2 1 2 3
M  V30 3 2 3 4
M  V30 4 1 4 5
M  V30 5 1 5 6
M  V30 6 1 6 7
M  V30 7 2 7 8
M  V30 8 1 8 9
M  V30 9 2 9 10
M  V30 10 1 10 11
M  V30 11 1 11 12
M  V30 12 2 12 13
M  V30 13 1 12 14
M  V30 14 1 14 15
M  V30 15 2 15 16
M  V30 16 1 16 17
M  V30 17 2 17 18
M  V30 18 1 18 19
M  V30 19 1 19 20
M  V30 20 1 20 21
M  V30 21 1 20 22
M  V30 22 1 20 23
M  V30 23 2 19 24
M  V30 24 1 10 25
M  V30 25 2 25 26
M  V30 26 2 5 27
M  V30 27 1 27 28
M  V30 28 2 28 29
M  V30 29 1 29 3
M  V30 30 1 26 7
M  V30 31 1 24 15
M  V30 32 1 1 30
M  V30 33 1 1 31
M  V30 34 1 1 32
M  V30 35 1 2 33
M  V30 36 1 4 34
M  V30 37 1 8 35
M  V30 38 1 9 36
M  V30 39 1 11 37
M  V30 40 1 14 38
M  V30 41 1 16 39
M  V30 42 1 17 40
M  V30 43 1 18 41
M  V30 44 1 21 42
M  V30 45 1 21 43
M  V30 46 1 21 44
M  V30 47 1 22 45
M  V30 48 1 22 46
M  V30 49 1 22 47
M  V30 50 1 23 48
M  V30 51 1 23 49
M  V30 52 1 23 50
M  V30 53 1 24 51
M  V30 54 1 25 52
M  V30 55 1 26 53
M  V30 56 1 28 54
M  V30 END BOND
M  V30 END CTAB
M  END
>  <Dataset>  (19) 
ChEMBL_Kinases

>  <Ligand_Instance>  (19) 
nan

>  <PDB_ID>  (19) 
nan

>  <Standardized_SMILES>  (19) 
CNc1cc(Oc2ccc(NC(=O)Nc3cccc(C(C)(C)C)c3)cc2)ncn1

>  <Name>  (19) 
nan

>  <Pocket>  (19) 
nan

>  <ATP_Site>  (19) 
nan

>  <Peripheral>  (19) 
nan

>  <Num_H_Atoms_ProtBoundConf>  (19) 
nan

>  <Num_Resolved_Atoms>  (19) 
nan

>  <Num_Not_Resolved_Atoms>  (19) 
nan

$$$$
CHEMBL4850436
     RDKit          3D

  0  0  0  0  0  0  0  0  0  0999 V3000
M  V30 BEGIN CTAB
M  V30 COUNTS 48 52 0 0 0
M  V30 BEGIN ATOM
M  V30 1 C -4.622669 -7.934160 1.964428 0
M  V30 2 N -3.348600 -7.202798 1.907388 0
M  V30 3 C -3.154658 -5.873215 1.778149 0
M  V30 4 C -1.770797 -5.678099 1.775275 0
M  V30 5 C -1.189673 -4.348348 1.650488 0
M  V30 6 C 0.030729 -4.172482 1.030105 0
M  V30 7 C 0.537345 -2.894389 0.937420 0
M  V30 8 C -0.069526 -1.755912 1.413668 0
M  V30 9 C 0.424397 -0.481653 1.326729 0
M  V30 10 N 1.660980 -0.271475 0.684800 0
M  V30 11 C 2.397759 0.898244 0.378799 0
M  V30 12 C 3.792663 1.008770 0.464988 0
M  V30 13 C 4.496175 2.144566 0.146819 0
M  V30 14 N 3.828531 3.220644 -0.272579 0
M  V30 15 C 2.479685 3.228482 -0.394799 0
M  V30 16 C 1.833081 4.446143 -0.859577 0
M  V30 17 C 0.480903 4.622926 -1.037581 0
M  V30 18 C -0.098390 5.792670 -1.480344 0
M  V30 19 F -1.442008 5.891118 -1.631345 0
M  V30 20 C 0.707814 6.876268 -1.772556 0
M  V30 21 C 2.069650 6.747584 -1.609807 0
M  V30 22 C 2.592708 5.560611 -1.166214 0
M  V30 23 F 3.936052 5.501072 -1.028423 0
M  V30 24 C 1.831734 2.083670 -0.068949 0
M  V30 25 C -0.375668 0.485739 1.881732 0
M  V30 26 C -1.593770 0.295652 2.498681 0
M  V30 27 N -2.047437 -0.990265 2.562483 0
M  V30 28 C -1.286038 -1.971373 2.026601 0
M  V30 29 C -1.834300 -3.232376 2.143580 0
M  V30 30 C -1.173968 -6.917719 1.905011 0
M  V30 31 N -2.178833 -7.833552 1.983687 0
M  V30 32 H -4.560713 -8.828341 2.590413 0
M  V30 33 H -4.946400 -8.159419 0.929010 0
M  V30 34 H -5.359968 -7.180054 2.343530 0
M  V30 35 H -3.944256 -5.119828 1.694268 0
M  V30 36 H 0.557206 -5.029373 0.634952 0
M  V30 37 H 1.488463 -2.820964 0.444750 0
M  V30 38 H 2.236041 -1.051361 0.318478 0
M  V30 39 H 4.339303 0.117562 0.811602 0
M  V30 40 H 5.577000 2.134994 0.245689 0
M  V30 41 H -0.178685 3.814768 -0.824757 0
M  V30 42 H 0.283980 7.807719 -2.121849 0
M  V30 43 H 2.680443 7.601053 -1.842058 0
M  V30 44 H 0.761379 2.145410 -0.201544 0
M  V30 45 H -0.057295 1.515609 1.869225 0
M  V30 46 H -2.170503 1.109915 2.914414 0
M  V30 47 H -2.783528 -3.421623 2.618984 0
M  V30 48 H -0.092315 -7.049624 1.930962 0
M  V30 END ATOM
M  V30 BEGIN BOND
M  V30 1 1 1 2
M  V30 2 1 2 3
M  V30 3 2 3 4
M  V30 4 1 4 5
M  V30 5 2 5 6
M  V30 6 1 6 7
M  V30 7 2 7 8
M  V30 8 1 8 9
M  V30 9 1 9 10
M  V30 10 1 10 11
M  V30 11 2 11 12
M  V30 12 1 12 13
M  V30 13 2 13 14
M  V30 14 1 14 15
M  V30 15 1 15 16
M  V30 16 2 16 17
M  V30 17 1 17 18
M  V30 18 1 18 19
M  V30 19 2 18 20
M  V30 20 1 20 21
M  V30 21 2 21 22
M  V30 22 1 22 23
M  V30 23 2 15 24
M  V30 24 2 9 25
M  V30 25 1 25 26
M  V30 26 2 26 27
M  V30 27 1 27 28
M  V30 28 2 28 29
M  V30 29 1 4 30
M  V30 30 2 30 31
M  V30 31 1 31 2
M  V30 32 1 29 5
M  V30 33 1 28 8
M  V30 34 1 24 11
M  V30 35 1 22 16
M  V30 36 1 1 32
M  V30 37 1 1 33
M  V30 38 1 1 34
M  V30 39 1 3 35
M  V30 40 1 6 36
M  V30 41 1 7 37
M  V30 42 1 10 38
M  V30 43 1 12 39
M  V30 44 1 13 40
M  V30 45 1 17 41
M  V30 46 1 20 42
M  V30 47 1 21 43
M  V30 48 1 24 44
M  V30 49 1 25 45
M  V30 50 1 26 46
M  V30 51 1 29 47
M  V30 52 1 30 48
M  V30 END BOND
M  V30 END CTAB
M  END
>  <Dataset>  (20) 
ChEMBL_Kinases

>  <Ligand_Instance>  (20) 
nan

>  <PDB_ID>  (20) 
nan

>  <Standardized_SMILES>  (20) 
Cn1cc(-c2ccc3c(Nc4ccnc(-c5cc(F)ccc5F)c4)ccnc3c2)cn1

>  <Name>  (20) 
nan

>  <Pocket>  (20) 
nan

>  <ATP_Site>  (20) 
nan

>  <Peripheral>  (20) 
nan

>  <Num_H_Atoms_ProtBoundConf>  (20) 
nan

>  <Num_Resolved_Atoms>  (20) 
nan

>  <Num_Not_Resolved_Atoms>  (20) 
nan

$$$$
CHEMBL4849353
     RDKit          3D

  0  0  0  0  0  0  0  0  0  0999 V3000
M  V30 BEGIN CTAB
M  V30 COUNTS 58 60 0 0 0
M  V30 BEGIN ATOM
M  V30 1 C 1.158370 -4.819076 1.029275 0
M  V30 2 O 1.741460 -3.604513 0.727916 0
M  V30 3 C 2.455314 -3.548298 -0.431595 0 CFG=1
M  V30 4 C 1.765031 -2.632417 -1.403242 0
M  V30 5 C 2.032944 -1.164915 -1.149236 0
M  V30 6 C 2.947390 -1.021726 0.039019 0 CFG=2
M  V30 7 N 3.120275 0.395706 0.289136 0
M  V30 8 C 2.094255 1.311871 0.640371 0
M  V30 9 N 2.421185 2.621686 0.834705 0
M  V30 10 C 1.507755 3.534370 1.171988 0
M  V30 11 C 0.235214 3.046145 1.303133 0
M  V30 12 C -0.786014 3.986566 1.664312 0
M  V30 13 N -0.564026 5.349061 1.889364 0
M  V30 14 O -1.961297 4.303507 1.931796 0
M  V30 15 C -0.172072 1.762865 1.128127 0
M  V30 16 N -1.529106 1.390910 1.299897 0
M  V30 17 C -1.911264 0.011545 1.100524 0 CFG=2
M  V30 18 C -1.638834 -0.485364 -0.288854 0
M  V30 19 C -2.882340 -0.808901 -1.073641 0
M  V30 20 C -3.396836 -2.169110 -0.707569 0
M  V30 21 C -3.055887 -2.573881 0.708559 0
M  V30 22 C -3.653730 -1.669674 1.743048 0 CFG=2
M  V30 23 O -5.039155 -1.869822 1.724854 0
M  V30 24 C -3.311024 -0.212639 1.557704 0
M  V30 25 N 0.805360 0.881124 0.785377 0
M  V30 26 C 4.208308 -1.732619 -0.282210 0
M  V30 27 C 3.894033 -3.212542 -0.329135 0
M  V30 28 H 1.869544 -5.656150 1.137454 0
M  V30 29 H 0.671777 -4.689876 2.019929 0
M  V30 30 H 0.322552 -5.078733 0.323937 0
M  V30 31 H 2.391729 -4.575311 -0.892940 0
M  V30 32 H 1.980216 -2.929756 -2.459254 0
M  V30 33 H 0.676852 -2.793587 -1.271935 0
M  V30 34 H 1.144319 -0.544613 -1.073452 0
M  V30 35 H 2.653698 -0.824933 -2.031441 0
M  V30 36 H 2.490616 -1.404965 0.976652 0
M  V30 37 H 4.101248 0.736688 0.192791 0
M  V30 38 H 1.778361 4.575405 1.324502 0
M  V30 39 H -0.032326 6.119660 1.426432 0
M  V30 40 H -0.424660 6.337169 2.084018 0
M  V30 41 H -2.262089 2.065604 1.562540 0
M  V30 42 H -1.255296 -0.580292 1.792402 0
M  V30 43 H -1.111210 0.326386 -0.859796 0
M  V30 44 H -1.005061 -1.391971 -0.294427 0
M  V30 45 H -2.593805 -0.831498 -2.146523 0
M  V30 46 H -3.652698 -0.014080 -1.006350 0
M  V30 47 H -4.490109 -2.268500 -0.840000 0
M  V30 48 H -2.914061 -2.921960 -1.365862 0
M  V30 49 H -3.554173 -3.569675 0.852738 0
M  V30 50 H -1.991790 -2.721349 0.896068 0
M  V30 51 H -3.290464 -2.030212 2.727297 0
M  V30 52 H -5.207071 -2.819189 1.932372 0
M  V30 53 H -4.089060 0.272443 0.966266 0
M  V30 54 H -3.384094 0.255632 2.579106 0
M  V30 55 H 4.544483 -1.365676 -1.282334 0
M  V30 56 H 5.063045 -1.504130 0.403844 0
M  V30 57 H 4.414668 -3.617032 -1.223929 0
M  V30 58 H 4.414155 -3.663210 0.533537 0
M  V30 END ATOM
M  V30 BEGIN BOND
M  V30 1 1 1 2
M  V30 2 1 2 3
M  V30 3 1 3 4
M  V30 4 1 4 5
M  V30 5 1 5 6
M  V30 6 1 6 7
M  V30 7 1 7 8
M  V30 8 2 8 9
M  V30 9 1 9 10
M  V30 10 2 10 11
M  V30 11 1 11 12
M  V30 12 1 12 13
M  V30 13 2 12 14
M  V30 14 1 11 15
M  V30 15 1 15 16
M  V30 16 1 16 17
M  V30 17 1 17 18
M  V30 18 1 18 19
M  V30 19 1 19 20
M  V30 20 1 20 21
M  V30 21 1 21 22
M  V30 22 1 22 23
M  V30 23 1 22 24
M  V30 24 2 15 25
M  V30 25 1 6 26
M  V30 26 1 26 27
M  V30 27 1 27 3
M  V30 28 1 25 8
M  V30 29 1 24 17
M  V30 30 1 1 28
M  V30 31 1 1 29
M  V30 32 1 1 30
M  V30 33 1 3 31 CFG=3
M  V30 34 1 4 32
M  V30 35 1 4 33
M  V30 36 1 5 34
M  V30 37 1 5 35
M  V30 38 1 6 36 CFG=1
M  V30 39 1 7 37
M  V30 40 1 10 38
M  V30 41 1 13 39
M  V30 42 1 13 40
M  V30 43 1 16 41
M  V30 44 1 17 42 CFG=1
M  V30 45 1 18 43
M  V30 46 1 18 44
M  V30 47 1 19 45
M  V30 48 1 19 46
M  V30 49 1 20 47
M  V30 50 1 20 48
M  V30 51 1 21 49
M  V30 52 1 21 50
M  V30 53 1 22 51 CFG=1
M  V30 54 1 23 52
M  V30 55 1 24 53
M  V30 56 1 24 54
M  V30 57 1 26 55
M  V30 58 1 26 56
M  V30 59 1 27 57
M  V30 60 1 27 58
M  V30 END BOND
M  V30 END CTAB
M  END
>  <Dataset>  (21) 
ChEMBL_Kinases

>  <Ligand_Instance>  (21) 
nan

>  <PDB_ID>  (21) 
nan

>  <Standardized_SMILES>  (21) 
CO[C@H]1CC[C@H](Nc2ncc(C(N)=O)c(N[C@@H]3CCCC[C@H](O)C3)n2)CC1

>  <Name>  (21) 
nan

>  <Pocket>  (21) 
nan

>  <ATP_Site>  (21) 
nan

>  <Peripheral>  (21) 
nan

>  <Num_H_Atoms_ProtBoundConf>  (21) 
nan

>  <Num_Resolved_Atoms>  (21) 
nan

>  <Num_Not_Resolved_Atoms>  (21) 
nan

$$$$
CHEMBL4849567
     RDKit          3D

  0  0  0  0  0  0  0  0  0  0999 V3000
M  V30 BEGIN CTAB
M  V30 COUNTS 57 60 0 0 0
M  V30 BEGIN ATOM
M  V30 1 C -3.226035 -1.331782 -4.873866 0
M  V30 2 O -2.253576 -1.487154 -3.855868 0
M  V30 3 C -2.616342 -1.093584 -2.571970 0
M  V30 4 C -3.857394 -0.572293 -2.269171 0
M  V30 5 C -4.174605 -0.194544 -0.980196 0
M  V30 6 C -3.239981 -0.337864 0.027161 0
M  V30 7 C -1.989809 -0.856065 -0.243480 0
M  V30 8 C -1.708627 -1.222599 -1.543198 0
M  V30 9 N -0.416833 -1.758566 -1.813114 0
M  V30 10 C 0.676776 -1.984807 -0.933240 0
M  V30 11 N 0.735526 -3.172238 -0.306173 0
M  V30 12 C 1.737460 -3.465629 0.541713 0
M  V30 13 C 2.707638 -2.528011 0.759962 0
M  V30 14 C 3.810666 -2.780162 1.660462 0
M  V30 15 N 3.872192 -4.036552 2.319303 0
M  V30 16 O 4.787747 -2.076816 2.004029 0
M  V30 17 C 2.669840 -1.305634 0.130199 0
M  V30 18 N 3.605246 -0.247426 0.256663 0
M  V30 19 C 3.534873 1.012962 -0.397843 0
M  V30 20 C 4.490742 1.489904 -1.275502 0
M  V30 21 C 4.462377 2.703373 -1.926907 0
M  V30 22 C 3.372921 3.509401 -1.671460 0
M  V30 23 C 2.359871 3.119183 -0.804777 0
M  V30 24 C 2.483749 1.883525 -0.202317 0
M  V30 25 C 1.360134 1.548132 0.713608 0
M  V30 26 N 1.636656 -1.088763 -0.701778 0
M  V30 27 C -3.745634 0.117380 1.356758 0
M  V30 28 N -4.240008 1.459714 1.220889 0
M  V30 29 C -3.113723 2.390433 1.104498 0
M  V30 30 C -5.191542 1.637493 0.169387 0
M  V30 31 C -5.502595 0.372737 -0.607187 0
M  V30 32 H -4.194259 -1.799834 -4.594187 0
M  V30 33 H -3.435373 -0.281844 -5.130292 0
M  V30 34 H -2.892223 -1.834130 -5.817196 0
M  V30 35 H -4.594115 -0.458941 -3.061570 0
M  V30 36 H -1.321220 -0.933087 0.602586 0
M  V30 37 H -0.154997 -2.052895 -2.772856 0
M  V30 38 H 1.741218 -4.426491 1.018416 0
M  V30 39 H 4.636507 -4.481323 2.868458 0
M  V30 40 H 3.179754 -4.807914 2.413232 0
M  V30 41 H 4.479923 -0.135885 0.798729 0
M  V30 42 H 5.363579 0.852061 -1.484557 0
M  V30 43 H 5.261846 2.988928 -2.598295 0
M  V30 44 H 3.326322 4.469580 -2.171724 0
M  V30 45 H 1.538046 3.790336 -0.646880 0
M  V30 46 H 0.439682 1.293333 0.126403 0
M  V30 47 H 1.064287 2.446956 1.322159 0
M  V30 48 H 1.597533 0.724829 1.419358 0
M  V30 49 H -3.001260 0.077414 2.148764 0
M  V30 50 H -4.650051 -0.519655 1.576429 0
M  V30 51 H -2.777141 2.510140 0.062937 0
M  V30 52 H -2.238033 2.022402 1.678643 0
M  V30 53 H -3.386670 3.375604 1.545075 0
M  V30 54 H -4.729139 2.329197 -0.578362 0
M  V30 55 H -6.122251 2.145939 0.492921 0
M  V30 56 H -6.071501 -0.315545 0.048984 0
M  V30 57 H -6.048456 0.648042 -1.520201 0
M  V30 END ATOM
M  V30 BEGIN BOND
M  V30 1 1 1 2
M  V30 2 1 2 3
M  V30 3 2 3 4
M  V30 4 1 4 5
M  V30 5 2 5 6
M  V30 6 1 6 7
M  V30 7 2 7 8
M  V30 8 1 8 9
M  V30 9 1 9 10
M  V30 10 2 10 11
M  V30 11 1 11 12
M  V30 12 2 12 13
M  V30 13 1 13 14
M  V30 14 1 14 15
M  V30 15 2 14 16
M  V30 16 1 13 17
M  V30 17 1 17 18
M  V30 18 1 18 19
M  V30 19 2 19 20
M  V30 20 1 20 21
M  V30 21 2 21 22
M  V30 22 1 22 23
M  V30 23 2 23 24
M  V30 24 1 24 25
M  V30 25 2 17 26
M  V30 26 1 6 27
M  V30 27 1 27 28
M  V30 28 1 28 29
M  V30 29 1 28 30
M  V30 30 1 30 31
M  V30 31 1 8 3
M  V30 32 1 26 10
M  V30 33 1 31 5
M  V30 34 1 24 19
M  V30 35 1 1 32
M  V30 36 1 1 33
M  V30 37 1 1 34
M  V30 38 1 4 35
M  V30 39 1 7 36
M  V30 40 1 9 37
M  V30 41 1 12 38
M  V30 42 1 15 39
M  V30 43 1 15 40
M  V30 44 1 18 41
M  V30 45 1 20 42
M  V30 46 1 21 43
M  V30 47 1 22 44
M  V30 48 1 23 45
M  V30 49 1 25 46
M  V30 50 1 25 47
M  V30 51 1 25 48
M  V30 52 1 27 49
M  V30 53 1 27 50
M  V30 54 1 29 51
M  V30 55 1 29 52
M  V30 56 1 29 53
M  V30 57 1 30 54
M  V30 58 1 30 55
M  V30 59 1 31 56
M  V30 60 1 31 57
M  V30 END BOND
M  V30 END CTAB
M  END
>  <Dataset>  (22) 
ChEMBL_Kinases

>  <Ligand_Instance>  (22) 
nan

>  <PDB_ID>  (22) 
nan

>  <Standardized_SMILES>  (22) 
COc1cc2c(cc1Nc1ncc(C(N)=O)c(Nc3ccccc3C)n1)CN(C)CC2

>  <Name>  (22) 
nan

>  <Pocket>  (22) 
nan

>  <ATP_Site>  (22) 
nan

>  <Peripheral>  (22) 
nan

>  <Num_H_Atoms_ProtBoundConf>  (22) 
nan

>  <Num_Resolved_Atoms>  (22) 
nan

>  <Num_Not_Resolved_Atoms>  (22) 
nan

$$$$
CHEMBL4849576
     RDKit          3D

  0  0  0  0  0  0  0  0  0  0999 V3000
M  V30 BEGIN CTAB
M  V30 COUNTS 29 31 0 0 0
M  V30 BEGIN ATOM
M  V30 1 C -1.174983 -1.815783 2.994339 0
M  V30 2 N -0.615046 -2.894628 2.236350 0
M  V30 3 C -0.836409 -4.265273 2.645621 0
M  V30 4 C 0.167595 -2.654619 1.070278 0
M  V30 5 N 0.715565 -3.647100 0.324631 0
M  V30 6 C 1.440617 -3.380380 -0.758332 0
M  V30 7 N 1.634313 -2.092765 -1.121826 0
M  V30 8 C 1.107584 -1.071255 -0.409194 0
M  V30 9 C 1.329736 0.311589 -0.820388 0
M  V30 10 C 2.067873 0.671253 -1.928379 0
M  V30 11 N 2.010194 2.029933 -1.926409 0
M  V30 12 N 1.281500 2.449198 -0.879833 0
M  V30 13 N 1.001509 3.701530 -0.544281 0
M  V30 14 C 0.245295 3.932889 0.554251 0
M  V30 15 C -0.244655 2.897578 1.338302 0
M  V30 16 C 0.057961 1.601479 0.972130 0
M  V30 17 C 0.830728 1.410588 -0.153224 0
M  V30 18 N 0.380220 -1.379760 0.679717 0
M  V30 19 H -1.630050 -1.104049 2.253143 0
M  V30 20 H -1.995432 -2.193920 3.658712 0
M  V30 21 H -0.440495 -1.230833 3.567658 0
M  V30 22 H -1.316359 -4.307287 3.645573 0
M  V30 23 H -1.630674 -4.663355 1.950679 0
M  V30 24 H 0.081580 -4.876362 2.588095 0
M  V30 25 H 1.860959 -4.216724 -1.325722 0
M  V30 26 H 2.572436 0.027951 -2.631503 0
M  V30 27 H -0.039913 4.912598 0.914108 0
M  V30 28 H -0.848831 3.041977 2.218441 0
M  V30 29 H -0.289922 0.753133 1.535756 0
M  V30 END ATOM
M  V30 BEGIN BOND
M  V30 1 1 1 2
M  V30 2 1 2 3
M  V30 3 1 2 4
M  V30 4 2 4 5
M  V30 5 1 5 6
M  V30 6 2 6 7
M  V30 7 1 7 8
M  V30 8 1 8 9
M  V30 9 1 9 10
M  V30 10 2 10 11
M  V30 11 1 11 12
M  V30 12 1 12 13
M  V30 13 2 13 14
M  V30 14 1 14 15
M  V30 15 2 15 16
M  V30 16 1 16 17
M  V30 17 2 8 18
M  V30 18 1 18 4
M  V30 19 2 17 9
M  V30 20 1 17 12
M  V30 21 1 1 19
M  V30 22 1 1 20
M  V30 23 1 1 21
M  V30 24 1 3 22
M  V30 25 1 3 23
M  V30 26 1 3 24
M  V30 27 1 6 25
M  V30 28 1 10 26
M  V30 29 1 14 27
M  V30 30 1 15 28
M  V30 31 1 16 29
M  V30 END BOND
M  V30 END CTAB
M  END
>  <Dataset>  (23) 
ChEMBL_Kinases

>  <Ligand_Instance>  (23) 
nan

>  <PDB_ID>  (23) 
nan

>  <Standardized_SMILES>  (23) 
CN(C)c1ncnc(-c2cnn3ncccc23)n1

>  <Name>  (23) 
nan

>  <Pocket>  (23) 
nan

>  <ATP_Site>  (23) 
nan

>  <Peripheral>  (23) 
nan

>  <Num_H_Atoms_ProtBoundConf>  (23) 
nan

>  <Num_Resolved_Atoms>  (23) 
nan

>  <Num_Not_Resolved_Atoms>  (23) 
nan

$$$$
CHEMBL4849615
     RDKit          3D

  0  0  0  0  0  0  0  0  0  0999 V3000
M  V30 BEGIN CTAB
M  V30 COUNTS 42 44 0 0 0
M  V30 BEGIN ATOM
M  V30 1 C 0.068808 -6.989523 1.817787 0
M  V30 2 N 0.218061 -5.721827 1.104732 0
M  V30 3 C 1.451687 -5.018035 1.076199 0
M  V30 4 O 2.402874 -5.553401 1.701074 0
M  V30 5 C 1.619091 -3.754078 0.371186 0
M  V30 6 C 0.601022 -3.137053 -0.324015 0
M  V30 7 C 0.770773 -1.942459 -0.986629 0
M  V30 8 C 1.983729 -1.294882 -0.987356 0
M  V30 9 C 2.433958 -0.023205 -1.584910 0
M  V30 10 C 2.338373 1.089185 -0.580981 0
M  V30 11 N 0.968909 1.243006 -0.160083 0
M  V30 12 C 0.748616 2.262519 0.822084 0
M  V30 13 N 1.733321 3.026965 1.323671 0
M  V30 14 C 1.534761 3.985296 2.245060 0
M  V30 15 N 0.310841 4.256204 2.743960 0
M  V30 16 C -0.736648 3.525755 2.286443 0
M  V30 17 C -1.993668 3.791791 2.787654 0
M  V30 18 C -3.083498 3.075064 2.351430 0
M  V30 19 C -2.867332 2.095981 1.407378 0
M  V30 20 C -4.018902 1.360498 0.966522 0
M  V30 21 N -4.949519 0.781149 0.598481 0
M  V30 22 C -1.598037 1.868470 0.939071 0
M  V30 23 C -0.489619 2.563066 1.351153 0
M  V30 24 C 3.016374 -1.922558 -0.281474 0
M  V30 25 C 2.850716 -3.135061 0.392862 0
M  V30 26 H -0.544129 -6.796994 2.704333 0
M  V30 27 H -0.489014 -7.722712 1.191708 0
M  V30 28 H 1.049700 -7.460584 2.038449 0
M  V30 29 H -0.621708 -5.348720 0.612783 0
M  V30 30 H -0.371004 -3.581878 -0.367373 0
M  V30 31 H 0.011806 -1.428352 -1.551182 0
M  V30 32 H 3.460956 -0.117855 -2.015909 0
M  V30 33 H 1.756068 0.244314 -2.432029 0
M  V30 34 H 3.019378 0.902237 0.281569 0
M  V30 35 H 2.613539 2.032063 -1.113305 0
M  V30 36 H 0.231822 0.660418 -0.549588 0
M  V30 37 H 2.405062 4.534484 2.572148 0
M  V30 38 H -2.088114 4.574673 3.526514 0
M  V30 39 H -4.024682 3.354453 2.800420 0
M  V30 40 H -1.543828 1.080949 0.204194 0
M  V30 41 H 4.044843 -1.537666 -0.184212 0
M  V30 42 H 3.639507 -3.614244 0.931896 0
M  V30 END ATOM
M  V30 BEGIN BOND
M  V30 1 1 1 2
M  V30 2 1 2 3
M  V30 3 2 3 4
M  V30 4 1 3 5
M  V30 5 2 5 6
M  V30 6 1 6 7
M  V30 7 2 7 8
M  V30 8 1 8 9
M  V30 9 1 9 10
M  V30 10 1 10 11
M  V30 11 1 11 12
M  V30 12 2 12 13
M  V30 13 1 13 14
M  V30 14 2 14 15
M  V30 15 1 15 16
M  V30 16 2 16 17
M  V30 17 1 17 18
M  V30 18 2 18 19
M  V30 19 1 19 20
M  V30 20 3 20 21
M  V30 21 1 19 22
M  V30 22 2 22 23
M  V30 23 1 8 24
M  V30 24 2 24 25
M  V30 25 1 25 5
M  V30 26 1 23 12
M  V30 27 1 23 16
M  V30 28 1 1 26
M  V30 29 1 1 27
M  V30 30 1 1 28
M  V30 31 1 2 29
M  V30 32 1 6 30
M  V30 33 1 7 31
M  V30 34 1 9 32
M  V30 35 1 9 33
M  V30 36 1 10 34
M  V30 37 1 10 35
M  V30 38 1 11 36
M  V30 39 1 14 37
M  V30 40 1 17 38
M  V30 41 1 18 39
M  V30 42 1 22 40
M  V30 43 1 24 41
M  V30 44 1 25 42
M  V30 END BOND
M  V30 END CTAB
M  END
>  <Dataset>  (24) 
ChEMBL_Kinases

>  <Ligand_Instance>  (24) 
nan

>  <PDB_ID>  (24) 
nan

>  <Standardized_SMILES>  (24) 
CNC(=O)c1ccc(CCNc2ncnc3ccc(C#N)cc23)cc1

>  <Name>  (24) 
nan

>  <Pocket>  (24) 
nan

>  <ATP_Site>  (24) 
nan

>  <Peripheral>  (24) 
nan

>  <Num_H_Atoms_ProtBoundConf>  (24) 
nan

>  <Num_Resolved_Atoms>  (24) 
nan

>  <Num_Not_Resolved_Atoms>  (24) 
nan

$$$$
CHEMBL4849660
     RDKit          3D

  0  0  0  0  0  0  0  0  0  0999 V3000
M  V30 BEGIN CTAB
M  V30 COUNTS 55 59 0 0 0
M  V30 BEGIN ATOM
M  V30 1 O 3.312489 -2.603927 5.462812 0
M  V30 2 C 3.628265 -1.755949 4.415437 0
M  V30 3 C 4.820370 -2.039979 3.770559 0
M  V30 4 F 5.644773 -3.077242 4.124814 0
M  V30 5 C 5.212102 -1.241062 2.710332 0
M  V30 6 C 4.462290 -0.163193 2.261011 0
M  V30 7 N 4.838079 0.654103 1.173643 0
M  V30 8 C 4.132795 1.821211 0.765078 0
M  V30 9 N 4.698726 3.063253 0.803474 0
M  V30 10 C 3.966572 4.146438 0.408174 0
M  V30 11 C 2.661393 3.997247 -0.028019 0
M  V30 12 N 1.749143 4.871828 -0.458758 0
M  V30 13 C 0.613823 4.220761 -0.768902 0
M  V30 14 N 0.819197 2.920776 -0.529167 0
M  V30 15 C 0.045992 1.703522 -0.626724 0
M  V30 16 C 0.312351 0.770275 -1.603762 0
M  V30 17 C -0.423775 -0.392718 -1.664810 0
M  V30 18 C -1.409857 -0.595429 -0.746875 0
M  V30 19 C -2.322988 -1.757676 -0.589037 0
M  V30 20 C -3.581588 -1.598020 -1.411087 0
M  V30 21 N -4.502603 -2.698644 -1.272603 0
M  V30 22 C -5.103915 -2.778328 0.025041 0
M  V30 23 C -4.823122 -4.031288 0.789092 0
M  V30 24 O -5.097184 -5.109180 -0.050193 0
M  V30 25 C -4.116524 -5.116764 -1.038236 0
M  V30 26 C -4.162615 -3.899801 -1.916744 0
M  V30 27 C -1.677821 0.352118 0.240833 0
M  V30 28 C -0.956910 1.540679 0.337399 0
M  V30 29 C 2.091313 2.730104 -0.063575 0
M  V30 30 N 2.863828 1.687787 0.339089 0
M  V30 31 C 3.271154 0.106028 2.919833 0
M  V30 32 C 2.861096 -0.677799 3.979421 0
M  V30 33 F 1.720677 -0.523727 4.699890 0
M  V30 34 H 2.337545 -2.660933 5.779160 0
M  V30 35 H 6.129331 -1.408982 2.166545 0
M  V30 36 H 5.707452 0.365825 0.632931 0
M  V30 37 H 4.437508 5.131657 0.444988 0
M  V30 38 H -0.354912 4.525874 -1.146028 0
M  V30 39 H 1.088410 0.910001 -2.341605 0
M  V30 40 H -0.312212 -1.190210 -2.375466 0
M  V30 41 H -2.534107 -2.031536 0.444240 0
M  V30 42 H -1.784267 -2.635127 -1.039913 0
M  V30 43 H -4.088119 -0.676432 -1.102336 0
M  V30 44 H -3.350571 -1.521778 -2.498984 0
M  V30 45 H -6.205722 -2.676593 -0.078909 0
M  V30 46 H -4.785484 -1.866741 0.603495 0
M  V30 47 H -5.561610 -4.042470 1.645134 0
M  V30 48 H -3.801861 -4.067814 1.216394 0
M  V30 49 H -3.112177 -5.212498 -0.599812 0
M  V30 50 H -4.310606 -6.005562 -1.676036 0
M  V30 51 H -4.933891 -4.088689 -2.719992 0
M  V30 52 H -3.198101 -3.835531 -2.458500 0
M  V30 53 H -2.447006 0.292385 1.024517 0
M  V30 54 H -1.128826 2.298645 1.081716 0
M  V30 55 H 2.606781 0.930169 2.648269 0
M  V30 END ATOM
M  V30 BEGIN BOND
M  V30 1 1 1 2
M  V30 2 2 2 3
M  V30 3 1 3 4
M  V30 4 1 3 5
M  V30 5 2 5 6
M  V30 6 1 6 7
M  V30 7 1 7 8
M  V30 8 2 8 9
M  V30 9 1 9 10
M  V30 10 2 10 11
M  V30 11 1 11 12
M  V30 12 2 12 13
M  V30 13 1 13 14
M  V30 14 1 14 15
M  V30 15 2 15 16
M  V30 16 1 16 17
M  V30 17 2 17 18
M  V30 18 1 18 19
M  V30 19 1 19 20
M  V30 20 1 20 21
M  V30 21 1 21 22
M  V30 22 1 22 23
M  V30 23 1 23 24
M  V30 24 1 24 25
M  V30 25 1 25 26
M  V30 26 1 18 27
M  V30 27 2 27 28
M  V30 28 1 14 29
M  V30 29 2 29 30
M  V30 30 1 6 31
M  V30 31 2 31 32
M  V30 32 1 32 33
M  V30 33 1 32 2
M  V30 34 1 30 8
M  V30 35 1 29 11
M  V30 36 1 28 15
M  V30 37 1 26 21
M  V30 38 1 1 34
M  V30 39 1 5 35
M  V30 40 1 7 36
M  V30 41 1 10 37
M  V30 42 1 13 38
M  V30 43 1 16 39
M  V30 44 1 17 40
M  V30 45 1 19 41
M  V30 46 1 19 42
M  V30 47 1 20 43
M  V30 48 1 20 44
M  V30 49 1 22 45
M  V30 50 1 22 46
M  V30 51 1 23 47
M  V30 52 1 23 48
M  V30 53 1 25 49
M  V30 54 1 25 50
M  V30 55 1 26 51
M  V30 56 1 26 52
M  V30 57 1 27 53
M  V30 58 1 28 54
M  V30 59 1 31 55
M  V30 END BOND
M  V30 END CTAB
M  END
>  <Dataset>  (25) 
ChEMBL_Kinases

>  <Ligand_Instance>  (25) 
nan

>  <PDB_ID>  (25) 
nan

>  <Standardized_SMILES>  (25) 
Oc1c(F)cc(Nc2ncc3ncn(-c4ccc(CCN5CCOCC5)cc4)c3n2)cc1F

>  <Name>  (25) 
nan

>  <Pocket>  (25) 
nan

>  <ATP_Site>  (25) 
nan

>  <Peripheral>  (25) 
nan

>  <Num_H_Atoms_ProtBoundConf>  (25) 
nan

>  <Num_Resolved_Atoms>  (25) 
nan

>  <Num_Not_Resolved_Atoms>  (25) 
nan

$$$$
CHEMBL484967
     RDKit          3D

  0  0  0  0  0  0  0  0  0  0999 V3000
M  V30 BEGIN CTAB
M  V30 COUNTS 48 51 0 0 0
M  V30 BEGIN ATOM
M  V30 1 N -1.951914 -5.327825 -1.178725 0
M  V30 2 C -0.535030 -5.374716 -0.841966 0
M  V30 3 C -0.018917 -3.992274 -0.600612 0
M  V30 4 C 0.501230 -3.234064 -1.619900 0
M  V30 5 C 0.986147 -1.950379 -1.423065 0
M  V30 6 C 0.953992 -1.392485 -0.157434 0
M  V30 7 C 1.423996 -0.074789 0.180097 0
M  V30 8 C 2.664663 0.245500 -0.378060 0
M  V30 9 C 3.233182 1.477433 -0.135628 0
M  V30 10 C 4.458220 1.855436 -0.658369 0
M  V30 11 C 5.015899 3.099029 -0.404384 0
M  V30 12 N 4.311161 3.935577 0.380254 0
M  V30 13 C 3.116239 3.613580 0.911588 0
M  V30 14 C 2.554618 2.377357 0.663237 0
M  V30 15 C 1.330140 2.038857 1.203839 0
M  V30 16 C 0.732370 0.815354 0.981892 0
M  V30 17 O -0.458826 0.356836 1.448488 0
M  V30 18 C -1.388130 0.983196 2.264362 0
M  V30 19 C -2.750532 1.191176 1.655560 0
M  V30 20 C -3.238818 -0.122364 1.115144 0
M  V30 21 N -3.130140 -1.110258 2.166367 0
M  V30 22 C -2.964894 -0.532601 3.463242 0
M  V30 23 C -1.648416 0.239486 3.579643 0
M  V30 24 C 0.439637 -2.136988 0.860981 0
M  V30 25 C -0.044821 -3.420921 0.661430 0
M  V30 26 H -2.344557 -4.402034 -0.916512 0
M  V30 27 H -2.106762 -5.415687 -2.219143 0
M  V30 28 H 0.022522 -5.831203 -1.688527 0
M  V30 29 H -0.395437 -5.961679 0.083568 0
M  V30 30 H 0.526796 -3.676815 -2.624568 0
M  V30 31 H 1.393617 -1.351127 -2.211335 0
M  V30 32 H 3.230129 -0.421552 -1.005670 0
M  V30 33 H 4.976528 1.131047 -1.285504 0
M  V30 34 H 5.987211 3.375145 -0.829648 0
M  V30 35 H 2.565562 4.310628 1.544514 0
M  V30 36 H 0.769479 2.715442 1.833016 0
M  V30 37 H -1.013911 2.001150 2.519269 0
M  V30 38 H -2.764291 2.000244 0.901235 0
M  V30 39 H -3.425535 1.541151 2.463446 0
M  V30 40 H -4.276833 -0.039248 0.726244 0
M  V30 41 H -2.537040 -0.469241 0.307395 0
M  V30 42 H -4.034582 -1.632682 2.181150 0
M  V30 43 H -3.809738 0.070063 3.816494 0
M  V30 44 H -2.870192 -1.371632 4.190000 0
M  V30 45 H -1.796245 0.991189 4.378400 0
M  V30 46 H -0.844503 -0.451686 3.826565 0
M  V30 47 H 0.360808 -1.807291 1.899653 0
M  V30 48 H -0.460060 -4.030548 1.466706 0
M  V30 END ATOM
M  V30 BEGIN BOND
M  V30 1 1 1 2
M  V30 2 1 2 3
M  V30 3 2 3 4
M  V30 4 1 4 5
M  V30 5 2 5 6
M  V30 6 1 6 7
M  V30 7 2 7 8
M  V30 8 1 8 9
M  V30 9 2 9 10
M  V30 10 1 10 11
M  V30 11 2 11 12
M  V30 12 1 12 13
M  V30 13 2 13 14
M  V30 14 1 14 15
M  V30 15 2 15 16
M  V30 16 1 16 17
M  V30 17 1 17 18
M  V30 18 1 18 19
M  V30 19 1 19 20
M  V30 20 1 20 21
M  V30 21 1 21 22
M  V30 22 1 22 23
M  V30 23 1 6 24
M  V30 24 2 24 25
M  V30 25 1 25 3
M  V30 26 1 16 7
M  V30 27 1 23 18
M  V30 28 1 14 9
M  V30 29 1 1 26
M  V30 30 1 1 27
M  V30 31 1 2 28
M  V30 32 1 2 29
M  V30 33 1 4 30
M  V30 34 1 5 31
M  V30 35 1 8 32
M  V30 36 1 10 33
M  V30 37 1 11 34
M  V30 38 1 13 35
M  V30 39 1 15 36
M  V30 40 1 18 37
M  V30 41 1 19 38
M  V30 42 1 19 39
M  V30 43 1 20 40
M  V30 44 1 20 41
M  V30 45 1 21 42
M  V30 46 1 22 43
M  V30 47 1 22 44
M  V30 48 1 23 45
M  V30 49 1 23 46
M  V30 50 1 24 47
M  V30 51 1 25 48
M  V30 END BOND
M  V30 END CTAB
M  END
>  <Dataset>  (26) 
ChEMBL_Kinases

>  <Ligand_Instance>  (26) 
nan

>  <PDB_ID>  (26) 
nan

>  <Standardized_SMILES>  (26) 
NCc1ccc(-c2cc3ccncc3cc2OC2CCNCC2)cc1

>  <Name>  (26) 
nan

>  <Pocket>  (26) 
nan

>  <ATP_Site>  (26) 
nan

>  <Peripheral>  (26) 
nan

>  <Num_H_Atoms_ProtBoundConf>  (26) 
nan

>  <Num_Resolved_Atoms>  (26) 
nan

>  <Num_Not_Resolved_Atoms>  (26) 
nan

$$$$
CHEMBL484968
     RDKit          3D

  0  0  0  0  0  0  0  0  0  0999 V3000
M  V30 BEGIN CTAB
M  V30 COUNTS 43 46 0 0 0
M  V30 BEGIN ATOM
M  V30 1 C 0.110485 -4.522860 2.554929 0
M  V30 2 C 0.954498 -4.559875 1.467627 0
M  V30 3 C 1.428212 -3.397025 0.901842 0
M  V30 4 C 1.085869 -2.143452 1.389408 0
M  V30 5 C 1.616555 -0.943492 0.751759 0
M  V30 6 C 2.985521 -1.059283 0.483963 0
M  V30 7 C 3.660680 -0.019496 -0.118458 0
M  V30 8 C 5.017209 -0.084870 -0.404936 0
M  V30 9 C 5.583631 1.018914 -1.009535 0
M  V30 10 N 4.879621 2.122173 -1.319364 0
M  V30 11 C 3.556711 2.212985 -1.051587 0
M  V30 12 C 2.956159 1.120938 -0.444106 0
M  V30 13 C 1.607762 1.253264 -0.188172 0
M  V30 14 C 0.917770 0.222076 0.414001 0
M  V30 15 O -0.407402 0.073093 0.785175 0
M  V30 16 C -1.401249 1.028462 0.605998 0
M  V30 17 C -2.531891 0.535119 -0.286408 0
M  V30 18 C -2.963920 -0.827501 0.244558 0
M  V30 19 N -3.189931 -0.732944 1.653566 0
M  V30 20 C -3.272343 0.603693 2.154594 0
M  V30 21 C -2.060581 1.452144 1.900717 0
M  V30 22 C 0.240457 -2.129632 2.477630 0
M  V30 23 C -0.250051 -3.283221 3.065374 0
M  V30 24 H -0.286491 -5.404980 3.032531 0
M  V30 25 H 1.252292 -5.525296 1.048213 0
M  V30 26 H 2.088838 -3.485027 0.048593 0
M  V30 27 H 3.591673 -1.913363 0.709627 0
M  V30 28 H 5.573194 -0.984162 -0.148238 0
M  V30 29 H 6.656676 0.970338 -1.237498 0
M  V30 30 H 3.012381 3.110706 -1.310319 0
M  V30 31 H 0.962033 2.085834 -0.395438 0
M  V30 32 H -0.988969 1.931621 0.122635 0
M  V30 33 H -2.204746 0.468033 -1.335272 0
M  V30 34 H -3.377108 1.250989 -0.121874 0
M  V30 35 H -2.115177 -1.520604 0.069008 0
M  V30 36 H -3.878508 -1.166233 -0.316947 0
M  V30 37 H -2.518835 -1.269033 2.243309 0
M  V30 38 H -3.352695 0.505744 3.273868 0
M  V30 39 H -4.221406 1.096830 1.853634 0
M  V30 40 H -2.428140 2.489840 1.764548 0
M  V30 41 H -1.348742 1.469382 2.750557 0
M  V30 42 H -0.046221 -1.190316 2.881755 0
M  V30 43 H -0.918855 -3.238894 3.927522 0
M  V30 END ATOM
M  V30 BEGIN BOND
M  V30 1 2 1 2
M  V30 2 1 2 3
M  V30 3 2 3 4
M  V30 4 1 4 5
M  V30 5 2 5 6
M  V30 6 1 6 7
M  V30 7 2 7 8
M  V30 8 1 8 9
M  V30 9 2 9 10
M  V30 10 1 10 11
M  V30 11 2 11 12
M  V30 12 1 12 13
M  V30 13 2 13 14
M  V30 14 1 14 15
M  V30 15 1 15 16
M  V30 16 1 16 17
M  V30 17 1 17 18
M  V30 18 1 18 19
M  V30 19 1 19 20
M  V30 20 1 20 21
M  V30 21 1 4 22
M  V30 22 2 22 23
M  V30 23 1 23 1
M  V30 24 1 14 5
M  V30 25 1 21 16
M  V30 26 1 12 7
M  V30 27 1 1 24
M  V30 28 1 2 25
M  V30 29 1 3 26
M  V30 30 1 6 27
M  V30 31 1 8 28
M  V30 32 1 9 29
M  V30 33 1 11 30
M  V30 34 1 13 31
M  V30 35 1 16 32
M  V30 36 1 17 33
M  V30 37 1 17 34
M  V30 38 1 18 35
M  V30 39 1 18 36
M  V30 40 1 19 37
M  V30 41 1 20 38
M  V30 42 1 20 39
M  V30 43 1 21 40
M  V30 44 1 21 41
M  V30 45 1 22 42
M  V30 46 1 23 43
M  V30 END BOND
M  V30 END CTAB
M  END
>  <Dataset>  (27) 
ChEMBL_Kinases

>  <Ligand_Instance>  (27) 
nan

>  <PDB_ID>  (27) 
nan

>  <Standardized_SMILES>  (27) 
c1ccc(-c2cc3ccncc3cc2OC2CCNCC2)cc1

>  <Name>  (27) 
nan

>  <Pocket>  (27) 
nan

>  <ATP_Site>  (27) 
nan

>  <Peripheral>  (27) 
nan

>  <Num_H_Atoms_ProtBoundConf>  (27) 
nan

>  <Num_Resolved_Atoms>  (27) 
nan

>  <Num_Not_Resolved_Atoms>  (27) 
nan

$$$$
CHEMBL4086683
     RDKit          3D

  0  0  0  0  0  0  0  0  0  0999 V3000
M  V30 BEGIN CTAB
M  V30 COUNTS 38 40 0 0 0
M  V30 BEGIN ATOM
M  V30 1 O 2.889791 0.029239 -1.440489 0
M  V30 2 C 1.754996 -0.151447 -0.924718 0
M  V30 3 N 1.542563 -1.549792 -0.805890 0
M  V30 4 C 2.558425 -2.442309 -1.250384 0
M  V30 5 C 3.512506 -2.811429 -0.308417 0
M  V30 6 C 4.515155 -3.677813 -0.705027 0
M  V30 7 C 4.536227 -4.145785 -2.016691 0
M  V30 8 N 3.594816 -3.761263 -2.887312 0
M  V30 9 N 2.638043 -2.932479 -2.502934 0
M  V30 10 C 0.868074 0.938615 -0.541708 0
M  V30 11 C 1.409728 2.204307 -0.807105 0
M  V30 12 C 0.728034 3.361381 -0.517890 0
M  V30 13 Br 1.497304 5.065300 -0.893232 0
M  V30 14 C -0.526719 3.324969 0.049698 0
M  V30 15 C -1.031022 2.078836 0.297862 0
M  V30 16 C -0.386516 0.889542 0.026053 0
M  V30 17 O -0.875151 -0.329825 0.266518 0
M  V30 18 C -1.987284 -0.900174 0.779861 0
M  V30 19 C -2.380778 -0.629252 2.154539 0
M  V30 20 C -3.211323 0.291704 2.701916 0
M  V30 21 C -3.446264 0.389531 4.058269 0
M  V30 22 C -2.829776 -0.469555 4.944846 0
M  V30 23 C -1.976561 -1.422243 4.427963 0
M  V30 24 C -1.750705 -1.506000 3.049612 0
M  V30 25 H 0.636973 -1.854858 -0.391674 0
M  V30 26 H 3.477387 -2.437226 0.701922 0
M  V30 27 H 5.250052 -3.954285 0.043296 0
M  V30 28 H 5.376174 -4.821347 -2.203386 0
M  V30 29 H 2.404177 2.349108 -1.258865 0
M  V30 30 H -1.073224 4.229226 0.281932 0
M  V30 31 H -2.015687 2.058943 0.741248 0
M  V30 32 H -1.951338 -2.012191 0.567609 0
M  V30 33 H -2.866012 -0.575360 0.138589 0
M  V30 34 H -3.676971 0.936513 1.994586 0
M  V30 35 H -4.138535 1.174553 4.388679 0
M  V30 36 H -3.038835 -0.361998 6.000573 0
M  V30 37 H -1.500891 -2.088315 5.134526 0
M  V30 38 H -1.052113 -2.307953 2.787806 0
M  V30 END ATOM
M  V30 BEGIN BOND
M  V30 1 2 1 2
M  V30 2 1 2 3
M  V30 3 1 3 4
M  V30 4 2 4 5
M  V30 5 1 5 6
M  V30 6 2 6 7
M  V30 7 1 7 8
M  V30 8 2 8 9
M  V30 9 1 2 10
M  V30 10 2 10 11
M  V30 11 1 11 12
M  V30 12 1 12 13
M  V30 13 2 12 14
M  V30 14 1 14 15
M  V30 15 2 15 16
M  V30 16 1 16 17
M  V30 17 1 17 18
M  V30 18 1 18 19
M  V30 19 2 19 20
M  V30 20 1 20 21
M  V30 21 2 21 22
M  V30 22 1 22 23
M  V30 23 2 23 24
M  V30 24 1 9 4
M  V30 25 1 16 10
M  V30 26 1 24 19
M  V30 27 1 3 25
M  V30 28 1 5 26
M  V30 29 1 6 27
M  V30 30 1 7 28
M  V30 31 1 11 29
M  V30 32 1 14 30
M  V30 33 1 15 31
M  V30 34 1 18 32
M  V30 35 1 18 33
M  V30 36 1 20 34
M  V30 37 1 21 35
M  V30 38 1 22 36
M  V30 39 1 23 37
M  V30 40 1 24 38
M  V30 END BOND
M  V30 END CTAB
M  END
>  <Dataset>  (28) 
ChEMBL_Kinases

>  <Ligand_Instance>  (28) 
nan

>  <PDB_ID>  (28) 
nan

>  <Standardized_SMILES>  (28) 
O=C(Nc1cccnn1)c1cc(Br)ccc1OCc1ccccc1

>  <Name>  (28) 
nan

>  <Pocket>  (28) 
nan

>  <ATP_Site>  (28) 
nan

>  <Peripheral>  (28) 
nan

>  <Num_H_Atoms_ProtBoundConf>  (28) 
nan

>  <Num_Resolved_Atoms>  (28) 
nan

>  <Num_Not_Resolved_Atoms>  (28) 
nan

$$$$
CHEMBL4849746
     RDKit          3D

  0  0  0  0  0  0  0  0  0  0999 V3000
M  V30 BEGIN CTAB
M  V30 COUNTS 63 67 0 0 0
M  V30 BEGIN ATOM
M  V30 1 C 4.297333 -2.094385 1.327023 0
M  V30 2 O 3.956258 -0.739152 1.270641 0
M  V30 3 C 3.847953 0.102396 2.342615 0
M  V30 4 C 4.079750 -0.342797 3.646414 0
M  V30 5 C 3.954044 0.559300 4.689997 0
M  V30 6 C 3.607054 1.879124 4.470159 0
M  V30 7 F 3.485515 2.764047 5.510522 0
M  V30 8 C 3.373945 2.338727 3.191136 0
M  V30 9 C 3.499820 1.438693 2.154541 0
M  V30 10 C 3.253160 1.919704 0.803116 0
M  V30 11 C 4.171103 2.454735 -0.077701 0
M  V30 12 C 3.750394 2.857758 -1.328161 0
M  V30 13 N 2.456746 2.748660 -1.732315 0
M  V30 14 C 1.536290 2.230577 -0.895916 0
M  V30 15 N 0.215937 1.999036 -1.000643 0
M  V30 16 C -0.301309 1.457435 0.109686 0
M  V30 17 C -1.695031 1.081090 0.327883 0
M  V30 18 C -2.559737 1.270359 -0.656863 0
M  V30 19 C -3.936408 0.863865 -0.349826 0
M  V30 20 C -4.085902 -0.459047 0.333436 0
M  V30 21 N -4.007959 -1.614899 -0.498208 0
M  V30 22 C -4.208931 -2.854488 0.178426 0
M  V30 23 C -3.139198 -3.837133 -0.205302 0
M  V30 24 N -3.308729 -4.084893 -1.626990 0
M  V30 25 C -2.486477 -5.220282 -1.999185 0
M  V30 26 C -1.044014 -4.857085 -1.892736 0
M  V30 27 O -0.410014 -5.913268 -2.221612 0
M  V30 28 O 0.028455 -4.047109 -1.646628 0
M  V30 29 C -2.940012 -2.884667 -2.308928 0
M  V30 30 C -2.969969 -1.643429 -1.462878 0
M  V30 31 C -3.118215 -0.609111 1.496954 0
M  V30 32 C -2.134870 0.504097 1.624045 0
M  V30 33 C 0.764838 1.337878 0.976832 0
M  V30 34 C 1.930750 1.816779 0.368190 0
M  V30 35 H 3.349634 -2.676752 1.466050 0
M  V30 36 H 4.760708 -2.428659 0.358905 0
M  V30 37 H 4.993810 -2.317418 2.163764 0
M  V30 38 H 4.353135 -1.369524 3.853082 0
M  V30 39 H 4.128102 0.233730 5.691748 0
M  V30 40 H 3.096944 3.377765 2.975680 0
M  V30 41 H 5.168796 2.516707 0.291582 0
M  V30 42 H 4.555546 3.269241 -1.952264 0
M  V30 43 H -0.338170 2.227890 -1.877931 0
M  V30 44 H -2.286905 1.687445 -1.609827 0
M  V30 45 H -4.363379 1.635289 0.338658 0
M  V30 46 H -4.588011 0.865290 -1.240910 0
M  V30 47 H -5.105814 -0.472988 0.778909 0
M  V30 48 H -5.203387 -3.300872 -0.043578 0
M  V30 49 H -4.185086 -2.737560 1.282534 0
M  V30 50 H -3.231637 -4.793409 0.369598 0
M  V30 51 H -2.134827 -3.436029 0.027241 0
M  V30 52 H -2.721875 -5.515599 -3.043104 0
M  V30 53 H -2.710132 -6.029653 -1.291303 0
M  V30 54 H 0.560010 -4.113603 -0.775898 0
M  V30 55 H -3.506294 -2.731731 -3.257293 0
M  V30 56 H -1.878421 -3.043545 -2.664566 0
M  V30 57 H -2.007667 -1.620716 -0.891728 0
M  V30 58 H -2.962858 -0.795117 -2.137723 0
M  V30 59 H -3.649417 -0.666131 2.483117 0
M  V30 60 H -2.547877 -1.548605 1.431147 0
M  V30 61 H -1.236489 0.133940 2.156928 0
M  V30 62 H -2.530755 1.361384 2.242974 0
M  V30 63 H 0.704280 0.934150 1.976777 0
M  V30 END ATOM
M  V30 BEGIN BOND
M  V30 1 1 1 2
M  V30 2 1 2 3
M  V30 3 2 3 4
M  V30 4 1 4 5
M  V30 5 2 5 6
M  V30 6 1 6 7
M  V30 7 1 6 8
M  V30 8 2 8 9
M  V30 9 1 9 10
M  V30 10 2 10 11
M  V30 11 1 11 12
M  V30 12 2 12 13
M  V30 13 1 13 14
M  V30 14 1 14 15
M  V30 15 1 15 16
M  V30 16 1 16 17
M  V30 17 2 17 18
M  V30 18 1 18 19
M  V30 19 1 19 20
M  V30 20 1 20 21
M  V30 21 1 21 22
M  V30 22 1 22 23
M  V30 23 1 23 24
M  V30 24 1 24 25
M  V30 25 1 25 26
M  V30 26 2 26 27
M  V30 27 1 26 28
M  V30 28 1 24 29
M  V30 29 1 29 30
M  V30 30 1 20 31
M  V30 31 1 31 32
M  V30 32 2 16 33
M  V30 33 1 33 34
M  V30 34 1 9 3
M  V30 35 1 34 10
M  V30 36 2 34 14
M  V30 37 1 32 17
M  V30 38 1 30 21
M  V30 39 1 1 35
M  V30 40 1 1 36
M  V30 41 1 1 37
M  V30 42 1 4 38
M  V30 43 1 5 39
M  V30 44 1 8 40
M  V30 45 1 11 41
M  V30 46 1 12 42
M  V30 47 1 15 43
M  V30 48 1 18 44
M  V30 49 1 19 45
M  V30 50 1 19 46
M  V30 51 1 20 47
M  V30 52 1 22 48
M  V30 53 1 22 49
M  V30 54 1 23 50
M  V30 55 1 23 51
M  V30 56 1 25 52
M  V30 57 1 25 53
M  V30 58 1 28 54
M  V30 59 1 29 55
M  V30 60 1 29 56
M  V30 61 1 30 57
M  V30 62 1 30 58
M  V30 63 1 31 59
M  V30 64 1 31 60
M  V30 65 1 32 61
M  V30 66 1 32 62
M  V30 67 1 33 63
M  V30 END BOND
M  V30 END CTAB
M  END
>  <Dataset>  (29) 
ChEMBL_Kinases

>  <Ligand_Instance>  (29) 
nan

>  <PDB_ID>  (29) 
nan

>  <Standardized_SMILES>  (29) 
COc1ccc(F)cc1-c1ccnc2[nH]c(C3=CCC(N4CCN(CC(=O)O)CC4)CC3)cc12

>  <Name>  (29) 
nan

>  <Pocket>  (29) 
nan

>  <ATP_Site>  (29) 
nan

>  <Peripheral>  (29) 
nan

>  <Num_H_Atoms_ProtBoundConf>  (29) 
nan

>  <Num_Resolved_Atoms>  (29) 
nan

>  <Num_Not_Resolved_Atoms>  (29) 
nan

$$$$
CHEMBL4849828
     RDKit          3D

  0  0  0  0  0  0  0  0  0  0999 V3000
M  V30 BEGIN CTAB
M  V30 COUNTS 60 64 0 0 0
M  V30 BEGIN ATOM
M  V30 1 O 0.123370 -3.672004 4.383120 0
M  V30 2 C -0.292898 -2.904367 3.472544 0
M  V30 3 N 0.504235 -1.779682 3.191378 0
M  V30 4 C 1.744835 -1.185124 3.621639 0
M  V30 5 C 1.685723 0.010248 4.448898 0
M  V30 6 C 2.812073 0.956412 3.982368 0
M  V30 7 N 2.663344 1.285886 2.611678 0
M  V30 8 C 1.838340 2.382813 2.380151 0
M  V30 9 C 1.531808 2.702539 0.959237 0
M  V30 10 C 2.331641 3.496216 0.163144 0
M  V30 11 C 1.966107 3.757116 -1.134471 0
M  V30 12 C 0.813832 3.248286 -1.678052 0
M  V30 13 F 0.368469 3.462074 -2.960883 0
M  V30 14 C -0.030330 2.438054 -0.913192 0
M  V30 15 C 0.351044 2.182313 0.393846 0
M  V30 16 C 2.743094 0.205911 1.760861 0
M  V30 17 C 2.609642 -1.126582 2.378826 0
M  V30 18 C -1.527637 -3.207619 2.786264 0
M  V30 19 C -2.409232 -4.124245 3.291149 0
M  V30 20 N -3.551625 -4.443802 2.649245 0
M  V30 21 C -3.915709 -3.893075 1.471071 0
M  V30 22 C -3.045677 -2.966968 0.940201 0
M  V30 23 N -3.228162 -2.257727 -0.300392 0
M  V30 24 C -2.646211 -3.186627 -1.249394 0
M  V30 25 O -2.165310 -4.281116 -0.855847 0
M  V30 26 C -2.458362 -3.150924 -2.714911 0
M  V30 27 C -3.077369 -4.058466 -3.553116 0
M  V30 28 C -2.835136 -3.957787 -4.905126 0
M  V30 29 N -2.028592 -3.017204 -5.423565 0
M  V30 30 C -1.432556 -2.137939 -4.586009 0
M  V30 31 N -0.585834 -1.104906 -4.874929 0
M  V30 32 C -0.234089 -0.479197 -3.709282 0
M  V30 33 C -0.892805 -1.160592 -2.690707 0
M  V30 34 C -1.631497 -2.183846 -3.224941 0
M  V30 35 C -1.849880 -2.603481 1.568011 0
M  V30 36 H 0.128252 -1.120105 2.450655 0
M  V30 37 H 2.211773 -1.981074 4.271797 0
M  V30 38 H 0.783555 0.638601 4.434738 0
M  V30 39 H 1.892199 -0.199543 5.505161 0
M  V30 40 H 2.769910 1.877242 4.597594 0
M  V30 41 H 3.806141 0.500273 4.199160 0
M  V30 42 H 2.387878 3.303901 2.748114 0
M  V30 43 H 0.862110 2.398348 2.892758 0
M  V30 44 H 3.258186 3.910974 0.587467 0
M  V30 45 H 2.563858 4.375926 -1.790038 0
M  V30 46 H -0.967540 1.998880 -1.288886 0
M  V30 47 H -0.265007 1.550838 1.054211 0
M  V30 48 H 2.070111 0.254978 0.855989 0
M  V30 49 H 3.778416 0.223288 1.269286 0
M  V30 50 H 2.241012 -1.896309 1.624036 0
M  V30 51 H 3.618638 -1.529560 2.641554 0
M  V30 52 H -2.195869 -4.613038 4.230978 0
M  V30 53 H -4.783229 -4.060425 0.870351 0
M  V30 54 H -3.561089 -1.434329 -0.798909 0
M  V30 55 H -3.720621 -4.809748 -3.126999 0
M  V30 56 H -3.308029 -4.657082 -5.605681 0
M  V30 57 H -0.299796 -0.888210 -5.873061 0
M  V30 58 H 0.428115 0.369874 -3.693993 0
M  V30 59 H -0.823417 -0.911332 -1.636550 0
M  V30 60 H -1.167530 -1.891919 1.166322 0
M  V30 END ATOM
M  V30 BEGIN BOND
M  V30 1 2 1 2
M  V30 2 1 2 3
M  V30 3 1 3 4
M  V30 4 1 4 5
M  V30 5 1 5 6
M  V30 6 1 6 7
M  V30 7 1 7 8
M  V30 8 1 8 9
M  V30 9 2 9 10
M  V30 10 1 10 11
M  V30 11 2 11 12
M  V30 12 1 12 13
M  V30 13 1 12 14
M  V30 14 2 14 15
M  V30 15 1 7 16
M  V30 16 1 16 17
M  V30 17 1 2 18
M  V30 18 2 18 19
M  V30 19 1 19 20
M  V30 20 2 20 21
M  V30 21 1 21 22
M  V30 22 1 22 23
M  V30 23 1 23 24
M  V30 24 2 24 25
M  V30 25 1 24 26
M  V30 26 2 26 27
M  V30 27 1 27 28
M  V30 28 2 28 29
M  V30 29 1 29 30
M  V30 30 1 30 31
M  V30 31 1 31 32
M  V30 32 2 32 33
M  V30 33 1 33 34
M  V30 34 2 22 35
M  V30 35 1 17 4
M  V30 36 1 35 18
M  V30 37 1 15 9
M  V30 38 1 34 26
M  V30 39 2 34 30
M  V30 40 1 3 36
M  V30 41 1 4 37
M  V30 42 1 5 38
M  V30 43 1 5 39
M  V30 44 1 6 40
M  V30 45 1 6 41
M  V30 46 1 8 42
M  V30 47 1 8 43
M  V30 48 1 10 44
M  V30 49 1 11 45
M  V30 50 1 14 46
M  V30 51 1 15 47
M  V30 52 1 16 48
M  V30 53 1 16 49
M  V30 54 1 17 50
M  V30 55 1 17 51
M  V30 56 1 19 52
M  V30 57 1 21 53
M  V30 58 1 23 54
M  V30 59 1 27 55
M  V30 60 1 28 56
M  V30 61 1 31 57
M  V30 62 1 32 58
M  V30 63 1 33 59
M  V30 64 1 35 60
M  V30 END BOND
M  V30 END CTAB
M  END
>  <Dataset>  (30) 
ChEMBL_Kinases

>  <Ligand_Instance>  (30) 
nan

>  <PDB_ID>  (30) 
nan

>  <Standardized_SMILES>  (30) 
O=C(NC1CCN(Cc2ccc(F)cc2)CC1)c1cncc(NC(=O)c2ccnc3[nH]ccc23)c1

>  <Name>  (30) 
nan

>  <Pocket>  (30) 
nan

>  <ATP_Site>  (30) 
nan

>  <Peripheral>  (30) 
nan

>  <Num_H_Atoms_ProtBoundConf>  (30) 
nan

>  <Num_Resolved_Atoms>  (30) 
nan

>  <Num_Not_Resolved_Atoms>  (30) 
nan

$$$$
CHEMBL4849911
     RDKit          3D

  0  0  0  0  0  0  0  0  0  0999 V3000
M  V30 BEGIN CTAB
M  V30 COUNTS 56 60 0 0 0
M  V30 BEGIN ATOM
M  V30 1 C -1.959850 0.577243 4.006065 0
M  V30 2 C -0.516356 0.443548 3.718568 0
M  V30 3 C 0.295859 -0.571413 4.207608 0
M  V30 4 C 1.637742 -0.643433 3.887738 0
M  V30 5 C 2.181397 0.314394 3.063783 0
M  V30 6 N 3.540002 0.220788 2.723326 0
M  V30 7 C 4.383239 1.000473 1.905346 0
M  V30 8 N 5.491210 1.715161 2.248732 0
M  V30 9 C 6.167761 2.413730 1.307593 0
M  V30 10 N 5.788277 2.439577 0.003018 0
M  V30 11 C 4.705152 1.755788 -0.395789 0
M  V30 12 C 4.337666 1.810939 -1.720389 0
M  V30 13 C 3.223984 1.123102 -2.120169 0
M  V30 14 C 2.517823 0.404308 -1.182711 0
M  V30 15 C 1.311444 -0.344744 -1.506104 0
M  V30 16 C 0.657328 -1.025749 -0.494143 0
M  V30 17 C -0.493920 -1.748716 -0.712688 0
M  V30 18 C -1.049687 -1.820868 -1.987735 0
M  V30 19 C -2.266623 -2.599326 -2.167873 0
M  V30 20 O -1.974430 -3.405294 -3.118362 0
M  V30 21 N -3.530538 -2.565769 -1.512635 0
M  V30 22 C -4.160124 -1.808442 -0.447406 0
M  V30 23 C -4.569966 -2.672715 0.703537 0
M  V30 24 N -5.124352 -3.938591 0.366442 0
M  V30 25 C -4.699505 -4.518026 -0.866867 0
M  V30 26 C -4.499022 -3.530073 -1.994384 0
M  V30 27 C -0.381712 -1.133274 -2.990863 0
M  V30 28 C 0.768474 -0.413224 -2.760400 0
M  V30 29 N 2.938719 0.398778 0.088774 0
M  V30 30 C 4.003232 1.031767 0.579224 0
M  V30 31 C 1.382617 1.324145 2.575733 0
M  V30 32 C 0.054696 1.377824 2.905377 0
M  V30 33 H -2.092711 1.336062 4.780135 0
M  V30 34 H -2.356264 -0.374339 4.420145 0
M  V30 35 H -2.521011 0.788585 3.060367 0
M  V30 36 H -0.182675 -1.308389 4.853994 0
M  V30 37 H 2.216325 -1.476333 4.313732 0
M  V30 38 H 4.151265 -0.552135 3.106072 0
M  V30 39 H 7.042956 2.969263 1.609487 0
M  V30 40 H 4.936824 2.398082 -2.428325 0
M  V30 41 H 2.918437 1.150866 -3.141859 0
M  V30 42 H 1.020177 -1.026615 0.530771 0
M  V30 43 H -0.982613 -2.267018 0.078936 0
M  V30 44 H -5.037123 -1.288943 -0.887502 0
M  V30 45 H -3.469637 -1.021787 -0.093786 0
M  V30 46 H -5.391494 -2.105392 1.239845 0
M  V30 47 H -3.756960 -2.723703 1.487667 0
M  V30 48 H -4.826519 -4.625526 1.124029 0
M  V30 49 H -5.502546 -5.203138 -1.220306 0
M  V30 50 H -3.780960 -5.138099 -0.769109 0
M  V30 51 H -5.423558 -3.017725 -2.271010 0
M  V30 52 H -4.127909 -4.131726 -2.858478 0
M  V30 53 H -0.827492 -1.197947 -3.970523 0
M  V30 54 H 1.236816 0.099788 -3.585030 0
M  V30 55 H 1.770627 2.105010 1.932585 0
M  V30 56 H -0.550990 2.193388 2.498663 0
M  V30 END ATOM
M  V30 BEGIN BOND
M  V30 1 1 1 2
M  V30 2 2 2 3
M  V30 3 1 3 4
M  V30 4 2 4 5
M  V30 5 1 5 6
M  V30 6 1 6 7
M  V30 7 2 7 8
M  V30 8 1 8 9
M  V30 9 2 9 10
M  V30 10 1 10 11
M  V30 11 2 11 12
M  V30 12 1 12 13
M  V30 13 2 13 14
M  V30 14 1 14 15
M  V30 15 2 15 16
M  V30 16 1 16 17
M  V30 17 2 17 18
M  V30 18 1 18 19
M  V30 19 2 19 20
M  V30 20 1 19 21
M  V30 21 1 21 22
M  V30 22 1 22 23
M  V30 23 1 23 24
M  V30 24 1 24 25
M  V30 25 1 25 26
M  V30 26 1 18 27
M  V30 27 2 27 28
M  V30 28 1 14 29
M  V30 29 2 29 30
M  V30 30 1 5 31
M  V30 31 2 31 32
M  V30 32 1 32 2
M  V30 33 1 30 7
M  V30 34 1 30 11
M  V30 35 1 28 15
M  V30 36 1 26 21
M  V30 37 1 1 33
M  V30 38 1 1 34
M  V30 39 1 1 35
M  V30 40 1 3 36
M  V30 41 1 4 37
M  V30 42 1 6 38
M  V30 43 1 9 39
M  V30 44 1 12 40
M  V30 45 1 13 41
M  V30 46 1 16 42
M  V30 47 1 17 43
M  V30 48 1 22 44
M  V30 49 1 22 45
M  V30 50 1 23 46
M  V30 51 1 23 47
M  V30 52 1 24 48
M  V30 53 1 25 49
M  V30 54 1 25 50
M  V30 55 1 26 51
M  V30 56 1 26 52
M  V30 57 1 27 53
M  V30 58 1 28 54
M  V30 59 1 31 55
M  V30 60 1 32 56
M  V30 END BOND
M  V30 END CTAB
M  END
>  <Dataset>  (31) 
ChEMBL_Kinases

>  <Ligand_Instance>  (31) 
nan

>  <PDB_ID>  (31) 
nan

>  <Standardized_SMILES>  (31) 
Cc1ccc(Nc2ncnc3ccc(-c4ccc(C(=O)N5CCNCC5)cc4)nc23)cc1

>  <Name>  (31) 
nan

>  <Pocket>  (31) 
nan

>  <ATP_Site>  (31) 
nan

>  <Peripheral>  (31) 
nan

>  <Num_H_Atoms_ProtBoundConf>  (31) 
nan

>  <Num_Resolved_Atoms>  (31) 
nan

>  <Num_Not_Resolved_Atoms>  (31) 
nan

$$$$
CHEMBL485014
     RDKit          3D

  0  0  0  0  0  0  0  0  0  0999 V3000
M  V30 BEGIN CTAB
M  V30 COUNTS 42 44 0 0 0
M  V30 BEGIN ATOM
M  V30 1 C -1.009216 -5.972229 0.042481 0
M  V30 2 C 0.261067 -6.083248 -0.743747 0
M  V30 3 S 1.328317 -4.696329 -0.599530 0
M  V30 4 O 2.542058 -4.963855 -1.450320 0
M  V30 5 O 1.824696 -4.565182 0.810036 0
M  V30 6 N 0.656559 -3.219702 -1.117803 0
M  V30 7 C -0.499850 -2.788840 -0.395332 0
M  V30 8 C -0.669646 -1.283166 -0.395803 0
M  V30 9 C 0.495929 -0.561052 0.239769 0
M  V30 10 O 0.187934 0.015500 1.463846 0
M  V30 11 C 0.294896 1.358686 1.753066 0
M  V30 12 C 0.696515 2.443767 1.007900 0
M  V30 13 C 0.708572 3.706781 1.554537 0
M  V30 14 C 1.124898 4.737238 0.738604 0
M  V30 15 N 1.159601 5.996311 1.213223 0
M  V30 16 C 0.791094 6.291771 2.494045 0
M  V30 17 C 0.365852 5.258152 3.336308 0
M  V30 18 C 0.329783 3.970583 2.852597 0
M  V30 19 C -0.078439 2.876839 3.614325 0
M  V30 20 C -0.098155 1.584702 3.078094 0
M  V30 21 Br -0.694473 0.258904 4.317294 0
M  V30 22 C 1.636717 -1.572413 0.344078 0
M  V30 23 C 1.741373 -2.229270 -1.019330 0
M  V30 24 H -0.770750 -5.544563 1.031031 0
M  V30 25 H -1.398761 -7.006582 0.275741 0
M  V30 26 H -1.837360 -5.479338 -0.488752 0
M  V30 27 H 0.089456 -6.322956 -1.813672 0
M  V30 28 H 0.810101 -6.955950 -0.335466 0
M  V30 29 H -1.392886 -3.172551 -0.967104 0
M  V30 30 H -0.581859 -3.131572 0.638674 0
M  V30 31 H -1.613275 -1.061560 0.129818 0
M  V30 32 H -0.814391 -0.973777 -1.457895 0
M  V30 33 H 0.840054 0.200317 -0.477447 0
M  V30 34 H 0.976958 2.159327 0.005700 0
M  V30 35 H 1.422942 4.534952 -0.280698 0
M  V30 36 H 0.821690 7.306611 2.867921 0
M  V30 37 H 0.065014 5.444863 4.356504 0
M  V30 38 H -0.368008 3.121059 4.626408 0
M  V30 39 H 1.498417 -2.271345 1.169011 0
M  V30 40 H 2.613954 -1.036853 0.477225 0
M  V30 41 H 2.735177 -2.709237 -1.071390 0
M  V30 42 H 1.672339 -1.457340 -1.792235 0
M  V30 END ATOM
M  V30 BEGIN BOND
M  V30 1 1 1 2
M  V30 2 1 2 3
M  V30 3 2 3 4
M  V30 4 2 3 5
M  V30 5 1 3 6
M  V30 6 1 6 7
M  V30 7 1 7 8
M  V30 8 1 8 9
M  V30 9 1 9 10
M  V30 10 1 10 11
M  V30 11 2 11 12
M  V30 12 1 12 13
M  V30 13 2 13 14
M  V30 14 1 14 15
M  V30 15 2 15 16
M  V30 16 1 16 17
M  V30 17 2 17 18
M  V30 18 1 18 19
M  V30 19 2 19 20
M  V30 20 1 20 21
M  V30 21 1 9 22
M  V30 22 1 22 23
M  V30 23 1 23 6
M  V30 24 1 20 11
M  V30 25 1 18 13
M  V30 26 1 1 24
M  V30 27 1 1 25
M  V30 28 1 1 26
M  V30 29 1 2 27
M  V30 30 1 2 28
M  V30 31 1 7 29
M  V30 32 1 7 30
M  V30 33 1 8 31
M  V30 34 1 8 32
M  V30 35 1 9 33
M  V30 36 1 12 34
M  V30 37 1 14 35
M  V30 38 1 16 36
M  V30 39 1 17 37
M  V30 40 1 19 38
M  V30 41 1 22 39
M  V30 42 1 22 40
M  V30 43 1 23 41
M  V30 44 1 23 42
M  V30 END BOND
M  V30 END CTAB
M  END
>  <Dataset>  (32) 
ChEMBL_Kinases

>  <Ligand_Instance>  (32) 
nan

>  <PDB_ID>  (32) 
nan

>  <Standardized_SMILES>  (32) 
CCS(=O)(=O)N1CCC(Oc2cc3cnccc3cc2Br)CC1

>  <Name>  (32) 
nan

>  <Pocket>  (32) 
nan

>  <ATP_Site>  (32) 
nan

>  <Peripheral>  (32) 
nan

>  <Num_H_Atoms_ProtBoundConf>  (32) 
nan

>  <Num_Resolved_Atoms>  (32) 
nan

>  <Num_Not_Resolved_Atoms>  (32) 
nan

$$$$
CHEMBL4086553
     RDKit          3D

  0  0  0  0  0  0  0  0  0  0999 V3000
M  V30 BEGIN CTAB
M  V30 COUNTS 69 73 0 0 0
M  V30 BEGIN ATOM
M  V30 1 C 0.872600 0.605921 5.685696 0
M  V30 2 O 1.612541 1.777300 5.453317 0
M  V30 3 C 2.853229 1.806853 4.834420 0
M  V30 4 C 3.432688 0.624399 4.407719 0
M  V30 5 C 4.674003 0.659608 3.783212 0
M  V30 6 C 5.310023 1.875864 3.597078 0
M  V30 7 N 6.560899 1.795805 2.938039 0
M  V30 8 C 7.047839 1.902042 1.612773 0
M  V30 9 S 8.637275 1.723020 1.342908 0
M  V30 10 N 6.189902 2.164704 0.515015 0
M  V30 11 C 4.794294 2.366647 0.504117 0
M  V30 12 C 3.927779 1.270749 0.546283 0
M  V30 13 C 2.554719 1.510597 0.528172 0
M  V30 14 C 2.043300 2.799738 0.470298 0
M  V30 15 C 0.553123 2.720695 0.479652 0
M  V30 16 N 0.120847 2.489255 -0.888633 0
M  V30 17 C -1.268526 2.078854 -0.923468 0
M  V30 18 N -2.433856 2.126766 -0.814981 0
M  V30 19 C -3.328285 1.208508 -1.105592 0
M  V30 20 C -4.698018 1.266320 -0.980192 0
M  V30 21 C -5.456966 0.176214 -1.352535 0
M  V30 22 C -4.997928 -1.007185 -1.853230 0
M  V30 23 O -5.767887 -2.069854 -2.223670 0
M  V30 24 C -5.359070 -3.306913 -2.711203 0
M  V30 25 C -4.585573 -4.180018 -1.774476 0
M  V30 26 N -4.146783 -5.406493 -2.331589 0
M  V30 27 C -5.097770 -6.397674 -2.643922 0
M  V30 28 C -4.385113 -7.757696 -2.739067 0
M  V30 29 O -3.681885 -8.072231 -1.592460 0
M  V30 30 C -2.971034 -7.036190 -1.037986 0
M  V30 31 C -2.855710 -5.876523 -2.019056 0
M  V30 32 C -3.623869 -1.148628 -2.010210 0
M  V30 33 C -2.889136 -0.020984 -1.620252 0
M  V30 34 S -1.050273 0.321059 -1.626381 0
M  V30 35 C 2.904097 3.872804 0.428705 0
M  V30 36 C 4.266768 3.643206 0.446073 0
M  V30 37 C 4.745143 3.064600 4.018719 0
M  V30 38 C 3.491361 3.021342 4.649859 0
M  V30 39 H -0.142120 0.916717 6.018097 0
M  V30 40 H 1.413496 0.028586 6.489579 0
M  V30 41 H 0.819203 -0.008049 4.749802 0
M  V30 42 H 2.921695 -0.332974 4.556834 0
M  V30 43 H 5.072885 -0.318240 3.476333 0
M  V30 44 H 7.208563 1.604764 3.738346 0
M  V30 45 H 6.561381 2.235362 -0.465787 0
M  V30 46 H 4.399004 0.313306 0.588856 0
M  V30 47 H 2.015148 0.557558 0.567291 0
M  V30 48 H 0.140602 2.058055 1.228559 0
M  V30 49 H 0.186230 3.789815 0.716097 0
M  V30 50 H 0.795606 2.627160 -1.704096 0
M  V30 51 H -5.242057 2.119348 -0.603693 0
M  V30 52 H -6.552221 0.224245 -1.249764 0
M  V30 53 H -4.865818 -3.229509 -3.715936 0
M  V30 54 H -6.321834 -3.860667 -2.956245 0
M  V30 55 H -3.763068 -3.643026 -1.303598 0
M  V30 56 H -5.264785 -4.470483 -0.883356 0
M  V30 57 H -5.649602 -6.272893 -3.601586 0
M  V30 58 H -5.884596 -6.441662 -1.840106 0
M  V30 59 H -5.176905 -8.558369 -2.865929 0
M  V30 60 H -3.702616 -7.770785 -3.605586 0
M  V30 61 H -3.555614 -6.667317 -0.171171 0
M  V30 62 H -1.969623 -7.309358 -0.638772 0
M  V30 63 H -2.195147 -5.127253 -1.533040 0
M  V30 64 H -2.304173 -6.281974 -2.916999 0
M  V30 65 H -2.955452 -1.880061 -2.366749 0
M  V30 66 H 2.369032 4.805956 0.385977 0
M  V30 67 H 4.881924 4.545787 0.412382 0
M  V30 68 H 5.302747 3.983896 3.841253 0
M  V30 69 H 3.072205 3.963806 4.964174 0
M  V30 END ATOM
M  V30 BEGIN BOND
M  V30 1 1 1 2
M  V30 2 1 2 3
M  V30 3 2 3 4
M  V30 4 1 4 5
M  V30 5 2 5 6
M  V30 6 1 6 7
M  V30 7 1 7 8
M  V30 8 2 8 9
M  V30 9 1 8 10
M  V30 10 1 10 11
M  V30 11 2 11 12
M  V30 12 1 12 13
M  V30 13 2 13 14
M  V30 14 1 14 15
M  V30 15 1 15 16
M  V30 16 1 16 17
M  V30 17 2 17 18
M  V30 18 1 18 19
M  V30 19 2 19 20
M  V30 20 1 20 21
M  V30 21 2 21 22
M  V30 22 1 22 23
M  V30 23 1 23 24
M  V30 24 1 24 25
M  V30 25 1 25 26
M  V30 26 1 26 27
M  V30 27 1 27 28
M  V30 28 1 28 29
M  V30 29 1 29 30
M  V30 30 1 30 31
M  V30 31 1 22 32
M  V30 32 2 32 33
M  V30 33 1 33 34
M  V30 34 1 14 35
M  V30 35 2 35 36
M  V30 36 1 6 37
M  V30 37 2 37 38
M  V30 38 1 38 3
M  V30 39 1 36 11
M  V30 40 1 34 17
M  V30 41 1 33 19
M  V30 42 1 31 26
M  V30 43 1 1 39
M  V30 44 1 1 40
M  V30 45 1 1 41
M  V30 46 1 4 42
M  V30 47 1 5 43
M  V30 48 1 7 44
M  V30 49 1 10 45
M  V30 50 1 12 46
M  V30 51 1 13 47
M  V30 52 1 15 48
M  V30 53 1 15 49
M  V30 54 1 16 50
M  V30 55 1 20 51
M  V30 56 1 21 52
M  V30 57 1 24 53
M  V30 58 1 24 54
M  V30 59 1 25 55
M  V30 60 1 25 56
M  V30 61 1 27 57
M  V30 62 1 27 58
M  V30 63 1 28 59
M  V30 64 1 28 60
M  V30 65 1 30 61
M  V30 66 1 30 62
M  V30 67 1 31 63
M  V30 68 1 31 64
M  V30 69 1 32 65
M  V30 70 1 35 66
M  V30 71 1 36 67
M  V30 72 1 37 68
M  V30 73 1 38 69
M  V30 END BOND
M  V30 END CTAB
M  END
>  <Dataset>  (33) 
ChEMBL_Kinases

>  <Ligand_Instance>  (33) 
nan

>  <PDB_ID>  (33) 
nan

>  <Standardized_SMILES>  (33) 
COc1ccc(NC(=S)Nc2ccc(CNc3nc4ccc(OCCN5CCOCC5)cc4s3)cc2)cc1

>  <Name>  (33) 
nan

>  <Pocket>  (33) 
nan

>  <ATP_Site>  (33) 
nan

>  <Peripheral>  (33) 
nan

>  <Num_H_Atoms_ProtBoundConf>  (33) 
nan

>  <Num_Resolved_Atoms>  (33) 
nan

>  <Num_Not_Resolved_Atoms>  (33) 
nan

$$$$
CHEMBL4850006
     RDKit          3D

  0  0  0  0  0  0  0  0  0  0999 V3000
M  V30 BEGIN CTAB
M  V30 COUNTS 30 32 0 0 0
M  V30 BEGIN ATOM
M  V30 1 F -3.089654 -4.612328 2.855636 0
M  V30 2 C -1.920896 -4.079262 2.474975 0
M  V30 3 C -1.005720 -3.594732 3.371812 0
M  V30 4 C 0.174385 -3.061046 2.904893 0
M  V30 5 C 0.529665 -2.968232 1.555190 0
M  V30 6 C 1.840297 -2.369868 1.230932 0
M  V30 7 N 1.750711 -0.948061 1.084465 0
M  V30 8 C 1.003917 -0.143212 0.190032 0
M  V30 9 N 0.201671 -0.675365 -0.732226 0
M  V30 10 N -0.400020 0.238614 -1.461712 0
M  V30 11 C 0.011960 1.437706 -1.014739 0
M  V30 12 C -0.236556 2.773481 -1.343605 0
M  V30 13 C 0.387429 3.792922 -0.643686 0
M  V30 14 F 0.098446 5.062220 -1.017934 0
M  V30 15 C 1.266450 3.543725 0.390788 0
M  V30 16 C 1.527147 2.223976 0.733425 0
M  V30 17 C 0.891609 1.240057 0.018981 0
M  V30 18 C -0.413326 -3.465226 0.674313 0
M  V30 19 C -1.595899 -4.000794 1.127187 0
M  V30 20 H -1.214023 -3.634127 4.430732 0
M  V30 21 H 0.861597 -2.691707 3.676382 0
M  V30 22 H 2.528796 -2.641379 2.033018 0
M  V30 23 H 2.189716 -2.761855 0.242368 0
M  V30 24 H 2.328552 -0.341761 1.740232 0
M  V30 25 H -1.079470 0.132310 -2.252728 0
M  V30 26 H -0.937600 2.952047 -2.168048 0
M  V30 27 H 1.736399 4.365623 0.916367 0
M  V30 28 H 2.219910 1.989217 1.549805 0
M  V30 29 H -0.162319 -3.407625 -0.359152 0
M  V30 30 H -2.290300 -4.372458 0.375200 0
M  V30 END ATOM
M  V30 BEGIN BOND
M  V30 1 1 1 2
M  V30 2 2 2 3
M  V30 3 1 3 4
M  V30 4 2 4 5
M  V30 5 1 5 6
M  V30 6 1 6 7
M  V30 7 1 7 8
M  V30 8 2 8 9
M  V30 9 1 9 10
M  V30 10 1 10 11
M  V30 11 2 11 12
M  V30 12 1 12 13
M  V30 13 1 13 14
M  V30 14 2 13 15
M  V30 15 1 15 16
M  V30 16 2 16 17
M  V30 17 1 5 18
M  V30 18 2 18 19
M  V30 19 1 19 2
M  V30 20 1 17 8
M  V30 21 1 17 11
M  V30 22 1 3 20
M  V30 23 1 4 21
M  V30 24 1 6 22
M  V30 25 1 6 23
M  V30 26 1 7 24
M  V30 27 1 10 25
M  V30 28 1 12 26
M  V30 29 1 15 27
M  V30 30 1 16 28
M  V30 31 1 18 29
M  V30 32 1 19 30
M  V30 END BOND
M  V30 END CTAB
M  END
>  <Dataset>  (34) 
ChEMBL_Kinases

>  <Ligand_Instance>  (34) 
nan

>  <PDB_ID>  (34) 
nan

>  <Standardized_SMILES>  (34) 
Fc1ccc(CNc2n[nH]c3cc(F)ccc23)cc1

>  <Name>  (34) 
nan

>  <Pocket>  (34) 
nan

>  <ATP_Site>  (34) 
nan

>  <Peripheral>  (34) 
nan

>  <Num_H_Atoms_ProtBoundConf>  (34) 
nan

>  <Num_Resolved_Atoms>  (34) 
nan

>  <Num_Not_Resolved_Atoms>  (34) 
nan

$$$$
CHEMBL4086508
     RDKit          3D

  0  0  0  0  0  0  0  0  0  0999 V3000
M  V30 BEGIN CTAB
M  V30 COUNTS 62 66 0 0 0
M  V30 BEGIN ATOM
M  V30 1 N 3.041466 -3.806009 4.866916 0
M  V30 2 C 3.803662 -2.921716 4.081140 0
M  V30 3 O 4.963405 -2.693743 4.550162 0
M  V30 4 C 3.417063 -2.267416 2.837233 0
M  V30 5 C 4.359164 -1.439670 2.264345 0
M  V30 6 C 3.975390 -0.817051 1.069988 0
M  V30 7 C 2.720473 -1.008255 0.477504 0
M  V30 8 C 2.428787 -0.307971 -0.772101 0
M  V30 9 C 3.324709 -0.262200 -1.820877 0
M  V30 10 N 2.699492 0.462414 -2.766680 0
M  V30 11 C 1.481506 0.844658 -2.326304 0
M  V30 12 C 0.506832 1.594647 -2.956680 0
M  V30 13 C -0.682994 1.872737 -2.312336 0
M  V30 14 O -1.760285 2.605788 -2.796047 0
M  V30 15 C -1.860294 3.212984 -4.040640 0
M  V30 16 C -2.305766 4.658832 -3.807786 0
M  V30 17 C -3.763504 4.700643 -3.402378 0
M  V30 18 N -4.199073 3.456704 -2.812016 0
M  V30 19 C -4.090994 2.322189 -3.674241 0
M  V30 20 C -3.063980 2.564255 -4.740345 0
M  V30 21 C -0.843878 1.366429 -1.018842 0
M  V30 22 C 0.143050 0.618378 -0.405984 0
M  V30 23 N 1.290783 0.365287 -1.061492 0
M  V30 24 C 1.824567 -1.851061 1.104985 0
M  V30 25 C 2.174095 -2.475684 2.278283 0
M  V30 26 O 1.335099 -3.332364 2.965753 0
M  V30 27 C 0.036394 -3.658579 2.539725 0
M  V30 28 C -0.633414 -4.606661 3.486103 0
M  V30 29 C -0.820837 -5.959906 3.292559 0
M  V30 30 C -1.443889 -6.749319 4.215776 0
M  V30 31 C -1.919947 -6.222686 5.398411 0
M  V30 32 C -1.725833 -4.878571 5.574783 0
M  V30 33 C -1.101570 -4.033462 4.672628 0
M  V30 34 C -0.982774 -2.598929 5.036287 0
M  V30 35 F -1.547662 -2.340747 6.286207 0
M  V30 36 F -1.692637 -1.859479 4.120462 0
M  V30 37 F 0.338541 -2.273554 5.110879 0
M  V30 38 H 2.903472 -4.720914 4.379481 0
M  V30 39 H 2.745080 -3.407883 5.791552 0
M  V30 40 H 5.349279 -1.233599 2.649645 0
M  V30 41 H 4.680602 -0.159643 0.584936 0
M  V30 42 H 4.308465 -0.682760 -1.928251 0
M  V30 43 H 0.598163 2.000936 -3.954532 0
M  V30 44 H -0.955507 3.120263 -4.632777 0
M  V30 45 H -2.205885 5.235945 -4.749240 0
M  V30 46 H -1.680858 5.152160 -3.040812 0
M  V30 47 H -3.868237 5.490889 -2.632940 0
M  V30 48 H -4.427689 4.981136 -4.246362 0
M  V30 49 H -3.855735 3.314034 -1.848460 0
M  V30 50 H -5.065095 1.982064 -4.082173 0
M  V30 51 H -3.731082 1.461304 -3.057238 0
M  V30 52 H -2.766803 1.645011 -5.277236 0
M  V30 53 H -3.401930 3.282413 -5.515054 0
M  V30 54 H -1.763502 1.550450 -0.452305 0
M  V30 55 H 0.015033 0.228705 0.595887 0
M  V30 56 H 0.849858 -2.016119 0.667864 0
M  V30 57 H -0.606976 -2.791948 2.329168 0
M  V30 58 H 0.173976 -4.157508 1.536230 0
M  V30 59 H -0.426384 -6.308500 2.350256 0
M  V30 60 H -1.565404 -7.797486 4.018433 0
M  V30 61 H -2.426755 -6.812770 6.171442 0
M  V30 62 H -2.102411 -4.459329 6.510813 0
M  V30 END ATOM
M  V30 BEGIN BOND
M  V30 1 1 1 2
M  V30 2 2 2 3
M  V30 3 1 2 4
M  V30 4 2 4 5
M  V30 5 1 5 6
M  V30 6 2 6 7
M  V30 7 1 7 8
M  V30 8 2 8 9
M  V30 9 1 9 10
M  V30 10 2 10 11
M  V30 11 1 11 12
M  V30 12 2 12 13
M  V30 13 1 13 14
M  V30 14 1 14 15
M  V30 15 1 15 16
M  V30 16 1 16 17
M  V30 17 1 17 18
M  V30 18 1 18 19
M  V30 19 1 19 20
M  V30 20 1 13 21
M  V30 21 2 21 22
M  V30 22 1 22 23
M  V30 23 1 7 24
M  V30 24 2 24 25
M  V30 25 1 25 26
M  V30 26 1 26 27
M  V30 27 1 27 28
M  V30 28 2 28 29
M  V30 29 1 29 30
M  V30 30 2 30 31
M  V30 31 1 31 32
M  V30 32 2 32 33
M  V30 33 1 33 34
M  V30 34 1 34 35
M  V30 35 1 34 36
M  V30 36 1 34 37
M  V30 37 1 25 4
M  V30 38 1 33 28
M  V30 39 1 23 8
M  V30 40 1 23 11
M  V30 41 1 20 15
M  V30 42 1 1 38
M  V30 43 1 1 39
M  V30 44 1 5 40
M  V30 45 1 6 41
M  V30 46 1 9 42
M  V30 47 1 12 43
M  V30 48 1 15 44
M  V30 49 1 16 45
M  V30 50 1 16 46
M  V30 51 1 17 47
M  V30 52 1 17 48
M  V30 53 1 18 49
M  V30 54 1 19 50
M  V30 55 1 19 51
M  V30 56 1 20 52
M  V30 57 1 20 53
M  V30 58 1 21 54
M  V30 59 1 22 55
M  V30 60 1 24 56
M  V30 61 1 27 57
M  V30 62 1 27 58
M  V30 63 1 29 59
M  V30 64 1 30 60
M  V30 65 1 31 61
M  V30 66 1 32 62
M  V30 END BOND
M  V30 END CTAB
M  END
>  <Dataset>  (35) 
ChEMBL_Kinases

>  <Ligand_Instance>  (35) 
nan

>  <PDB_ID>  (35) 
nan

>  <Standardized_SMILES>  (35) 
NC(=O)c1ccc(-c2cnc3cc(OC4CCNCC4)ccn23)cc1OCc1ccccc1C(F)(F)F

>  <Name>  (35) 
nan

>  <Pocket>  (35) 
nan

>  <ATP_Site>  (35) 
nan

>  <Peripheral>  (35) 
nan

>  <Num_H_Atoms_ProtBoundConf>  (35) 
nan

>  <Num_Resolved_Atoms>  (35) 
nan

>  <Num_Not_Resolved_Atoms>  (35) 
nan

$$$$
CHEMBL4086507
     RDKit          3D

  0  0  0  0  0  0  0  0  0  0999 V3000
M  V30 BEGIN CTAB
M  V30 COUNTS 54 57 0 0 0
M  V30 BEGIN ATOM
M  V30 1 C 0.812099 -7.097638 3.219779 0
M  V30 2 O 0.842274 -6.461294 1.977293 0
M  V30 3 C 1.915335 -5.610198 1.887776 0
M  V30 4 C 2.043177 -4.877168 0.586010 0
M  V30 5 N 0.909488 -4.041381 0.267644 0
M  V30 6 C 0.931173 -2.688823 0.736937 0
M  V30 7 O 1.691960 -2.306777 1.689089 0
M  V30 8 C 0.081393 -1.652307 0.155722 0
M  V30 9 C -0.124058 -0.305291 0.377264 0
M  V30 10 C -1.096753 0.055148 -0.560732 0
M  V30 11 C -1.493788 1.480699 -0.522280 0
M  V30 12 N -0.559448 2.453157 -0.428620 0
M  V30 13 C -0.837167 3.769110 -0.386302 0
M  V30 14 N 0.348410 4.549336 -0.288956 0
M  V30 15 C 1.128431 4.999861 0.838551 0
M  V30 16 C 2.266403 5.765875 0.692057 0
M  V30 17 C 2.674111 5.954585 1.979212 0
M  V30 18 N 1.838722 5.344759 2.831981 0
M  V30 19 N 0.867154 4.743895 2.126657 0
M  V30 20 C -0.234572 3.975247 2.678141 0
M  V30 21 N -2.142587 4.166599 -0.440659 0
M  V30 22 C -3.102478 3.232730 -0.534156 0
M  V30 23 C -2.808992 1.896224 -0.576356 0
M  V30 24 C -3.888422 0.879405 -0.680440 0
M  V30 25 C -1.458047 -1.039271 -1.314550 0
M  V30 26 N -0.709125 -2.080654 -0.844572 0
M  V30 27 C -0.809114 -3.412815 -1.397554 0
M  V30 28 C -0.246686 -4.475561 -0.496321 0 CFG=1
M  V30 29 C 0.150009 -5.649642 -1.369688 0
M  V30 30 H 0.732342 -6.393752 4.073596 0
M  V30 31 H 0.047060 -7.902036 3.240037 0
M  V30 32 H 1.798787 -7.624784 3.370699 0
M  V30 33 H 2.835899 -6.244367 1.980171 0
M  V30 34 H 1.990480 -4.913422 2.763309 0
M  V30 35 H 2.946011 -4.239484 0.656085 0
M  V30 36 H 2.133878 -5.626394 -0.230386 0
M  V30 37 H 0.417153 0.227495 1.141413 0
M  V30 38 H 0.605013 4.778591 -1.266043 0
M  V30 39 H 2.781956 6.163733 -0.170395 0
M  V30 40 H 3.505459 6.478601 2.424730 0
M  V30 41 H 0.025838 2.877714 2.641117 0
M  V30 42 H -0.271576 4.197323 3.770322 0
M  V30 43 H -1.186480 4.167710 2.180826 0
M  V30 44 H -4.113693 3.613402 -0.573228 0
M  V30 45 H -4.152763 0.716553 -1.765362 0
M  V30 46 H -3.671850 -0.051288 -0.156183 0
M  V30 47 H -4.846934 1.275952 -0.240622 0
M  V30 48 H -2.202852 -0.896013 -2.077070 0
M  V30 49 H -1.879455 -3.695519 -1.581566 0
M  V30 50 H -0.271032 -3.368095 -2.375084 0
M  V30 51 H -1.067022 -4.822630 0.180964 0
M  V30 52 H 1.040973 -5.407462 -1.977424 0
M  V30 53 H -0.656312 -5.894660 -2.092446 0
M  V30 54 H 0.361178 -6.508434 -0.711687 0
M  V30 END ATOM
M  V30 BEGIN BOND
M  V30 1 1 1 2
M  V30 2 1 2 3
M  V30 3 1 3 4
M  V30 4 1 4 5
M  V30 5 1 5 6
M  V30 6 2 6 7
M  V30 7 1 6 8
M  V30 8 2 8 9
M  V30 9 1 9 10
M  V30 10 1 10 11
M  V30 11 2 11 12
M  V30 12 1 12 13
M  V30 13 1 13 14
M  V30 14 1 14 15
M  V30 15 2 15 16
M  V30 16 1 16 17
M  V30 17 2 17 18
M  V30 18 1 18 19
M  V30 19 1 19 20
M  V30 20 2 13 21
M  V30 21 1 21 22
M  V30 22 2 22 23
M  V30 23 1 23 24
M  V30 24 2 10 25
M  V30 25 1 25 26
M  V30 26 1 26 27
M  V30 27 1 27 28
M  V30 28 1 28 29
M  V30 29 1 28 5
M  V30 30 1 26 8
M  V30 31 1 23 11
M  V30 32 1 19 15
M  V30 33 1 1 30
M  V30 34 1 1 31
M  V30 35 1 1 32
M  V30 36 1 3 33
M  V30 37 1 3 34
M  V30 38 1 4 35
M  V30 39 1 4 36
M  V30 40 1 9 37
M  V30 41 1 14 38
M  V30 42 1 16 39
M  V30 43 1 17 40
M  V30 44 1 20 41
M  V30 45 1 20 42
M  V30 46 1 20 43
M  V30 47 1 22 44
M  V30 48 1 24 45
M  V30 49 1 24 46
M  V30 50 1 24 47
M  V30 51 1 25 48
M  V30 52 1 27 49
M  V30 53 1 27 50
M  V30 54 1 28 51 CFG=1
M  V30 55 1 29 52
M  V30 56 1 29 53
M  V30 57 1 29 54
M  V30 END BOND
M  V30 END CTAB
M  END
>  <Dataset>  (36) 
ChEMBL_Kinases

>  <Ligand_Instance>  (36) 
nan

>  <PDB_ID>  (36) 
nan

>  <Standardized_SMILES>  (36) 
COCCN1C(=O)c2cc(-c3nc(Nc4ccnn4C)ncc3C)cn2C[C@H]1C

>  <Name>  (36) 
nan

>  <Pocket>  (36) 
nan

>  <ATP_Site>  (36) 
nan

>  <Peripheral>  (36) 
nan

>  <Num_H_Atoms_ProtBoundConf>  (36) 
nan

>  <Num_Resolved_Atoms>  (36) 
nan

>  <Num_Not_Resolved_Atoms>  (36) 
nan

$$$$
CHEMBL4086498
     RDKit          3D

  0  0  0  0  0  0  0  0  0  0999 V3000
M  V30 BEGIN CTAB
M  V30 COUNTS 42 45 0 0 0
M  V30 BEGIN ATOM
M  V30 1 C 1.223619 -3.023245 0.550779 0
M  V30 2 O 1.008884 -1.969669 -0.337435 0
M  V30 3 C 1.450589 -1.864986 -1.621731 0
M  V30 4 C 2.188628 -2.939784 -2.065906 0
M  V30 5 C 2.682062 -2.923233 -3.375585 0
M  V30 6 C 2.419329 -1.825776 -4.203049 0
M  V30 7 C 1.677123 -0.744376 -3.756621 0
M  V30 8 N 1.391866 0.319958 -4.521615 0
M  V30 9 C 0.660629 1.356254 -4.082464 0
M  V30 10 C 0.212297 1.267290 -2.782373 0
M  V30 11 C 0.455459 0.208433 -1.912170 0
M  V30 12 N -0.104286 0.333100 -0.618910 0
M  V30 13 C 0.396756 0.452920 0.705702 0
M  V30 14 C 1.715356 0.803266 1.011119 0
M  V30 15 C 2.211656 0.917651 2.285440 0
M  V30 16 N 1.323016 0.663801 3.256255 0
M  V30 17 C 0.052601 0.325362 3.021825 0
M  V30 18 C -0.784628 0.082015 4.185620 0
M  V30 19 C -2.113915 -0.274893 4.125145 0
M  V30 20 C -2.934835 -0.512759 5.205959 0
M  V30 21 C -2.395487 -0.387284 6.469305 0
M  V30 22 C -1.070158 -0.032654 6.607426 0
M  V30 23 C -0.314105 0.188534 5.476594 0
M  V30 24 C -0.441242 0.211562 1.753850 0
M  V30 25 C 1.212120 -0.801124 -2.462722 0
M  V30 26 H 0.433383 -2.941690 1.350245 0
M  V30 27 H 1.083068 -4.024459 0.096299 0
M  V30 28 H 2.196752 -2.883356 1.046146 0
M  V30 29 H 2.439181 -3.832340 -1.489783 0
M  V30 30 H 3.278358 -3.724024 -3.826960 0
M  V30 31 H 2.791568 -1.788725 -5.225928 0
M  V30 32 H 0.433563 2.210826 -4.704310 0
M  V30 33 H -0.384378 2.132511 -2.451742 0
M  V30 34 H -1.152089 0.327080 -0.749832 0
M  V30 35 H 2.386682 0.996650 0.170225 0
M  V30 36 H 3.223417 1.186773 2.500046 0
M  V30 37 H -2.601831 -0.391307 3.168357 0
M  V30 38 H -3.970637 -0.790042 5.106060 0
M  V30 39 H -3.029035 -0.571200 7.324891 0
M  V30 40 H -0.656826 0.062973 7.609871 0
M  V30 41 H 0.731690 0.467276 5.655786 0
M  V30 42 H -1.461305 -0.059855 1.537904 0
M  V30 END ATOM
M  V30 BEGIN BOND
M  V30 1 1 1 2
M  V30 2 1 2 3
M  V30 3 2 3 4
M  V30 4 1 4 5
M  V30 5 2 5 6
M  V30 6 1 6 7
M  V30 7 2 7 8
M  V30 8 1 8 9
M  V30 9 2 9 10
M  V30 10 1 10 11
M  V30 11 1 11 12
M  V30 12 1 12 13
M  V30 13 2 13 14
M  V30 14 1 14 15
M  V30 15 2 15 16
M  V30 16 1 16 17
M  V30 17 1 17 18
M  V30 18 2 18 19
M  V30 19 1 19 20
M  V30 20 2 20 21
M  V30 21 1 21 22
M  V30 22 2 22 23
M  V30 23 2 17 24
M  V30 24 2 11 25
M  V30 25 1 25 3
M  V30 26 1 25 7
M  V30 27 1 24 13
M  V30 28 1 23 18
M  V30 29 1 1 26
M  V30 30 1 1 27
M  V30 31 1 1 28
M  V30 32 1 4 29
M  V30 33 1 5 30
M  V30 34 1 6 31
M  V30 35 1 9 32
M  V30 36 1 10 33
M  V30 37 1 12 34
M  V30 38 1 14 35
M  V30 39 1 15 36
M  V30 40 1 19 37
M  V30 41 1 20 38
M  V30 42 1 21 39
M  V30 43 1 22 40
M  V30 44 1 23 41
M  V30 45 1 24 42
M  V30 END BOND
M  V30 END CTAB
M  END
>  <Dataset>  (37) 
ChEMBL_Kinases

>  <Ligand_Instance>  (37) 
nan

>  <PDB_ID>  (37) 
nan

>  <Standardized_SMILES>  (37) 
COc1cccc2nccc(Nc3ccnc(-c4ccccc4)c3)c12

>  <Name>  (37) 
nan

>  <Pocket>  (37) 
nan

>  <ATP_Site>  (37) 
nan

>  <Peripheral>  (37) 
nan

>  <Num_H_Atoms_ProtBoundConf>  (37) 
nan

>  <Num_Resolved_Atoms>  (37) 
nan

>  <Num_Not_Resolved_Atoms>  (37) 
nan

$$$$
CHEMBL4086487
     RDKit          3D

  0  0  0  0  0  0  0  0  0  0999 V3000
M  V30 BEGIN CTAB
M  V30 COUNTS 40 43 0 0 0
M  V30 BEGIN ATOM
M  V30 1 C -0.910422 -7.078201 1.514880 0
M  V30 2 C -0.960456 -5.721902 0.907742 0
M  V30 3 O -0.370701 -4.835400 1.612357 0
M  V30 4 N -1.562498 -5.300254 -0.318801 0
M  V30 5 C -1.406035 -3.906619 -0.574810 0
M  V30 6 C -2.354512 -2.983962 -0.123154 0
M  V30 7 C -2.135582 -1.631815 -0.411138 0
M  V30 8 C -0.977813 -1.308216 -1.132658 0
M  V30 9 O -0.765812 -0.029319 -1.410357 0
M  V30 10 C -0.108884 0.990647 -0.757667 0
M  V30 11 S -0.172107 2.565501 -1.679309 0
M  V30 12 C 0.757685 3.541468 -0.515991 0
M  V30 13 C 1.021343 4.920637 -0.751976 0
M  V30 14 N 1.761131 5.647041 0.199245 0
M  V30 15 O 0.580121 5.435528 -1.805942 0
M  V30 16 C 1.058379 2.622734 0.493922 0
M  V30 17 C 0.615952 1.358918 0.351138 0
M  V30 18 C 0.905844 0.349859 1.408191 0
M  V30 19 S 0.585895 -1.260885 1.660304 0
M  V30 20 N 1.427130 -1.473072 3.300720 0
M  V30 21 C 1.881204 -0.074556 3.402716 0
M  V30 22 C 1.623751 0.858097 2.451435 0
M  V30 23 C 2.154829 2.202549 2.733919 0
M  V30 24 C 1.844381 3.121196 1.635938 0
M  V30 25 C -0.043954 -2.255963 -1.572738 0
M  V30 26 N -0.290215 -3.555929 -1.274745 0
M  V30 27 H -1.282937 -7.837089 0.803463 0
M  V30 28 H 0.136474 -7.340726 1.830143 0
M  V30 29 H -1.524557 -7.070695 2.424945 0
M  V30 30 H -2.018637 -6.104746 -0.818313 0
M  V30 31 H -3.221652 -3.294250 0.425218 0
M  V30 32 H -2.812513 -0.862739 -0.101762 0
M  V30 33 H 1.694731 6.216933 1.088481 0
M  V30 34 H 2.685793 6.020974 0.568706 0
M  V30 35 H 2.374100 -0.220392 4.374959 0
M  V30 36 H 3.268001 2.194751 2.918694 0
M  V30 37 H 1.727219 2.629750 3.678740 0
M  V30 38 H 2.845774 3.482041 1.217994 0
M  V30 39 H 1.351104 4.056090 2.075127 0
M  V30 40 H 0.821925 -1.916432 -2.123790 0
M  V30 END ATOM
M  V30 BEGIN BOND
M  V30 1 1 1 2
M  V30 2 2 2 3
M  V30 3 1 2 4
M  V30 4 1 4 5
M  V30 5 2 5 6
M  V30 6 1 6 7
M  V30 7 2 7 8
M  V30 8 1 8 9
M  V30 9 1 9 10
M  V30 10 1 10 11
M  V30 11 1 11 12
M  V30 12 1 12 13
M  V30 13 1 13 14
M  V30 14 2 13 15
M  V30 15 2 12 16
M  V30 16 1 16 17
M  V30 17 1 17 18
M  V30 18 1 18 19
M  V30 19 1 19 20
M  V30 20 2 20 21
M  V30 21 1 21 22
M  V30 22 1 22 23
M  V30 23 1 23 24
M  V30 24 1 8 25
M  V30 25 2 25 26
M  V30 26 1 26 5
M  V30 27 2 17 10
M  V30 28 2 22 18
M  V30 29 1 24 16
M  V30 30 1 1 27
M  V30 31 1 1 28
M  V30 32 1 1 29
M  V30 33 1 4 30
M  V30 34 1 6 31
M  V30 35 1 7 32
M  V30 36 1 14 33
M  V30 37 1 14 34
M  V30 38 1 21 35
M  V30 39 1 23 36
M  V30 40 1 23 37
M  V30 41 1 24 38
M  V30 42 1 24 39
M  V30 43 1 25 40
M  V30 END BOND
M  V30 END CTAB
M  END
>  <Dataset>  (38) 
ChEMBL_Kinases

>  <Ligand_Instance>  (38) 
nan

>  <PDB_ID>  (38) 
nan

>  <Standardized_SMILES>  (38) 
CC(=O)Nc1ccc(Oc2sc(C(N)=O)c3c2-c2sncc2CC3)cn1

>  <Name>  (38) 
nan

>  <Pocket>  (38) 
nan

>  <ATP_Site>  (38) 
nan

>  <Peripheral>  (38) 
nan

>  <Num_H_Atoms_ProtBoundConf>  (38) 
nan

>  <Num_Resolved_Atoms>  (38) 
nan

>  <Num_Not_Resolved_Atoms>  (38) 
nan

$$$$
CHEMBL4850048
     RDKit          3D

  0  0  0  0  0  0  0  0  0  0999 V3000
M  V30 BEGIN CTAB
M  V30 COUNTS 51 53 0 0 0
M  V30 BEGIN ATOM
M  V30 1 C -0.783830 -2.450780 4.814234 0
M  V30 2 O 0.044683 -3.001399 5.698829 0
M  V30 3 C 1.261295 -3.458001 5.501022 0
M  V30 4 C 2.392880 -2.605179 5.032541 0
M  V30 5 N 2.254109 -2.025650 3.733269 0
M  V30 6 C 1.847410 -0.947759 3.049253 0
M  V30 7 C 1.991926 -1.044333 1.688332 0
M  V30 8 C 1.622436 -0.006993 0.741467 0
M  V30 9 O 1.130279 1.079348 1.134592 0
M  V30 10 N 1.805409 -0.190987 -0.636113 0
M  V30 11 C 1.378692 0.950216 -1.411309 0
M  V30 12 C 2.195053 2.006004 -1.747079 0
M  V30 13 C 1.604310 3.022854 -2.504071 0
M  V30 14 C 0.274859 2.891631 -2.849019 0
M  V30 15 C -0.527974 1.822059 -2.501249 0
M  V30 16 C -1.927621 1.720548 -2.884964 0
M  V30 17 N -2.590166 2.119328 -3.980984 0
M  V30 18 N -3.859729 1.815987 -3.896681 0
M  V30 19 C -4.045643 1.198882 -2.712398 0
M  V30 20 N -2.850208 1.132494 -2.071414 0
M  V30 21 C -2.756250 0.519529 -0.777391 0 CFG=1
M  V30 22 C -3.814915 1.045584 0.164730 0
M  V30 23 C -2.970841 -0.993093 -0.905569 0
M  V30 24 F -2.018118 -1.551175 -1.730782 0
M  V30 25 F -2.849189 -1.580211 0.338462 0
M  V30 26 F -4.204969 -1.232041 -1.457808 0
M  V30 27 N 0.063552 0.837836 -1.762334 0
M  V30 28 C 2.535324 -2.296508 1.549637 0
M  V30 29 O 2.860743 -2.837355 0.295878 0
M  V30 30 C 3.421745 -4.135212 0.181385 0
M  V30 31 N 2.680369 -2.853396 2.759596 0
M  V30 32 H -0.436637 -1.506240 4.370844 0
M  V30 33 H -1.798275 -2.190482 5.267620 0
M  V30 34 H -1.056426 -3.122870 3.951488 0
M  V30 35 H 1.605599 -3.932482 6.502264 0
M  V30 36 H 1.191200 -4.369008 4.803052 0
M  V30 37 H 3.384615 -3.145011 5.160750 0
M  V30 38 H 2.502675 -1.751929 5.802285 0
M  V30 39 H 1.458912 -0.151955 3.705181 0
M  V30 40 H 2.205484 -1.054995 -1.062713 0
M  V30 41 H 3.205123 1.987678 -1.418718 0
M  V30 42 H 2.214814 3.859457 -2.781588 0
M  V30 43 H -0.135313 3.697757 -3.430818 0
M  V30 44 H -5.011493 0.846483 -2.399344 0
M  V30 45 H -1.785852 0.660571 -0.274929 0
M  V30 46 H -3.864360 2.147957 0.132676 0
M  V30 47 H -4.816109 0.635543 -0.006159 0
M  V30 48 H -3.545444 0.771113 1.217492 0
M  V30 49 H 4.287964 -4.284126 0.870477 0
M  V30 50 H 3.808386 -4.237937 -0.849469 0
M  V30 51 H 2.667219 -4.938461 0.310209 0
M  V30 END ATOM
M  V30 BEGIN BOND
M  V30 1 1 1 2
M  V30 2 1 2 3
M  V30 3 1 3 4
M  V30 4 1 4 5
M  V30 5 1 5 6
M  V30 6 2 6 7
M  V30 7 1 7 8
M  V30 8 2 8 9
M  V30 9 1 8 10
M  V30 10 1 10 11
M  V30 11 2 11 12
M  V30 12 1 12 13
M  V30 13 2 13 14
M  V30 14 1 14 15
M  V30 15 1 15 16
M  V30 16 2 16 17
M  V30 17 1 17 18
M  V30 18 2 18 19
M  V30 19 1 19 20
M  V30 20 1 20 21
M  V30 21 1 21 22
M  V30 22 1 21 23
M  V30 23 1 23 24
M  V30 24 1 23 25
M  V30 25 1 23 26
M  V30 26 2 15 27
M  V30 27 1 7 28
M  V30 28 1 28 29
M  V30 29 1 29 30
M  V30 30 2 28 31
M  V30 31 1 31 5
M  V30 32 1 27 11
M  V30 33 1 20 16
M  V30 34 1 1 32
M  V30 35 1 1 33
M  V30 36 1 1 34
M  V30 37 1 3 35
M  V30 38 1 3 36
M  V30 39 1 4 37
M  V30 40 1 4 38
M  V30 41 1 6 39
M  V30 42 1 10 40
M  V30 43 1 12 41
M  V30 44 1 13 42
M  V30 45 1 14 43
M  V30 46 1 19 44
M  V30 47 1 21 45 CFG=1
M  V30 48 1 22 46
M  V30 49 1 22 47
M  V30 50 1 22 48
M  V30 51 1 30 49
M  V30 52 1 30 50
M  V30 53 1 30 51
M  V30 END BOND
M  V30 END CTAB
M  END
>  <Dataset>  (39) 
ChEMBL_Kinases

>  <Ligand_Instance>  (39) 
nan

>  <PDB_ID>  (39) 
nan

>  <Standardized_SMILES>  (39) 
COCCn1cc(C(=O)Nc2cccc(-c3nncn3[C@@H](C)C(F)(F)F)n2)c(OC)n1

>  <Name>  (39) 
nan

>  <Pocket>  (39) 
nan

>  <ATP_Site>  (39) 
nan

>  <Peripheral>  (39) 
nan

>  <Num_H_Atoms_ProtBoundConf>  (39) 
nan

>  <Num_Resolved_Atoms>  (39) 
nan

>  <Num_Not_Resolved_Atoms>  (39) 
nan

$$$$
CHEMBL4850066
     RDKit          3D

  0  0  0  0  0  0  0  0  0  0999 V3000
M  V30 BEGIN CTAB
M  V30 COUNTS 55 58 0 0 0
M  V30 BEGIN ATOM
M  V30 1 C 6.050664 -3.017161 1.914424 0
M  V30 2 N 6.089153 -1.600017 1.560781 0
M  V30 3 C 4.947279 -0.836562 1.235829 0
M  V30 4 O 3.802193 -1.402799 1.246519 0
M  V30 5 C 5.061985 0.570165 0.893598 0
M  V30 6 C 3.933158 1.297953 0.578852 0
M  V30 7 C 3.953089 2.638414 0.242263 0
M  V30 8 O 2.814132 3.363709 -0.073041 0
M  V30 9 C 1.543513 2.793117 -0.076038 0
M  V30 10 C 1.142981 2.245959 -1.282220 0
M  V30 11 C -0.100620 1.653872 -1.395472 0
M  V30 12 C -0.918730 1.627024 -0.279948 0
M  V30 13 N -2.243516 1.052699 -0.215282 0
M  V30 14 C -2.197397 -0.347505 0.171004 0
M  V30 15 O -0.966335 -0.161818 0.206116 0
M  V30 16 C -3.434551 -1.086857 0.286903 0
M  V30 17 N -4.614197 -0.552498 0.069391 0
M  V30 18 C -5.642629 -1.014962 0.131709 0
M  V30 19 S -7.320130 -0.466050 -0.112002 0
M  V30 20 C -7.852022 -0.682561 -1.767422 0
M  V30 21 O -7.282314 1.013183 0.233188 0
M  V30 22 O -8.209932 -1.112824 0.908619 0
M  V30 23 S -5.193390 -2.769043 0.634900 0
M  V30 24 C -3.375322 -2.400984 0.646649 0
M  V30 25 C -2.502100 -3.434098 0.981959 0
M  V30 26 C -3.040293 -4.685168 1.312307 0
M  V30 27 C -2.238389 -5.769738 1.656523 0
M  V30 28 C -0.884690 -5.662607 1.687803 0
M  V30 29 F -0.120622 -6.728629 2.025070 0
M  V30 30 C -0.288375 -4.482106 1.380034 0
M  V30 31 C -1.135605 -3.452818 1.049419 0
M  V30 32 C -0.505919 2.177771 0.919934 0
M  V30 33 C 0.731780 2.775278 1.059660 0
M  V30 34 C 5.161376 3.302761 0.214255 0
M  V30 35 C 6.303556 2.561730 0.533904 0
M  V30 36 N 6.230588 1.246522 0.857962 0
M  V30 37 H 6.715747 -3.595702 1.232011 0
M  V30 38 H 5.031278 -3.442166 1.776453 0
M  V30 39 H 6.425857 -3.151345 2.953100 0
M  V30 40 H 7.043713 -1.203874 1.571043 0
M  V30 41 H 2.982701 0.785866 0.598216 0
M  V30 42 H 1.758317 2.252555 -2.165836 0
M  V30 43 H -0.512838 1.198051 -2.284718 0
M  V30 44 H -3.163690 1.599564 -0.429072 0
M  V30 45 H -8.562390 0.137810 -2.061046 0
M  V30 46 H -7.029377 -0.712797 -2.485139 0
M  V30 47 H -8.468537 -1.607601 -1.807679 0
M  V30 48 H -4.100051 -4.964077 1.343313 0
M  V30 49 H -2.655854 -6.725542 1.908796 0
M  V30 50 H 0.778877 -4.387469 1.401779 0
M  V30 51 H -0.635347 -2.546841 0.812714 0
M  V30 52 H -1.094198 2.194029 1.838852 0
M  V30 53 H 1.122753 3.225288 1.961100 0
M  V30 54 H 5.315420 4.341451 -0.030509 0
M  V30 55 H 7.294331 3.008510 0.535721 0
M  V30 END ATOM
M  V30 BEGIN BOND
M  V30 1 1 1 2
M  V30 2 1 2 3
M  V30 3 2 3 4
M  V30 4 1 3 5
M  V30 5 2 5 6
M  V30 6 1 6 7
M  V30 7 1 7 8
M  V30 8 1 8 9
M  V30 9 2 9 10
M  V30 10 1 10 11
M  V30 11 2 11 12
M  V30 12 1 12 13
M  V30 13 1 13 14
M  V30 14 2 14 15
M  V30 15 1 14 16
M  V30 16 1 16 17
M  V30 17 2 17 18
M  V30 18 1 18 19
M  V30 19 1 19 20
M  V30 20 2 19 21
M  V30 21 2 19 22
M  V30 22 1 18 23
M  V30 23 1 23 24
M  V30 24 1 24 25
M  V30 25 2 25 26
M  V30 26 1 26 27
M  V30 27 2 27 28
M  V30 28 1 28 29
M  V30 29 1 28 30
M  V30 30 2 30 31
M  V30 31 1 12 32
M  V30 32 2 32 33
M  V30 33 2 7 34
M  V30 34 1 34 35
M  V30 35 2 35 36
M  V30 36 1 36 5
M  V30 37 1 33 9
M  V30 38 2 24 16
M  V30 39 1 31 25
M  V30 40 1 1 37
M  V30 41 1 1 38
M  V30 42 1 1 39
M  V30 43 1 2 40
M  V30 44 1 6 41
M  V30 45 1 10 42
M  V30 46 1 11 43
M  V30 47 1 13 44
M  V30 48 1 20 45
M  V30 49 1 20 46
M  V30 50 1 20 47
M  V30 51 1 26 48
M  V30 52 1 27 49
M  V30 53 1 30 50
M  V30 54 1 31 51
M  V30 55 1 32 52
M  V30 56 1 33 53
M  V30 57 1 34 54
M  V30 58 1 35 55
M  V30 END BOND
M  V30 END CTAB
M  END
>  <Dataset>  (40) 
ChEMBL_Kinases

>  <Ligand_Instance>  (40) 
nan

>  <PDB_ID>  (40) 
nan

>  <Standardized_SMILES>  (40) 
CNC(=O)c1cc(Oc2ccc(NC(=O)c3nc(S(C)(=O)=O)sc3-c3ccc(F)cc3)cc2)ccn1

>  <Name>  (40) 
nan

>  <Pocket>  (40) 
nan

>  <ATP_Site>  (40) 
nan

>  <Peripheral>  (40) 
nan

>  <Num_H_Atoms_ProtBoundConf>  (40) 
nan

>  <Num_Resolved_Atoms>  (40) 
nan

>  <Num_Not_Resolved_Atoms>  (40) 
nan

$$$$
CHEMBL4850068
     RDKit          3D

  0  0  0  0  0  0  0  0  0  0999 V3000
M  V30 BEGIN CTAB
M  V30 COUNTS 45 48 0 0 0
M  V30 BEGIN ATOM
M  V30 1 C 1.332889 -3.567247 2.909928 0
M  V30 2 C 0.557957 -3.615160 1.587559 0 CFG=2
M  V30 3 N 0.819592 -2.424075 0.815033 0
M  V30 4 C 1.287679 -2.383278 -0.506300 0
M  V30 5 O 1.424766 -3.604743 -0.859817 0
M  V30 6 C 1.619980 -1.371382 -1.471453 0
M  V30 7 C 2.047104 -1.780676 -2.716481 0
M  V30 8 N 2.308164 -0.701124 -3.471445 0
M  V30 9 C 2.067931 0.390881 -2.767179 0
M  V30 10 C 2.157202 1.741075 -3.018985 0
M  V30 11 C 1.831488 2.681102 -2.064203 0
M  V30 12 C 1.418162 2.182516 -0.863146 0
M  V30 13 C 1.061977 3.140363 0.182469 0
M  V30 14 C 1.654175 4.385090 0.331956 0
M  V30 15 N 1.090469 4.997542 1.385970 0
M  V30 16 N 0.164191 4.220002 1.930475 0
M  V30 17 C -0.711573 4.434193 3.077795 0
M  V30 18 C 0.139073 3.088307 1.206027 0
M  V30 19 C 1.329650 0.839935 -0.613764 0
M  V30 20 N 1.655344 -0.039371 -1.568036 0
M  V30 21 C -0.894750 -3.635983 1.978445 0
M  V30 22 C -1.621511 -4.816155 1.841414 0
M  V30 23 C -2.951265 -4.981743 2.157740 0
M  V30 24 C -3.580956 -3.848672 2.652120 0
M  V30 25 C -2.909112 -2.631485 2.814662 0
M  V30 26 C -1.563704 -2.538472 2.473398 0
M  V30 27 H 1.461441 -4.601804 3.299511 0
M  V30 28 H 2.266329 -3.000936 2.819918 0
M  V30 29 H 0.715775 -3.025926 3.685902 0
M  V30 30 H 0.774650 -4.525346 1.019730 0
M  V30 31 H 0.662902 -1.485950 1.227143 0
M  V30 32 H 2.233774 -2.719508 -3.264004 0
M  V30 33 H 2.494670 2.075143 -4.000432 0
M  V30 34 H 1.921833 3.734425 -2.320901 0
M  V30 35 H 2.437197 4.873375 -0.240722 0
M  V30 36 H -1.766849 4.214020 2.831571 0
M  V30 37 H -0.403191 3.670860 3.824609 0
M  V30 38 H -0.556592 5.430376 3.517683 0
M  V30 39 H -0.504328 2.224702 1.368894 0
M  V30 40 H 1.001741 0.534257 0.341249 0
M  V30 41 H -1.104177 -5.687130 1.452381 0
M  V30 42 H -3.438586 -5.925294 2.022537 0
M  V30 43 H -4.632555 -3.931537 2.916227 0
M  V30 44 H -3.443606 -1.776849 3.204230 0
M  V30 45 H -1.026517 -1.611320 2.590437 0
M  V30 END ATOM
M  V30 BEGIN BOND
M  V30 1 1 1 2
M  V30 2 1 2 3
M  V30 3 1 3 4
M  V30 4 2 4 5
M  V30 5 1 4 6
M  V30 6 2 6 7
M  V30 7 1 7 8
M  V30 8 2 8 9
M  V30 9 1 9 10
M  V30 10 2 10 11
M  V30 11 1 11 12
M  V30 12 1 12 13
M  V30 13 1 13 14
M  V30 14 2 14 15
M  V30 15 1 15 16
M  V30 16 1 16 17
M  V30 17 1 16 18
M  V30 18 2 12 19
M  V30 19 1 19 20
M  V30 20 1 2 21
M  V30 21 2 21 22
M  V30 22 1 22 23
M  V30 23 2 23 24
M  V30 24 1 24 25
M  V30 25 2 25 26
M  V30 26 1 20 6
M  V30 27 1 26 21
M  V30 28 1 20 9
M  V30 29 2 18 13
M  V30 30 1 1 27
M  V30 31 1 1 28
M  V30 32 1 1 29
M  V30 33 1 2 30 CFG=3
M  V30 34 1 3 31
M  V30 35 1 7 32
M  V30 36 1 10 33
M  V30 37 1 11 34
M  V30 38 1 14 35
M  V30 39 1 17 36
M  V30 40 1 17 37
M  V30 41 1 17 38
M  V30 42 1 18 39
M  V30 43 1 19 40
M  V30 44 1 22 41
M  V30 45 1 23 42
M  V30 46 1 24 43
M  V30 47 1 25 44
M  V30 48 1 26 45
M  V30 END BOND
M  V30 END CTAB
M  END
>  <Dataset>  (41) 
ChEMBL_Kinases

>  <Ligand_Instance>  (41) 
nan

>  <PDB_ID>  (41) 
nan

>  <Standardized_SMILES>  (41) 
C[C@H](NC(=O)c1cnc2ccc(-c3cnn(C)c3)cn12)c1ccccc1

>  <Name>  (41) 
nan

>  <Pocket>  (41) 
nan

>  <ATP_Site>  (41) 
nan

>  <Peripheral>  (41) 
nan

>  <Num_H_Atoms_ProtBoundConf>  (41) 
nan

>  <Num_Resolved_Atoms>  (41) 
nan

>  <Num_Not_Resolved_Atoms>  (41) 
nan

$$$$
CHEMBL4850073
     RDKit          3D

  0  0  0  0  0  0  0  0  0  0999 V3000
M  V30 BEGIN CTAB
M  V30 COUNTS 47 49 0 0 0
M  V30 BEGIN ATOM
M  V30 1 C -4.244060 -1.708469 3.352931 0
M  V30 2 N -3.082852 -2.584243 3.270911 0
M  V30 3 C -1.737988 -2.193744 3.385932 0
M  V30 4 N -1.496018 -0.874123 3.591999 0
M  V30 5 C -0.217663 -0.434259 3.713652 0
M  V30 6 N 0.319175 0.864216 3.920535 0
M  V30 7 C 0.737085 1.665617 2.826924 0
M  V30 8 C 1.315990 2.890668 3.071987 0
M  V30 9 N 1.716703 3.633814 2.026364 0
M  V30 10 C 1.591197 3.265473 0.766318 0
M  V30 11 C 2.044303 4.099450 -0.326965 0
M  V30 12 N 2.413782 4.776793 -1.191915 0
M  V30 13 C 1.017161 2.043824 0.430299 0
M  V30 14 N 0.846077 1.582266 -0.898705 0
M  V30 15 C 0.296207 0.397578 -1.505995 0 CFG=1
M  V30 16 C 0.361740 0.462845 -3.020225 0
M  V30 17 C 1.748172 -0.011611 -3.441448 0
M  V30 18 C 1.938809 -1.473041 -3.150666 0
M  V30 19 N 1.116800 -1.865768 -2.049854 0
M  V30 20 C 0.982943 -0.834002 -1.021667 0
M  V30 21 C 0.606758 1.285035 1.525698 0
M  V30 22 N 0.799094 -1.337972 3.624623 0
M  V30 23 C 0.630550 -2.643063 3.423557 0
M  V30 24 C -0.673313 -3.070529 3.302860 0
M  V30 25 C -0.957085 -4.505948 3.078020 0
M  V30 26 F -1.636635 -4.692195 1.889536 0
M  V30 27 F 0.232966 -5.207372 2.964413 0
M  V30 28 F -1.719774 -4.972980 4.135671 0
M  V30 29 H -4.246652 -1.215580 4.360706 0
M  V30 30 H -5.170122 -2.294917 3.253891 0
M  V30 31 H -4.185728 -0.951702 2.539005 0
M  V30 32 H -3.248191 -3.611757 3.108835 0
M  V30 33 H 0.397181 1.214939 4.899829 0
M  V30 34 H 1.469673 3.293517 4.057039 0
M  V30 35 H 1.217009 2.289523 -1.605291 0
M  V30 36 H -0.776284 0.343479 -1.247941 0
M  V30 37 H -0.371094 -0.203855 -3.502652 0
M  V30 38 H 0.247309 1.531065 -3.317647 0
M  V30 39 H 1.829860 0.128962 -4.538708 0
M  V30 40 H 2.537938 0.551274 -2.906572 0
M  V30 41 H 1.709478 -2.115352 -4.027430 0
M  V30 42 H 2.993791 -1.640149 -2.882111 0
M  V30 43 H 1.329495 -2.783151 -1.624584 0
M  V30 44 H 2.012885 -0.670229 -0.631736 0
M  V30 45 H 0.308463 -1.327721 -0.265542 0
M  V30 46 H 0.141600 0.318351 1.405255 0
M  V30 47 H 1.443355 -3.359230 3.352459 0
M  V30 END ATOM
M  V30 BEGIN BOND
M  V30 1 1 1 2
M  V30 2 1 2 3
M  V30 3 2 3 4
M  V30 4 1 4 5
M  V30 5 1 5 6
M  V30 6 1 6 7
M  V30 7 2 7 8
M  V30 8 1 8 9
M  V30 9 2 9 10
M  V30 10 1 10 11
M  V30 11 3 11 12
M  V30 12 1 10 13
M  V30 13 1 13 14
M  V30 14 1 14 15
M  V30 15 1 15 16
M  V30 16 1 16 17
M  V30 17 1 17 18
M  V30 18 1 18 19
M  V30 19 1 19 20
M  V30 20 2 13 21
M  V30 21 2 5 22
M  V30 22 1 22 23
M  V30 23 2 23 24
M  V30 24 1 24 25
M  V30 25 1 25 26
M  V30 26 1 25 27
M  V30 27 1 25 28
M  V30 28 1 24 3
M  V30 29 1 21 7
M  V30 30 1 20 15
M  V30 31 1 1 29
M  V30 32 1 1 30
M  V30 33 1 1 31
M  V30 34 1 2 32
M  V30 35 1 6 33
M  V30 36 1 8 34
M  V30 37 1 14 35
M  V30 38 1 15 36 CFG=3
M  V30 39 1 16 37
M  V30 40 1 16 38
M  V30 41 1 17 39
M  V30 42 1 17 40
M  V30 43 1 18 41
M  V30 44 1 18 42
M  V30 45 1 19 43
M  V30 46 1 20 44
M  V30 47 1 20 45
M  V30 48 1 21 46
M  V30 49 1 23 47
M  V30 END BOND
M  V30 END CTAB
M  END
>  <Dataset>  (42) 
ChEMBL_Kinases

>  <Ligand_Instance>  (42) 
nan

>  <PDB_ID>  (42) 
nan

>  <Standardized_SMILES>  (42) 
CNc1nc(Nc2cnc(C#N)c(N[C@H]3CCCNC3)c2)ncc1C(F)(F)F

>  <Name>  (42) 
nan

>  <Pocket>  (42) 
nan

>  <ATP_Site>  (42) 
nan

>  <Peripheral>  (42) 
nan

>  <Num_H_Atoms_ProtBoundConf>  (42) 
nan

>  <Num_Resolved_Atoms>  (42) 
nan

>  <Num_Not_Resolved_Atoms>  (42) 
nan

$$$$
CHEMBL485008
     RDKit          3D

  0  0  0  0  0  0  0  0  0  0999 V3000
M  V30 BEGIN CTAB
M  V30 COUNTS 33 35 0 0 0
M  V30 BEGIN ATOM
M  V30 1 Br 0.420318 -3.269133 0.750945 0
M  V30 2 C 1.466316 -1.693742 0.604362 0
M  V30 3 C 2.836902 -1.805345 0.601499 0
M  V30 4 C 3.535290 -0.622985 0.492273 0
M  V30 5 C 4.911490 -0.724634 0.488493 0
M  V30 6 C 5.701280 0.401152 0.383350 0
M  V30 7 N 5.070971 1.577222 0.286857 0
M  V30 8 C 3.732032 1.697461 0.288676 0
M  V30 9 C 2.911050 0.597100 0.391895 0
M  V30 10 C 1.511050 0.634563 0.401476 0
M  V30 11 C 0.734835 -0.532659 0.510096 0
M  V30 12 O -0.553693 -0.194282 0.492483 0
M  V30 13 C -1.772649 -0.775595 0.554216 0
M  V30 14 C -2.643691 -0.327091 1.716874 0
M  V30 15 C -3.798288 -1.320979 1.754114 0
M  V30 16 N -4.563097 -1.311027 0.534757 0
M  V30 17 C -3.767303 -1.483943 -0.646941 0
M  V30 18 C -2.649891 -0.484912 -0.681957 0
M  V30 19 H 3.272813 -2.771430 0.681515 0
M  V30 20 H 5.397046 -1.704552 0.569256 0
M  V30 21 H 6.780334 0.270612 0.384803 0
M  V30 22 H 3.250278 2.662130 0.209207 0
M  V30 23 H 1.174770 1.668020 0.314693 0
M  V30 24 H -1.710225 -1.874548 0.649196 0
M  V30 25 H -2.148786 -0.371117 2.687723 0
M  V30 26 H -3.090248 0.649031 1.465761 0
M  V30 27 H -3.386502 -2.354417 1.862667 0
M  V30 28 H -4.502125 -1.123691 2.579888 0
M  V30 29 H -5.265784 -0.572404 0.475566 0
M  V30 30 H -4.425496 -1.289910 -1.519486 0
M  V30 31 H -3.365336 -2.501456 -0.738304 0
M  V30 32 H -3.065236 0.530143 -0.510285 0
M  V30 33 H -2.057446 -0.559653 -1.600559 0
M  V30 END ATOM
M  V30 BEGIN BOND
M  V30 1 1 1 2
M  V30 2 2 2 3
M  V30 3 1 3 4
M  V30 4 2 4 5
M  V30 5 1 5 6
M  V30 6 2 6 7
M  V30 7 1 7 8
M  V30 8 2 8 9
M  V30 9 1 9 10
M  V30 10 2 10 11
M  V30 11 1 11 12
M  V30 12 1 12 13
M  V30 13 1 13 14
M  V30 14 1 14 15
M  V30 15 1 15 16
M  V30 16 1 16 17
M  V30 17 1 17 18
M  V30 18 1 11 2
M  V30 19 1 18 13
M  V30 20 1 9 4
M  V30 21 1 3 19
M  V30 22 1 5 20
M  V30 23 1 6 21
M  V30 24 1 8 22
M  V30 25 1 10 23
M  V30 26 1 13 24
M  V30 27 1 14 25
M  V30 28 1 14 26
M  V30 29 1 15 27
M  V30 30 1 15 28
M  V30 31 1 16 29
M  V30 32 1 17 30
M  V30 33 1 17 31
M  V30 34 1 18 32
M  V30 35 1 18 33
M  V30 END BOND
M  V30 END CTAB
M  END
>  <Dataset>  (43) 
ChEMBL_Kinases

>  <Ligand_Instance>  (43) 
nan

>  <PDB_ID>  (43) 
nan

>  <Standardized_SMILES>  (43) 
Brc1cc2ccncc2cc1OC1CCNCC1

>  <Name>  (43) 
nan

>  <Pocket>  (43) 
nan

>  <ATP_Site>  (43) 
nan

>  <Peripheral>  (43) 
nan

>  <Num_H_Atoms_ProtBoundConf>  (43) 
nan

>  <Num_Resolved_Atoms>  (43) 
nan

>  <Num_Not_Resolved_Atoms>  (43) 
nan

$$$$
CHEMBL4850133
     RDKit          3D

  0  0  0  0  0  0  0  0  0  0999 V3000
M  V30 BEGIN CTAB
M  V30 COUNTS 68 73 0 0 0
M  V30 BEGIN ATOM
M  V30 1 O 1.370429 -4.427876 4.230850 0
M  V30 2 C 1.469974 -3.478366 3.380985 0
M  V30 3 C 2.090929 -4.023643 2.156456 0
M  V30 4 N 2.272899 -3.067613 1.102200 0
M  V30 5 C 3.485137 -2.253478 0.931266 0
M  V30 6 C 3.177663 -1.451650 -0.277038 0
M  V30 7 C 3.936905 -0.502429 -0.929886 0
M  V30 8 C 3.412046 0.101975 -2.043384 0
M  V30 9 C 2.169264 -0.176660 -2.557601 0
M  V30 10 C 1.642240 0.478059 -3.735284 0
M  V30 11 N 0.370036 0.911898 -3.688060 0
M  V30 12 C -0.244979 1.535219 -4.707881 0
M  V30 13 N -1.591893 1.970672 -4.597030 0
M  V30 14 C -2.350160 1.762811 -3.397089 0
M  V30 15 C -1.722962 2.410981 -2.208015 0
M  V30 16 C -1.764981 1.476573 -1.034224 0
M  V30 17 O -3.047728 0.975264 -0.876282 0
M  V30 18 C -3.367153 0.059801 -1.879006 0
M  V30 19 C -2.524315 0.288308 -3.119652 0
M  V30 20 N 0.431333 1.749231 -5.853880 0
M  V30 21 C 1.702590 1.318488 -5.908037 0
M  V30 22 C 2.372568 0.675514 -4.887979 0
M  V30 23 Cl 4.012910 0.125679 -4.973577 0
M  V30 24 C 1.407092 -1.126772 -1.905736 0
M  V30 25 C 1.926287 -1.743933 -0.780337 0
M  V30 26 C 1.328424 -2.763006 0.070520 0
M  V30 27 O 0.196391 -3.301674 -0.044356 0
M  V30 28 N 0.941422 -2.303408 3.975413 0
M  V30 29 C 0.492217 -2.621738 5.320921 0
M  V30 30 C -0.953346 -3.011465 5.219124 0
M  V30 31 C -1.814974 -1.865745 4.904955 0
M  V30 32 C -2.931362 -1.836293 5.716616 0
M  V30 33 C -3.899945 -0.868370 5.631122 0
M  V30 34 C -3.735124 0.125172 4.675046 0
M  V30 35 C -2.603883 0.074121 3.870343 0
M  V30 36 C -1.604472 -0.904007 3.941322 0
M  V30 37 C -0.556897 -0.656490 2.948596 0
M  V30 38 C 0.835993 -0.969933 3.387928 0
M  V30 39 H 3.077243 -4.519777 2.397856 0
M  V30 40 H 1.436733 -4.863606 1.797024 0
M  V30 41 H 3.697250 -1.650785 1.815115 0
M  V30 42 H 4.334697 -2.902811 0.669635 0
M  V30 43 H 4.928737 -0.238634 -0.571097 0
M  V30 44 H 4.043086 0.842560 -2.525840 0
M  V30 45 H -2.054096 2.453937 -5.396924 0
M  V30 46 H -3.400278 2.169225 -3.499508 0
M  V30 47 H -0.701788 2.799096 -2.405689 0
M  V30 48 H -2.308811 3.313564 -1.906572 0
M  V30 49 H -1.069071 0.654528 -1.219970 0
M  V30 50 H -1.460009 2.009210 -0.113548 0
M  V30 51 H -4.449162 0.097654 -2.071541 0
M  V30 52 H -3.123008 -0.952349 -1.503746 0
M  V30 53 H -3.081921 -0.181860 -3.957335 0
M  V30 54 H -1.569784 -0.251371 -2.977210 0
M  V30 55 H 2.295001 1.470629 -6.823085 0
M  V30 56 H 0.418832 -1.390984 -2.261770 0
M  V30 57 H 1.095470 -3.399078 5.819603 0
M  V30 58 H 0.563206 -1.722106 5.980971 0
M  V30 59 H -1.024447 -3.810448 4.444788 0
M  V30 60 H -1.289728 -3.488850 6.165081 0
M  V30 61 H -3.074594 -2.603612 6.466876 0
M  V30 62 H -4.785434 -0.770068 6.211868 0
M  V30 63 H -4.436819 0.940340 4.517468 0
M  V30 64 H -2.487225 0.865499 3.119747 0
M  V30 65 H -0.561078 0.451266 2.730286 0
M  V30 66 H -0.811710 -1.113312 1.962075 0
M  V30 67 H 1.163560 -0.192072 4.105607 0
M  V30 68 H 1.487346 -0.881867 2.505271 0
M  V30 END ATOM
M  V30 BEGIN BOND
M  V30 1 2 1 2
M  V30 2 1 2 3
M  V30 3 1 3 4
M  V30 4 1 4 5
M  V30 5 1 5 6
M  V30 6 2 6 7
M  V30 7 1 7 8
M  V30 8 2 8 9
M  V30 9 1 9 10
M  V30 10 2 10 11
M  V30 11 1 11 12
M  V30 12 1 12 13
M  V30 13 1 13 14
M  V30 14 1 14 15
M  V30 15 1 15 16
M  V30 16 1 16 17
M  V30 17 1 17 18
M  V30 18 1 18 19
M  V30 19 2 12 20
M  V30 20 1 20 21
M  V30 21 2 21 22
M  V30 22 1 22 23
M  V30 23 1 9 24
M  V30 24 2 24 25
M  V30 25 1 25 26
M  V30 26 2 26 27
M  V30 27 1 2 28
M  V30 28 1 28 29
M  V30 29 1 29 30
M  V30 30 1 30 31
M  V30 31 2 31 32
M  V30 32 1 32 33
M  V30 33 2 33 34
M  V30 34 1 34 35
M  V30 35 2 35 36
M  V30 36 1 36 37
M  V30 37 1 37 38
M  V30 38 1 26 4
M  V30 39 1 38 28
M  V30 40 1 25 6
M  V30 41 1 36 31
M  V30 42 1 22 10
M  V30 43 1 19 14
M  V30 44 1 3 39
M  V30 45 1 3 40
M  V30 46 1 5 41
M  V30 47 1 5 42
M  V30 48 1 7 43
M  V30 49 1 8 44
M  V30 50 1 13 45
M  V30 51 1 14 46
M  V30 52 1 15 47
M  V30 53 1 15 48
M  V30 54 1 16 49
M  V30 55 1 16 50
M  V30 56 1 18 51
M  V30 57 1 18 52
M  V30 58 1 19 53
M  V30 59 1 19 54
M  V30 60 1 21 55
M  V30 61 1 24 56
M  V30 62 1 29 57
M  V30 63 1 29 58
M  V30 64 1 30 59
M  V30 65 1 30 60
M  V30 66 1 32 61
M  V30 67 1 33 62
M  V30 68 1 34 63
M  V30 69 1 35 64
M  V30 70 1 37 65
M  V30 71 1 37 66
M  V30 72 1 38 67
M  V30 73 1 38 68
M  V30 END BOND
M  V30 END CTAB
M  END
>  <Dataset>  (44) 
ChEMBL_Kinases

>  <Ligand_Instance>  (44) 
nan

>  <PDB_ID>  (44) 
nan

>  <Standardized_SMILES>  (44) 
O=C(CN1Cc2ccc(-c3nc(NC4CCOCC4)ncc3Cl)cc2C1=O)N1CCc2ccccc2CC1

>  <Name>  (44) 
nan

>  <Pocket>  (44) 
nan

>  <ATP_Site>  (44) 
nan

>  <Peripheral>  (44) 
nan

>  <Num_H_Atoms_ProtBoundConf>  (44) 
nan

>  <Num_Resolved_Atoms>  (44) 
nan

>  <Num_Not_Resolved_Atoms>  (44) 
nan

$$$$
CHEMBL4086603
     RDKit          3D

  0  0  0  0  0  0  0  0  0  0999 V3000
M  V30 BEGIN CTAB
M  V30 COUNTS 56 59 0 0 0
M  V30 BEGIN ATOM
M  V30 1 C -3.572472 -4.933271 -4.611909 0
M  V30 2 C -4.540192 -4.540273 -3.542552 0
M  V30 3 S -4.324279 -2.881667 -2.955599 0
M  V30 4 O -4.515590 -1.883116 -4.063813 0
M  V30 5 O -5.350338 -2.655017 -1.876366 0
M  V30 6 C -2.709395 -2.745917 -2.300058 0
M  V30 7 C -2.501815 -3.023294 -0.967385 0
M  V30 8 C -1.227842 -2.913650 -0.458554 0
M  V30 9 C -0.174599 -2.526320 -1.294214 0
M  V30 10 O 1.053123 -2.448343 -0.686909 0
M  V30 11 C 1.322737 -2.718090 0.662647 0
M  V30 12 C -0.439808 -2.255770 -2.642096 0
M  V30 13 N 0.756703 -1.873558 -3.344111 0
M  V30 14 C 1.630142 -0.755369 -3.080047 0
M  V30 15 N 2.762192 -0.242571 -3.606590 0
M  V30 16 C 3.078052 0.858650 -2.864325 0
M  V30 17 C 2.121067 0.996160 -1.889312 0
M  V30 18 C 2.029481 2.022071 -0.855960 0
M  V30 19 C 2.985038 3.010815 -0.784269 0
M  V30 20 C 2.861985 3.958075 0.205267 0
M  V30 21 C 1.799598 3.929639 1.120845 0
M  V30 22 C 1.775576 5.012866 2.145781 0
M  V30 23 C 2.212893 4.485813 3.439867 0
M  V30 24 N 2.541480 4.058953 4.463420 0
M  V30 25 C 0.838132 2.962796 1.074652 0
M  V30 26 C -0.257149 2.916754 2.004533 0
M  V30 27 C -1.220082 1.930440 1.934818 0
M  V30 28 C -2.288761 1.847396 2.806289 0
M  V30 29 C -2.434842 2.787874 3.818399 0
M  V30 30 C -1.464382 3.762888 3.870861 0
M  V30 31 N -0.452443 3.780209 2.987988 0
M  V30 32 C 1.002414 2.029849 0.061825 0
M  V30 33 O 1.285895 0.003455 -2.071050 0
M  V30 34 C -1.712666 -2.362771 -3.160868 0
M  V30 35 H -3.300521 -5.996907 -4.470992 0
M  V30 36 H -2.636945 -4.356684 -4.518645 0
M  V30 37 H -3.989047 -4.845727 -5.635714 0
M  V30 38 H -5.585542 -4.600939 -3.919022 0
M  V30 39 H -4.417493 -5.207067 -2.682789 0
M  V30 40 H -3.309645 -3.317965 -0.338134 0
M  V30 41 H -1.104153 -3.142529 0.604976 0
M  V30 42 H 0.713970 -1.996571 1.258005 0
M  V30 43 H 2.384524 -2.398109 0.857698 0
M  V30 44 H 1.136486 -3.771455 0.917787 0
M  V30 45 H 1.140409 -2.405557 -4.175402 0
M  V30 46 H 3.936078 1.487856 -3.040472 0
M  V30 47 H 3.823756 3.086215 -1.458183 0
M  V30 48 H 3.602404 4.745147 0.280939 0
M  V30 49 H 0.840655 5.578584 2.184281 0
M  V30 50 H 2.551131 5.800934 1.899008 0
M  V30 51 H -1.236851 1.149696 1.217030 0
M  V30 52 H -3.057693 1.084181 2.773525 0
M  V30 53 H -3.232625 2.808907 4.546660 0
M  V30 54 H -1.512255 4.534167 4.636797 0
M  V30 55 H 0.300006 1.219117 -0.069043 0
M  V30 56 H -1.797818 -2.131729 -4.202914 0
M  V30 END ATOM
M  V30 BEGIN BOND
M  V30 1 1 1 2
M  V30 2 1 2 3
M  V30 3 2 3 4
M  V30 4 2 3 5
M  V30 5 1 3 6
M  V30 6 2 6 7
M  V30 7 1 7 8
M  V30 8 2 8 9
M  V30 9 1 9 10
M  V30 10 1 10 11
M  V30 11 1 9 12
M  V30 12 1 12 13
M  V30 13 1 13 14
M  V30 14 2 14 15
M  V30 15 1 15 16
M  V30 16 2 16 17
M  V30 17 1 17 18
M  V30 18 2 18 19
M  V30 19 1 19 20
M  V30 20 2 20 21
M  V30 21 1 21 22
M  V30 22 1 22 23
M  V30 23 3 23 24
M  V30 24 1 21 25
M  V30 25 1 25 26
M  V30 26 2 26 27
M  V30 27 1 27 28
M  V30 28 2 28 29
M  V30 29 1 29 30
M  V30 30 2 30 31
M  V30 31 2 25 32
M  V30 32 1 17 33
M  V30 33 2 12 34
M  V30 34 1 34 6
M  V30 35 1 33 14
M  V30 36 1 32 18
M  V30 37 1 31 26
M  V30 38 1 1 35
M  V30 39 1 1 36
M  V30 40 1 1 37
M  V30 41 1 2 38
M  V30 42 1 2 39
M  V30 43 1 7 40
M  V30 44 1 8 41
M  V30 45 1 11 42
M  V30 46 1 11 43
M  V30 47 1 11 44
M  V30 48 1 13 45
M  V30 49 1 16 46
M  V30 50 1 19 47
M  V30 51 1 20 48
M  V30 52 1 22 49
M  V30 53 1 22 50
M  V30 54 1 27 51
M  V30 55 1 28 52
M  V30 56 1 29 53
M  V30 57 1 30 54
M  V30 58 1 32 55
M  V30 59 1 34 56
M  V30 END BOND
M  V30 END CTAB
M  END
>  <Dataset>  (45) 
ChEMBL_Kinases

>  <Ligand_Instance>  (45) 
nan

>  <PDB_ID>  (45) 
nan

>  <Standardized_SMILES>  (45) 
CCS(=O)(=O)c1ccc(OC)c(Nc2ncc(-c3ccc(CC#N)c(-c4ccccn4)c3)o2)c1

>  <Name>  (45) 
nan

>  <Pocket>  (45) 
nan

>  <ATP_Site>  (45) 
nan

>  <Peripheral>  (45) 
nan

>  <Num_H_Atoms_ProtBoundConf>  (45) 
nan

>  <Num_Resolved_Atoms>  (45) 
nan

>  <Num_Not_Resolved_Atoms>  (45) 
nan

$$$$
CHEMBL4089021
     RDKit          3D

  0  0  0  0  0  0  0  0  0  0999 V3000
M  V30 BEGIN CTAB
M  V30 COUNTS 61 65 0 0 0
M  V30 BEGIN ATOM
M  V30 1 C 10.249785 1.051779 2.797325 0
M  V30 2 N 8.902380 0.651719 3.140875 0
M  V30 3 C 7.750741 0.900794 2.344131 0
M  V30 4 O 8.026424 1.526984 1.269671 0
M  V30 5 C 6.409244 0.479371 2.728604 0
M  V30 6 C 6.123655 -0.196611 3.895751 0
M  V30 7 C 4.820301 -0.544313 4.154085 0
M  V30 8 C 3.757459 -0.263781 3.320326 0
M  V30 9 C 4.099135 0.422845 2.150103 0
M  V30 10 C 5.395373 0.790862 1.852031 0
M  V30 11 C 3.130186 0.830438 1.108413 0
M  V30 12 O 3.615190 1.354967 0.081956 0
M  V30 13 C 1.663358 0.693244 1.133784 0
M  V30 14 C 1.108416 0.813445 -0.124563 0
M  V30 15 C -0.278984 0.697561 -0.206989 0
M  V30 16 C -1.031677 0.474362 0.927837 0
M  V30 17 N -2.417864 0.360081 0.832455 0
M  V30 18 C -3.265379 0.435303 -0.274319 0
M  V30 19 C -4.085541 -0.605948 -0.660039 0
M  V30 20 C -4.961327 -0.656477 -1.724514 0
M  V30 21 N -5.733672 -1.831040 -1.968490 0
M  V30 22 C -5.350205 -2.933388 -2.782777 0
M  V30 23 O -4.213733 -2.829390 -3.325141 0
M  V30 24 C -6.232849 -4.083288 -2.955056 0
M  V30 25 C -7.480497 -4.235214 -2.380128 0
M  V30 26 C -8.241584 -5.367585 -2.607261 0
M  V30 27 C -7.785347 -6.393190 -3.418384 0
M  V30 28 F -8.544546 -7.480038 -3.621323 0
M  V30 29 C -6.552437 -6.248078 -3.989293 0
M  V30 30 C -5.790260 -5.113050 -3.761256 0
M  V30 31 C -5.011833 0.506006 -2.502370 0
M  V30 32 F -5.862651 0.488659 -3.556170 0
M  V30 33 C -4.228907 1.597688 -2.194160 0
M  V30 34 C -3.379136 1.555435 -1.105215 0
M  V30 35 F -2.606228 2.652644 -0.812491 0
M  V30 36 C -0.460642 0.356661 2.178790 0
M  V30 37 C 0.913079 0.469631 2.273537 0
M  V30 38 C 1.368162 0.319254 3.685243 0
M  V30 39 C 2.437163 -0.735076 3.801854 0
M  V30 40 H 10.723484 1.473062 3.708626 0
M  V30 41 H 10.305326 1.814326 2.003791 0
M  V30 42 H 10.893531 0.173163 2.505955 0
M  V30 43 H 8.810056 0.147774 4.043318 0
M  V30 44 H 6.929166 -0.434682 4.574867 0
M  V30 45 H 4.577478 -1.074391 5.063562 0
M  V30 46 H 5.591440 1.326319 0.918487 0
M  V30 47 H 1.775235 0.987739 -0.957994 0
M  V30 48 H -0.687052 0.795534 -1.203490 0
M  V30 49 H -3.048395 0.189516 1.645710 0
M  V30 50 H -4.036273 -1.509529 -0.042714 0
M  V30 51 H -6.649415 -1.800004 -1.467503 0
M  V30 52 H -7.824561 -3.442093 -1.757512 0
M  V30 53 H -9.213020 -5.441801 -2.135129 0
M  V30 54 H -6.192781 -7.048662 -4.624394 0
M  V30 55 H -4.828206 -5.099359 -4.262189 0
M  V30 56 H -4.278503 2.492530 -2.806422 0
M  V30 57 H -1.058619 0.181323 3.066636 0
M  V30 58 H 1.741902 1.303060 3.998731 0
M  V30 59 H 0.527817 0.023330 4.321348 0
M  V30 60 H 2.126643 -1.643303 3.261275 0
M  V30 61 H 2.532178 -0.987735 4.873639 0
M  V30 END ATOM
M  V30 BEGIN BOND
M  V30 1 1 1 2
M  V30 2 1 2 3
M  V30 3 2 3 4
M  V30 4 1 3 5
M  V30 5 2 5 6
M  V30 6 1 6 7
M  V30 7 2 7 8
M  V30 8 1 8 9
M  V30 9 2 9 10
M  V30 10 1 9 11
M  V30 11 2 11 12
M  V30 12 1 11 13
M  V30 13 2 13 14
M  V30 14 1 14 15
M  V30 15 2 15 16
M  V30 16 1 16 17
M  V30 17 1 17 18
M  V30 18 2 18 19
M  V30 19 1 19 20
M  V30 20 1 20 21
M  V30 21 1 21 22
M  V30 22 2 22 23
M  V30 23 1 22 24
M  V30 24 2 24 25
M  V30 25 1 25 26
M  V30 26 2 26 27
M  V30 27 1 27 28
M  V30 28 1 27 29
M  V30 29 2 29 30
M  V30 30 2 20 31
M  V30 31 1 31 32
M  V30 32 1 31 33
M  V30 33 2 33 34
M  V30 34 1 34 35
M  V30 35 1 16 36
M  V30 36 2 36 37
M  V30 37 1 37 38
M  V30 38 1 38 39
M  V30 39 1 10 5
M  V30 40 1 37 13
M  V30 41 1 39 8
M  V30 42 1 34 18
M  V30 43 1 30 24
M  V30 44 1 1 40
M  V30 45 1 1 41
M  V30 46 1 1 42
M  V30 47 1 2 43
M  V30 48 1 6 44
M  V30 49 1 7 45
M  V30 50 1 10 46
M  V30 51 1 14 47
M  V30 52 1 15 48
M  V30 53 1 17 49
M  V30 54 1 19 50
M  V30 55 1 21 51
M  V30 56 1 25 52
M  V30 57 1 26 53
M  V30 58 1 29 54
M  V30 59 1 30 55
M  V30 60 1 33 56
M  V30 61 1 36 57
M  V30 62 1 38 58
M  V30 63 1 38 59
M  V30 64 1 39 60
M  V30 65 1 39 61
M  V30 END BOND
M  V30 END CTAB
M  END
>  <Dataset>  (46) 
ChEMBL_Kinases

>  <Ligand_Instance>  (46) 
nan

>  <PDB_ID>  (46) 
nan

>  <Standardized_SMILES>  (46) 
CNC(=O)c1ccc2c(c1)C(=O)c1ccc(Nc3cc(NC(=O)c4ccc(F)cc4)c(F)cc3F)cc1CC2

>  <Name>  (46) 
nan

>  <Pocket>  (46) 
nan

>  <ATP_Site>  (46) 
nan

>  <Peripheral>  (46) 
nan

>  <Num_H_Atoms_ProtBoundConf>  (46) 
nan

>  <Num_Resolved_Atoms>  (46) 
nan

>  <Num_Not_Resolved_Atoms>  (46) 
nan

$$$$
CHEMBL4088986
     RDKit          3D

  0  0  0  0  0  0  0  0  0  0999 V3000
M  V30 BEGIN CTAB
M  V30 COUNTS 47 50 0 0 0
M  V30 BEGIN ATOM
M  V30 1 N 2.216768 -5.520568 1.554293 0
M  V30 2 C 1.079543 -4.725118 1.241765 0
M  V30 3 O 0.059393 -5.434521 1.202101 0
M  V30 4 C 1.284568 -3.306589 1.033912 0
M  V30 5 C 2.523711 -2.708304 1.126684 0
M  V30 6 C 2.583886 -1.349654 0.906305 0
M  V30 7 C 1.520490 -0.527975 0.601105 0
M  V30 8 N 1.625815 0.873624 0.387212 0
M  V30 9 C 2.806526 1.669107 0.467881 0 CFG=1
M  V30 10 C 2.463647 3.112600 0.055008 0
M  V30 11 C 1.993999 3.911407 1.225421 0
M  V30 12 C 1.369070 3.099691 2.332726 0
M  V30 13 N 2.249713 2.082790 2.814841 0
M  V30 14 C 3.326531 1.820207 1.884229 0
M  V30 15 C 0.311456 -1.192432 0.524107 0
M  V30 16 C -0.969725 -0.697605 0.239805 0
M  V30 17 C -1.863373 -1.759994 0.279460 0
M  V30 18 C -3.305536 -1.688973 0.041560 0
M  V30 19 C -3.894612 -0.475166 -0.255854 0
M  V30 20 C -5.251894 -0.389232 -0.483005 0
M  V30 21 C -5.971525 -1.579005 -0.394672 0
M  V30 22 F -7.291612 -1.549772 -0.606419 0
M  V30 23 C -5.411910 -2.802021 -0.100317 0
M  V30 24 C -4.035155 -2.858030 0.124828 0
M  V30 25 N -1.129216 -2.847931 0.578368 0
M  V30 26 C 0.174003 -2.548121 0.731778 0
M  V30 27 H 2.945216 -6.124826 1.152154 0
M  V30 28 H 2.271817 -5.398377 2.591121 0
M  V30 29 H 3.399523 -3.295856 1.363152 0
M  V30 30 H 3.576884 -0.932612 0.985356 0
M  V30 31 H 0.704936 1.350954 0.142123 0
M  V30 32 H 3.604696 1.292845 -0.169962 0
M  V30 33 H 1.607954 3.043171 -0.657847 0
M  V30 34 H 3.327227 3.598391 -0.439666 0
M  V30 35 H 1.239872 4.690338 0.928384 0
M  V30 36 H 2.835033 4.486003 1.699083 0
M  V30 37 H 1.167459 3.853601 3.150459 0
M  V30 38 H 0.354866 2.713122 2.086654 0
M  V30 39 H 2.672472 2.395594 3.717101 0
M  V30 40 H 3.963662 2.754705 1.878407 0
M  V30 41 H 3.994922 1.034316 2.220475 0
M  V30 42 H -1.246788 0.326171 0.023336 0
M  V30 43 H -3.303462 0.446685 -0.319030 0
M  V30 44 H -5.788380 0.519128 -0.720558 0
M  V30 45 H -6.032327 -3.696712 -0.046312 0
M  V30 46 H -3.601350 -3.803829 0.352621 0
M  V30 47 H -1.568705 -3.805498 0.671424 0
M  V30 END ATOM
M  V30 BEGIN BOND
M  V30 1 1 1 2
M  V30 2 2 2 3
M  V30 3 1 2 4
M  V30 4 2 4 5
M  V30 5 1 5 6
M  V30 6 2 6 7
M  V30 7 1 7 8
M  V30 8 1 8 9
M  V30 9 1 9 10
M  V30 10 1 10 11
M  V30 11 1 11 12
M  V30 12 1 12 13
M  V30 13 1 13 14
M  V30 14 1 7 15
M  V30 15 1 15 16
M  V30 16 2 16 17
M  V30 17 1 17 18
M  V30 18 2 18 19
M  V30 19 1 19 20
M  V30 20 2 20 21
M  V30 21 1 21 22
M  V30 22 1 21 23
M  V30 23 2 23 24
M  V30 24 1 17 25
M  V30 25 1 25 26
M  V30 26 1 26 4
M  V30 27 1 14 9
M  V30 28 2 26 15
M  V30 29 1 24 18
M  V30 30 1 1 27
M  V30 31 1 1 28
M  V30 32 1 5 29
M  V30 33 1 6 30
M  V30 34 1 8 31
M  V30 35 1 9 32 CFG=3
M  V30 36 1 10 33
M  V30 37 1 10 34
M  V30 38 1 11 35
M  V30 39 1 11 36
M  V30 40 1 12 37
M  V30 41 1 12 38
M  V30 42 1 13 39
M  V30 43 1 14 40
M  V30 44 1 14 41
M  V30 45 1 16 42
M  V30 46 1 19 43
M  V30 47 1 20 44
M  V30 48 1 23 45
M  V30 49 1 24 46
M  V30 50 1 25 47
M  V30 END BOND
M  V30 END CTAB
M  END
>  <Dataset>  (47) 
ChEMBL_Kinases

>  <Ligand_Instance>  (47) 
nan

>  <PDB_ID>  (47) 
nan

>  <Standardized_SMILES>  (47) 
NC(=O)c1ccc(N[C@H]2CCCNC2)c2cc(-c3ccc(F)cc3)[nH]c12

>  <Name>  (47) 
nan

>  <Pocket>  (47) 
nan

>  <ATP_Site>  (47) 
nan

>  <Peripheral>  (47) 
nan

>  <Num_H_Atoms_ProtBoundConf>  (47) 
nan

>  <Num_Resolved_Atoms>  (47) 
nan

>  <Num_Not_Resolved_Atoms>  (47) 
nan

$$$$
CHEMBL4088971
     RDKit          3D

  0  0  0  0  0  0  0  0  0  0999 V3000
M  V30 BEGIN CTAB
M  V30 COUNTS 42 45 0 0 0
M  V30 BEGIN ATOM
M  V30 1 O -0.921292 -6.873953 0.029594 0
M  V30 2 C 0.337846 -6.325340 0.263297 0
M  V30 3 C 0.217748 -4.836919 0.304569 0
M  V30 4 C 1.560716 -4.138396 0.558564 0
M  V30 5 C 1.355466 -2.653076 0.586008 0
M  V30 6 N 1.413802 -1.778151 -0.436985 0
M  V30 7 C 1.164408 -0.519397 0.025609 0
M  V30 8 C 1.131510 0.716056 -0.748237 0
M  V30 9 C 0.301908 1.044083 -1.799627 0
M  V30 10 C 0.426834 2.281554 -2.410397 0
M  V30 11 C 1.377685 3.192543 -1.974663 0
M  V30 12 F 1.478175 4.395647 -2.589423 0
M  V30 13 C 2.212749 2.867843 -0.919727 0
M  V30 14 C 2.079919 1.617265 -0.309284 0
M  V30 15 C 0.950320 -0.682429 1.395736 0
M  V30 16 C 0.643481 0.419631 2.312489 0
M  V30 17 C 1.453355 0.778221 3.370986 0
M  V30 18 C 1.038003 1.833596 4.148379 0
M  V30 19 N -0.118538 2.490266 3.881738 0
M  V30 20 C -0.910655 2.143623 2.851166 0
M  V30 21 N -2.094075 2.634863 2.386629 0
M  V30 22 C -2.492584 1.933911 1.307097 0
M  V30 23 C -1.535937 0.966699 1.075466 0
M  V30 24 C -0.540697 1.077509 2.024451 0
M  V30 25 N 1.070914 -1.984343 1.714207 0
M  V30 26 H -1.504103 -6.730385 0.800635 0
M  V30 27 H 0.669387 -6.671195 1.255394 0
M  V30 28 H 1.060686 -6.701459 -0.479354 0
M  V30 29 H -0.433889 -4.597809 1.191663 0
M  V30 30 H -0.296131 -4.387811 -0.560868 0
M  V30 31 H 2.218726 -4.424443 -0.294838 0
M  V30 32 H 2.019791 -4.519015 1.468991 0
M  V30 33 H -0.399164 0.276226 -2.063308 0
M  V30 34 H -0.246876 2.489747 -3.229501 0
M  V30 35 H 2.936366 3.628709 -0.628647 0
M  V30 36 H 2.786991 1.491001 0.494761 0
M  V30 37 H 2.368014 0.215560 3.535733 0
M  V30 38 H 1.702205 2.085201 4.972130 0
M  V30 39 H -2.634295 3.447536 2.801371 0
M  V30 40 H -3.401788 2.125435 0.752419 0
M  V30 41 H -1.535353 0.224939 0.287437 0
M  V30 42 H 0.953261 -2.346088 2.680056 0
M  V30 END ATOM
M  V30 BEGIN BOND
M  V30 1 1 1 2
M  V30 2 1 2 3
M  V30 3 1 3 4
M  V30 4 1 4 5
M  V30 5 2 5 6
M  V30 6 1 6 7
M  V30 7 1 7 8
M  V30 8 2 8 9
M  V30 9 1 9 10
M  V30 10 2 10 11
M  V30 11 1 11 12
M  V30 12 1 11 13
M  V30 13 2 13 14
M  V30 14 2 7 15
M  V30 15 1 15 16
M  V30 16 2 16 17
M  V30 17 1 17 18
M  V30 18 2 18 19
M  V30 19 1 19 20
M  V30 20 1 20 21
M  V30 21 1 21 22
M  V30 22 2 22 23
M  V30 23 1 23 24
M  V30 24 1 15 25
M  V30 25 1 25 5
M  V30 26 1 14 8
M  V30 27 1 24 16
M  V30 28 2 24 20
M  V30 29 1 1 26
M  V30 30 1 2 27
M  V30 31 1 2 28
M  V30 32 1 3 29
M  V30 33 1 3 30
M  V30 34 1 4 31
M  V30 35 1 4 32
M  V30 36 1 9 33
M  V30 37 1 10 34
M  V30 38 1 13 35
M  V30 39 1 14 36
M  V30 40 1 17 37
M  V30 41 1 18 38
M  V30 42 1 21 39
M  V30 43 1 22 40
M  V30 44 1 23 41
M  V30 45 1 25 42
M  V30 END BOND
M  V30 END CTAB
M  END
>  <Dataset>  (48) 
ChEMBL_Kinases

>  <Ligand_Instance>  (48) 
nan

>  <PDB_ID>  (48) 
nan

>  <Standardized_SMILES>  (48) 
OCCCc1nc(-c2ccc(F)cc2)c(-c2ccnc3[nH]ccc23)[nH]1

>  <Name>  (48) 
nan

>  <Pocket>  (48) 
nan

>  <ATP_Site>  (48) 
nan

>  <Peripheral>  (48) 
nan

>  <Num_H_Atoms_ProtBoundConf>  (48) 
nan

>  <Num_Resolved_Atoms>  (48) 
nan

>  <Num_Not_Resolved_Atoms>  (48) 
nan

$$$$
CHEMBL4088961
     RDKit          3D

  0  0  0  0  0  0  0  0  0  0999 V3000
M  V30 BEGIN CTAB
M  V30 COUNTS 26 28 0 0 0
M  V30 BEGIN ATOM
M  V30 1 N -2.463038 -1.772598 -0.904522 0
M  V30 2 C -1.420297 -2.071196 -0.535783 0
M  V30 3 C -0.129082 -2.466931 -0.077082 0
M  V30 4 C 0.345622 -3.776941 -0.193101 0
M  V30 5 N 1.595108 -3.798805 0.355074 0
M  V30 6 C 1.969976 -2.592310 0.821670 0
M  V30 7 N 3.049829 -2.115023 1.428295 0
M  V30 8 C 3.123204 -0.812986 1.794287 0
M  V30 9 C 2.032810 0.004619 1.513493 0
M  V30 10 C 0.871868 -0.453097 0.874759 0
M  V30 11 C -0.140235 0.564035 0.640404 0
M  V30 12 C -0.785714 0.992195 -0.499702 0
M  V30 13 C -1.736971 1.985592 -0.433876 0
M  V30 14 C -2.101424 2.605750 0.742399 0
M  V30 15 C -1.461697 2.185762 1.890011 0
M  V30 16 Cl -1.943617 2.990230 3.368477 0
M  V30 17 C -0.506884 1.191467 1.839015 0
M  V30 18 C 0.890765 -1.783931 0.544115 0
M  V30 19 H -0.167191 -4.620858 -0.630544 0
M  V30 20 H 2.179236 -4.664096 0.398362 0
M  V30 21 H 3.992920 -0.401275 2.290351 0
M  V30 22 H 2.134866 1.054248 1.827861 0
M  V30 23 H -0.442387 0.470274 -1.371531 0
M  V30 24 H -2.154036 2.208908 -1.424722 0
M  V30 25 H -2.862485 3.367077 0.634366 0
M  V30 26 H -0.095188 0.972961 2.826071 0
M  V30 END ATOM
M  V30 BEGIN BOND
M  V30 1 3 1 2
M  V30 2 1 2 3
M  V30 3 2 3 4
M  V30 4 1 4 5
M  V30 5 1 5 6
M  V30 6 2 6 7
M  V30 7 1 7 8
M  V30 8 2 8 9
M  V30 9 1 9 10
M  V30 10 1 10 11
M  V30 11 2 11 12
M  V30 12 1 12 13
M  V30 13 2 13 14
M  V30 14 1 14 15
M  V30 15 1 15 16
M  V30 16 2 15 17
M  V30 17 2 10 18
M  V30 18 1 18 3
M  V30 19 1 18 6
M  V30 20 1 17 11
M  V30 21 1 4 19
M  V30 22 1 5 20
M  V30 23 1 8 21
M  V30 24 1 9 22
M  V30 25 1 12 23
M  V30 26 1 13 24
M  V30 27 1 14 25
M  V30 28 1 17 26
M  V30 END BOND
M  V30 END CTAB
M  END
>  <Dataset>  (49) 
ChEMBL_Kinases

>  <Ligand_Instance>  (49) 
nan

>  <PDB_ID>  (49) 
nan

>  <Standardized_SMILES>  (49) 
N#Cc1c[nH]c2nccc(-c3cccc(Cl)c3)c12

>  <Name>  (49) 
nan

>  <Pocket>  (49) 
nan

>  <ATP_Site>  (49) 
nan

>  <Peripheral>  (49) 
nan

>  <Num_H_Atoms_ProtBoundConf>  (49) 
nan

>  <Num_Resolved_Atoms>  (49) 
nan

>  <Num_Not_Resolved_Atoms>  (49) 
nan

$$$$
CHEMBL4088932
     RDKit          3D

  0  0  0  0  0  0  0  0  0  0999 V3000
M  V30 BEGIN CTAB
M  V30 COUNTS 68 72 0 0 0
M  V30 BEGIN ATOM
M  V30 1 C 4.050129 3.710196 3.073617 0
M  V30 2 C 4.379098 3.511492 1.621388 0
M  V30 3 C 3.083912 3.342996 0.872085 0 CFG=2
M  V30 4 C 2.272479 4.560418 1.064348 0
M  V30 5 C 2.636660 5.858698 0.830955 0
M  V30 6 C 3.869148 6.434580 0.340343 0
M  V30 7 N 4.861924 6.903611 -0.034644 0
M  V30 8 N 1.605617 6.662340 1.138296 0
M  V30 9 C 0.585987 5.894416 1.566217 0
M  V30 10 N 1.009353 4.634725 1.513020 0
M  V30 11 C 0.372588 3.411958 1.841746 0
M  V30 12 C -0.920848 3.409029 2.297189 0
M  V30 13 N -1.518053 2.231348 2.597556 0
M  V30 14 C -0.830469 1.059356 2.445982 0
M  V30 15 N -1.260643 -0.275491 2.671210 0
M  V30 16 C -1.614012 -1.292741 1.748803 0
M  V30 17 C -1.529586 -1.089564 0.369349 0
M  V30 18 C -1.836071 -2.070343 -0.543812 0
M  V30 19 F -1.762544 -1.924731 -1.874550 0
M  V30 20 C -2.248541 -3.323125 -0.108279 0
M  V30 21 C -2.612512 -4.505664 -0.921234 0
M  V30 22 O -2.633806 -5.660244 -0.372498 0
M  V30 23 N -2.953306 -4.509346 -2.303813 0
M  V30 24 C -3.238603 -5.777419 -2.905068 0
M  V30 25 C -3.042853 -5.808977 -4.388588 0
M  V30 26 N -4.159983 -6.766697 -4.437244 0
M  V30 27 C -3.674118 -8.078127 -4.062211 0
M  V30 28 C -4.692348 -6.048295 -3.268823 0
M  V30 29 C -2.326977 -3.501843 1.258086 0
M  V30 30 C -2.030637 -2.549431 2.200865 0
M  V30 31 O -2.092565 -2.675555 3.573495 0
M  V30 32 C -2.511232 -3.869037 4.167227 0
M  V30 33 N 0.422111 1.114596 2.001398 0
M  V30 34 C 1.073956 2.237113 1.685259 0
M  V30 35 N 2.417277 2.122423 1.210515 0
M  V30 36 C 3.197236 0.940692 1.012569 0
M  V30 37 C 3.681686 0.824678 -0.436048 0
M  V30 38 C 2.475769 -0.339497 1.409021 0
M  V30 39 H 4.338581 2.796403 3.674623 0
M  V30 40 H 4.567171 4.598885 3.495482 0
M  V30 41 H 2.967716 3.847713 3.256973 0
M  V30 42 H 5.088744 2.673961 1.470337 0
M  V30 43 H 4.935624 4.406753 1.211396 0
M  V30 44 H 3.391978 3.319232 -0.222148 0
M  V30 45 H -0.392593 6.214333 1.892176 0
M  V30 46 H -1.517907 4.276271 2.438697 0
M  V30 47 H -1.293891 -0.464980 3.683326 0
M  V30 48 H -1.215038 -0.141666 -0.002067 0
M  V30 49 H -2.973300 -3.592125 -2.785478 0
M  V30 50 H -2.802105 -6.653952 -2.333964 0
M  V30 51 H -3.301135 -4.824136 -4.837582 0
M  V30 52 H -2.077453 -6.226132 -4.752208 0
M  V30 53 H -2.554470 -8.162073 -4.199586 0
M  V30 54 H -4.100786 -8.897491 -4.704461 0
M  V30 55 H -3.867035 -8.324331 -2.986198 0
M  V30 56 H -5.192661 -5.134089 -3.569789 0
M  V30 57 H -5.225207 -6.710291 -2.559340 0
M  V30 58 H -2.641426 -4.445624 1.679169 0
M  V30 59 H -3.397802 -4.311877 3.622569 0
M  V30 60 H -2.928120 -3.680213 5.208882 0
M  V30 61 H -1.767492 -4.660951 4.267779 0
M  V30 62 H 4.145326 0.910306 1.632092 0
M  V30 63 H 3.834925 -0.282450 -0.585715 0
M  V30 64 H 4.692466 1.256654 -0.564636 0
M  V30 65 H 3.010721 1.264103 -1.164911 0
M  V30 66 H 3.097060 -1.206430 1.050718 0
M  V30 67 H 2.341927 -0.341103 2.484121 0
M  V30 68 H 1.513734 -0.484099 0.880783 0
M  V30 END ATOM
M  V30 BEGIN BOND
M  V30 1 1 1 2
M  V30 2 1 2 3
M  V30 3 1 3 4
M  V30 4 2 4 5
M  V30 5 1 5 6
M  V30 6 3 6 7
M  V30 7 1 5 8
M  V30 8 2 8 9
M  V30 9 1 9 10
M  V30 10 1 10 11
M  V30 11 2 11 12
M  V30 12 1 12 13
M  V30 13 2 13 14
M  V30 14 1 14 15
M  V30 15 1 15 16
M  V30 16 2 16 17
M  V30 17 1 17 18
M  V30 18 1 18 19
M  V30 19 2 18 20
M  V30 20 1 20 21
M  V30 21 2 21 22
M  V30 22 1 21 23
M  V30 23 1 23 24
M  V30 24 1 24 25
M  V30 25 1 25 26
M  V30 26 1 26 27
M  V30 27 1 26 28
M  V30 28 1 20 29
M  V30 29 2 29 30
M  V30 30 1 30 31
M  V30 31 1 31 32
M  V30 32 1 14 33
M  V30 33 2 33 34
M  V30 34 1 34 35
M  V30 35 1 35 36
M  V30 36 1 36 37
M  V30 37 1 36 38
M  V30 38 1 35 3
M  V30 39 1 10 4
M  V30 40 1 34 11
M  V30 41 1 30 16
M  V30 42 1 28 24
M  V30 43 1 1 39
M  V30 44 1 1 40
M  V30 45 1 1 41
M  V30 46 1 2 42
M  V30 47 1 2 43
M  V30 48 1 3 44 CFG=3
M  V30 49 1 9 45
M  V30 50 1 12 46
M  V30 51 1 15 47
M  V30 52 1 17 48
M  V30 53 1 23 49
M  V30 54 1 24 50
M  V30 55 1 25 51
M  V30 56 1 25 52
M  V30 57 1 27 53
M  V30 58 1 27 54
M  V30 59 1 27 55
M  V30 60 1 28 56
M  V30 61 1 28 57
M  V30 62 1 29 58
M  V30 63 1 32 59
M  V30 64 1 32 60
M  V30 65 1 32 61
M  V30 66 1 36 62
M  V30 67 1 37 63
M  V30 68 1 37 64
M  V30 69 1 37 65
M  V30 70 1 38 66
M  V30 71 1 38 67
M  V30 72 1 38 68
M  V30 END BOND
M  V30 END CTAB
M  END
>  <Dataset>  (50) 
ChEMBL_Kinases

>  <Ligand_Instance>  (50) 
nan

>  <PDB_ID>  (50) 
nan

>  <Standardized_SMILES>  (50) 
CC[C@@H]1c2c(C#N)ncn2-c2cnc(Nc3cc(F)c(C(=O)NC4CN(C)C4)cc3OC)nc2N1C(C)C

>  <Name>  (50) 
nan

>  <Pocket>  (50) 
nan

>  <ATP_Site>  (50) 
nan

>  <Peripheral>  (50) 
nan

>  <Num_H_Atoms_ProtBoundConf>  (50) 
nan

>  <Num_Resolved_Atoms>  (50) 
nan

>  <Num_Not_Resolved_Atoms>  (50) 
nan

$$$$
CHEMBL4088931
     RDKit          3D

  0  0  0  0  0  0  0  0  0  0999 V3000
M  V30 BEGIN CTAB
M  V30 COUNTS 37 40 0 0 0
M  V30 BEGIN ATOM
M  V30 1 C -0.270285 -3.093433 2.529259 0
M  V30 2 C 0.919217 -2.569508 3.202152 0
M  V30 3 C 1.876165 -1.987547 2.360472 0
M  V30 4 O 1.903304 -1.816442 1.044977 0
M  V30 5 C 1.264688 -1.167260 0.063594 0
M  V30 6 S 1.929595 -1.622881 -1.570025 0
M  V30 7 C 0.824789 -0.565094 -2.499393 0
M  V30 8 C 0.928335 -0.537702 -3.961734 0
M  V30 9 N 0.046583 0.305439 -4.690090 0
M  V30 10 O 1.792053 -1.259694 -4.520668 0
M  V30 11 C 0.053597 0.043902 -1.562826 0
M  V30 12 C 0.300485 -0.281599 -0.261047 0
M  V30 13 C -0.518184 0.402301 0.809789 0
M  V30 14 S -0.561871 0.369226 2.467518 0
M  V30 15 N -1.924932 1.643362 2.669014 0
M  V30 16 C -2.146655 1.911245 1.342531 0
M  V30 17 C -1.435701 1.286615 0.340595 0
M  V30 18 C -1.795027 1.678813 -1.032412 0
M  V30 19 C -0.960512 0.990585 -2.056938 0
M  V30 20 C 3.017186 -1.498639 3.010168 0
M  V30 21 C 3.181489 -1.588208 4.397335 0
M  V30 22 C 2.174565 -2.182649 5.141942 0
M  V30 23 N 1.071812 -2.658063 4.535618 0 CHG=1 VAL=4
M  V30 24 O 0.046540 -3.257663 5.247739 0 CHG=-1 VAL=1
M  V30 25 H -0.483736 -4.139015 2.907140 0
M  V30 26 H -1.199214 -2.537974 2.778660 0
M  V30 27 H -0.112639 -3.228924 1.451353 0
M  V30 28 H -0.657138 -0.474369 -4.799901 0
M  V30 29 H -0.243848 1.204362 -5.131621 0
M  V30 30 H -2.928123 2.640109 1.497201 0
M  V30 31 H -2.893185 1.398586 -1.201204 0
M  V30 32 H -1.727737 2.784457 -1.188783 0
M  V30 33 H -1.624125 0.524814 -2.840820 0
M  V30 34 H -0.449288 1.817455 -2.660066 0
M  V30 35 H 3.851735 -1.021023 2.514759 0
M  V30 36 H 4.050938 -1.216435 4.898693 0
M  V30 37 H 2.296774 -2.253572 6.209991 0
M  V30 END ATOM
M  V30 BEGIN BOND
M  V30 1 1 1 2
M  V30 2 2 2 3
M  V30 3 1 3 4
M  V30 4 1 4 5
M  V30 5 1 5 6
M  V30 6 1 6 7
M  V30 7 1 7 8
M  V30 8 1 8 9
M  V30 9 2 8 10
M  V30 10 2 7 11
M  V30 11 1 11 12
M  V30 12 1 12 13
M  V30 13 1 13 14
M  V30 14 1 14 15
M  V30 15 2 15 16
M  V30 16 1 16 17
M  V30 17 1 17 18
M  V30 18 1 18 19
M  V30 19 1 3 20
M  V30 20 2 20 21
M  V30 21 1 21 22
M  V30 22 2 22 23
M  V30 23 1 23 24
M  V30 24 1 23 2
M  V30 25 2 12 5
M  V30 26 2 17 13
M  V30 27 1 19 11
M  V30 28 1 1 25
M  V30 29 1 1 26
M  V30 30 1 1 27
M  V30 31 1 9 28
M  V30 32 1 9 29
M  V30 33 1 16 30
M  V30 34 1 18 31
M  V30 35 1 18 32
M  V30 36 1 19 33
M  V30 37 1 19 34
M  V30 38 1 20 35
M  V30 39 1 21 36
M  V30 40 1 22 37
M  V30 END BOND
M  V30 END CTAB
M  END
>  <Dataset>  (51) 
ChEMBL_Kinases

>  <Ligand_Instance>  (51) 
nan

>  <PDB_ID>  (51) 
nan

>  <Standardized_SMILES>  (51) 
Cc1c(Oc2sc(C(N)=O)c3c2-c2sncc2CC3)ccc[n+]1[O-]

>  <Name>  (51) 
nan

>  <Pocket>  (51) 
nan

>  <ATP_Site>  (51) 
nan

>  <Peripheral>  (51) 
nan

>  <Num_H_Atoms_ProtBoundConf>  (51) 
nan

>  <Num_Resolved_Atoms>  (51) 
nan

>  <Num_Not_Resolved_Atoms>  (51) 
nan

$$$$
CHEMBL4846725
     RDKit          3D

  0  0  0  0  0  0  0  0  0  0999 V3000
M  V30 BEGIN CTAB
M  V30 COUNTS 57 60 0 0 0
M  V30 BEGIN ATOM
M  V30 1 C 3.674110 -1.964487 3.534021 0
M  V30 2 C 3.750016 -1.866872 2.038350 0
M  V30 3 C 3.499702 -0.488584 1.514288 0
M  V30 4 C 4.520442 0.434557 2.127048 0
M  V30 5 C 4.391762 1.870452 1.681675 0
M  V30 6 C 2.122138 0.000204 1.836447 0
M  V30 7 O 1.951764 1.323568 1.349082 0
M  V30 8 C 1.241558 1.573684 0.217546 0
M  V30 9 O 1.446087 2.769778 -0.191484 0
M  V30 10 N 0.374636 0.683726 -0.470955 0
M  V30 11 C -0.240448 1.214105 -1.637969 0
M  V30 12 C -0.248333 0.358584 -2.852297 0
M  V30 13 C -1.313144 1.052827 -3.698447 0
M  V30 14 C -2.319173 1.638639 -2.726964 0
M  V30 15 C -1.753118 1.291822 -1.360277 0
M  V30 16 C 0.300999 -0.586202 0.146884 0
M  V30 17 N -0.616648 -1.402197 -0.398856 0
M  V30 18 C -0.890575 -2.586887 0.163340 0
M  V30 19 N -1.859399 -3.434580 -0.425776 0
M  V30 20 C -3.220604 -3.302525 -0.005433 0
M  V30 21 C -3.556499 -2.367205 0.953617 0
M  V30 22 C -4.894175 -2.278211 1.327917 0
M  V30 23 F -5.257354 -1.361904 2.274925 0
M  V30 24 C -5.899541 -3.074576 0.791253 0
M  V30 25 O -7.216733 -2.915212 1.227797 0
M  V30 26 C -5.535440 -4.000135 -0.164652 0
M  V30 27 F -6.513484 -4.788843 -0.700065 0
M  V30 28 C -4.213693 -4.096227 -0.542201 0
M  V30 29 N -0.209178 -2.924428 1.296955 0
M  V30 30 C 0.714058 -2.064493 1.812534 0
M  V30 31 C 1.045690 -0.832976 1.281315 0
M  V30 32 H 2.815575 -1.479543 3.999404 0
M  V30 33 H 3.590892 -3.061766 3.775722 0
M  V30 34 H 4.641935 -1.659351 3.982613 0
M  V30 35 H 4.830600 -2.133438 1.791557 0
M  V30 36 H 3.153256 -2.664894 1.552271 0
M  V30 37 H 3.708086 -0.450843 0.412758 0
M  V30 38 H 4.428354 0.451151 3.252901 0
M  V30 39 H 5.551960 0.072422 1.890883 0
M  V30 40 H 5.423258 2.308785 1.769887 0
M  V30 41 H 4.074983 1.963386 0.629875 0
M  V30 42 H 3.712507 2.414576 2.391276 0
M  V30 43 H 2.007081 0.042645 2.930848 0
M  V30 44 H 0.073006 2.261958 -1.856306 0
M  V30 45 H 0.704317 0.350239 -3.410654 0
M  V30 46 H -0.653710 -0.633630 -2.643274 0
M  V30 47 H -0.850793 1.836690 -4.305135 0
M  V30 48 H -1.862771 0.299066 -4.301915 0
M  V30 49 H -2.347974 2.745022 -2.764977 0
M  V30 50 H -3.330023 1.240403 -2.840556 0
M  V30 51 H -1.990842 2.021131 -0.583702 0
M  V30 52 H -2.062300 0.264239 -1.101984 0
M  V30 53 H -1.616722 -4.141600 -1.145497 0
M  V30 54 H -2.822287 -1.724930 1.403090 0
M  V30 55 H -7.554746 -3.372816 2.067740 0
M  V30 56 H -3.936615 -4.826715 -1.294376 0
M  V30 57 H 1.099563 -2.511339 2.689025 0
M  V30 END ATOM
M  V30 BEGIN BOND
M  V30 1 1 1 2
M  V30 2 1 2 3
M  V30 3 1 3 4
M  V30 4 1 4 5
M  V30 5 1 3 6
M  V30 6 1 6 7
M  V30 7 1 7 8
M  V30 8 2 8 9
M  V30 9 1 8 10
M  V30 10 1 10 11
M  V30 11 1 11 12
M  V30 12 1 12 13
M  V30 13 1 13 14
M  V30 14 1 14 15
M  V30 15 1 10 16
M  V30 16 2 16 17
M  V30 17 1 17 18
M  V30 18 1 18 19
M  V30 19 1 19 20
M  V30 20 2 20 21
M  V30 21 1 21 22
M  V30 22 1 22 23
M  V30 23 2 22 24
M  V30 24 1 24 25
M  V30 25 1 24 26
M  V30 26 1 26 27
M  V30 27 2 26 28
M  V30 28 2 18 29
M  V30 29 1 29 30
M  V30 30 2 30 31
M  V30 31 1 31 6
M  V30 32 1 15 11
M  V30 33 1 31 16
M  V30 34 1 28 20
M  V30 35 1 1 32
M  V30 36 1 1 33
M  V30 37 1 1 34
M  V30 38 1 2 35
M  V30 39 1 2 36
M  V30 40 1 3 37
M  V30 41 1 4 38
M  V30 42 1 4 39
M  V30 43 1 5 40
M  V30 44 1 5 41
M  V30 45 1 5 42
M  V30 46 1 6 43
M  V30 47 1 11 44
M  V30 48 1 12 45
M  V30 49 1 12 46
M  V30 50 1 13 47
M  V30 51 1 13 48
M  V30 52 1 14 49
M  V30 53 1 14 50
M  V30 54 1 15 51
M  V30 55 1 15 52
M  V30 56 1 19 53
M  V30 57 1 21 54
M  V30 58 1 25 55
M  V30 59 1 28 56
M  V30 60 1 30 57
M  V30 END BOND
M  V30 END CTAB
M  END
>  <Dataset>  (52) 
ChEMBL_Kinases

>  <Ligand_Instance>  (52) 
nan

>  <PDB_ID>  (52) 
nan

>  <Standardized_SMILES>  (52) 
CCC(CC)C1OC(=O)N(C2CCCC2)c2nc(Nc3cc(F)c(O)c(F)c3)ncc21

>  <Name>  (52) 
nan

>  <Pocket>  (52) 
nan

>  <ATP_Site>  (52) 
nan

>  <Peripheral>  (52) 
nan

>  <Num_H_Atoms_ProtBoundConf>  (52) 
nan

>  <Num_Resolved_Atoms>  (52) 
nan

>  <Num_Not_Resolved_Atoms>  (52) 
nan

$$$$
CHEMBL4846824
     RDKit          3D

  0  0  0  0  0  0  0  0  0  0999 V3000
M  V30 BEGIN CTAB
M  V30 COUNTS 43 44 0 0 0
M  V30 BEGIN ATOM
M  V30 1 C 0.988772 -4.149925 2.136304 0
M  V30 2 N -0.423509 -3.811738 2.284188 0
M  V30 3 C -1.172375 -3.026404 1.362536 0
M  V30 4 N -0.471850 -2.588813 0.296252 0
M  V30 5 C -1.079899 -1.828910 -0.642364 0
M  V30 6 N -0.623385 -1.245241 -1.854819 0
M  V30 7 C 0.094707 -0.008586 -2.004884 0
M  V30 8 C 0.280502 0.410369 -3.301585 0
M  V30 9 N 0.964006 1.560113 -3.442991 0
M  V30 10 C 1.413824 2.217563 -2.363516 0
M  V30 11 C 2.129562 3.437950 -2.665821 0
M  V30 12 N 2.727329 4.422634 -2.909822 0
M  V30 13 C 1.235338 1.809971 -1.060195 0
M  V30 14 N 1.758409 2.605988 -0.011807 0
M  V30 15 C 1.716022 2.384741 1.420171 0
M  V30 16 C 2.526844 1.206071 1.881302 0
M  V30 17 C 2.417749 1.073032 3.402934 0
M  V30 18 N 3.189978 -0.057730 3.872347 0
M  V30 19 C 0.543663 0.644818 -0.886801 0
M  V30 20 N -2.401687 -1.513763 -0.496103 0
M  V30 21 C -3.120106 -1.952100 0.579974 0
M  V30 22 C -2.525585 -2.729391 1.553982 0
M  V30 23 C -3.227700 -3.241865 2.732966 0
M  V30 24 F -3.218143 -4.639402 2.783502 0
M  V30 25 F -2.766943 -2.732845 3.909882 0
M  V30 26 F -4.588690 -2.922705 2.607889 0
M  V30 27 H 1.189755 -4.147212 1.032261 0
M  V30 28 H 1.224453 -5.101110 2.613455 0
M  V30 29 H 1.587501 -3.301691 2.583038 0
M  V30 30 H -0.928034 -4.165317 3.119610 0
M  V30 31 H -0.894957 -1.864475 -2.624768 0
M  V30 32 H -0.095766 -0.144042 -4.142871 0
M  V30 33 H 2.258949 3.499318 -0.283629 0
M  V30 34 H 0.655365 2.147272 1.742483 0
M  V30 35 H 1.978436 3.287191 1.977226 0
M  V30 36 H 2.278834 0.249126 1.437106 0
M  V30 37 H 3.589135 1.437848 1.619063 0
M  V30 38 H 1.378602 0.945357 3.737398 0
M  V30 39 H 2.890159 1.992758 3.824726 0
M  V30 40 H 3.065900 -0.925307 3.339040 0
M  V30 41 H 3.227491 -0.136750 4.890049 0
M  V30 42 H 0.356395 0.261886 0.092995 0
M  V30 43 H -4.154085 -1.738069 0.748089 0
M  V30 END ATOM
M  V30 BEGIN BOND
M  V30 1 1 1 2
M  V30 2 1 2 3
M  V30 3 2 3 4
M  V30 4 1 4 5
M  V30 5 1 5 6
M  V30 6 1 6 7
M  V30 7 2 7 8
M  V30 8 1 8 9
M  V30 9 2 9 10
M  V30 10 1 10 11
M  V30 11 3 11 12
M  V30 12 1 10 13
M  V30 13 1 13 14
M  V30 14 1 14 15
M  V30 15 1 15 16
M  V30 16 1 16 17
M  V30 17 1 17 18
M  V30 18 2 13 19
M  V30 19 2 5 20
M  V30 20 1 20 21
M  V30 21 2 21 22
M  V30 22 1 22 23
M  V30 23 1 23 24
M  V30 24 1 23 25
M  V30 25 1 23 26
M  V30 26 1 22 3
M  V30 27 1 19 7
M  V30 28 1 1 27
M  V30 29 1 1 28
M  V30 30 1 1 29
M  V30 31 1 2 30
M  V30 32 1 6 31
M  V30 33 1 8 32
M  V30 34 1 14 33
M  V30 35 1 15 34
M  V30 36 1 15 35
M  V30 37 1 16 36
M  V30 38 1 16 37
M  V30 39 1 17 38
M  V30 40 1 17 39
M  V30 41 1 18 40
M  V30 42 1 18 41
M  V30 43 1 19 42
M  V30 44 1 21 43
M  V30 END BOND
M  V30 END CTAB
M  END
>  <Dataset>  (53) 
ChEMBL_Kinases

>  <Ligand_Instance>  (53) 
nan

>  <PDB_ID>  (53) 
nan

>  <Standardized_SMILES>  (53) 
CNc1nc(Nc2cnc(C#N)c(NCCCN)c2)ncc1C(F)(F)F

>  <Name>  (53) 
nan

>  <Pocket>  (53) 
nan

>  <ATP_Site>  (53) 
nan

>  <Peripheral>  (53) 
nan

>  <Num_H_Atoms_ProtBoundConf>  (53) 
nan

>  <Num_Resolved_Atoms>  (53) 
nan

>  <Num_Not_Resolved_Atoms>  (53) 
nan

$$$$
CHEMBL4088781
     RDKit          3D

  0  0  0  0  0  0  0  0  0  0999 V3000
M  V30 BEGIN CTAB
M  V30 COUNTS 53 56 0 0 0
M  V30 BEGIN ATOM
M  V30 1 C 3.472960 -5.913892 3.209136 0
M  V30 2 C 3.418520 -4.425839 3.148405 0
M  V30 3 C 4.162572 -3.601903 3.965952 0
M  V30 4 C 3.817114 -2.342279 3.586565 0
M  V30 5 C 4.332416 -1.106386 4.211786 0
M  V30 6 C 2.900594 -2.320574 2.577093 0
M  V30 7 C 2.193874 -1.376518 1.734286 0
M  V30 8 C 2.595608 -0.424229 0.915456 0
M  V30 9 C 4.004239 -0.144617 0.701295 0
M  V30 10 O 4.980390 -0.739426 1.208220 0
M  V30 11 N 4.048531 0.942055 -0.205755 0
M  V30 12 C 2.716101 1.294497 -0.520070 0
M  V30 13 C 2.237280 2.299223 -1.367763 0
M  V30 14 C 0.851841 2.440722 -1.507330 0
M  V30 15 C -0.048671 1.631971 -0.844644 0
M  V30 16 C -1.468066 1.881900 -1.077329 0
M  V30 17 O -1.810960 2.785418 -1.860129 0
M  V30 18 N -2.496889 1.130768 -0.442452 0
M  V30 19 C -3.899186 1.328330 -0.630429 0 CFG=2
M  V30 20 C -4.605467 1.774832 0.634178 0
M  V30 21 O -4.507430 0.892434 1.679341 0
M  V30 22 C -4.498853 0.099261 -1.207798 0
M  V30 23 C -5.659446 -0.497702 -0.802553 0
M  V30 24 C -6.169314 -1.642721 -1.379491 0
M  V30 25 C -5.484639 -2.235918 -2.426751 0
M  V30 26 C -4.306832 -1.643209 -2.849102 0
M  V30 27 C -3.814653 -0.488697 -2.250301 0
M  V30 28 C 0.428056 0.655072 -0.020121 0
M  V30 29 C 1.790860 0.500441 0.130007 0
M  V30 30 N 2.680715 -3.652510 2.337012 0
M  V30 31 H 3.638724 -6.288964 2.175634 0
M  V30 32 H 2.503884 -6.251879 3.627753 0
M  V30 33 H 4.313380 -6.260338 3.842303 0
M  V30 34 H 4.867793 -3.863068 4.740936 0
M  V30 35 H 3.883894 -0.182041 3.827876 0
M  V30 36 H 5.459522 -1.070216 4.142577 0
M  V30 37 H 4.157344 -1.186522 5.323931 0
M  V30 38 H 1.093155 -1.468359 1.787861 0
M  V30 39 H 4.951757 1.348249 -0.531548 0
M  V30 40 H 2.928301 2.955861 -1.906433 0
M  V30 41 H 0.559208 3.246994 -2.185994 0
M  V30 42 H -2.243083 0.364076 0.221675 0
M  V30 43 H -4.122347 2.150410 -1.372950 0
M  V30 44 H -4.216460 2.801698 0.890713 0
M  V30 45 H -5.686938 1.882004 0.372489 0
M  V30 46 H -4.234206 1.356869 2.532857 0
M  V30 47 H -6.195894 -0.051866 0.001983 0
M  V30 48 H -7.103643 -2.081886 -1.017464 0
M  V30 49 H -5.915619 -3.131927 -2.852965 0
M  V30 50 H -3.810348 -2.147210 -3.671540 0
M  V30 51 H -2.892149 -0.123590 -2.665563 0
M  V30 52 H -0.251345 0.016894 0.503380 0
M  V30 53 H 2.039867 -4.129678 1.633378 0
M  V30 END ATOM
M  V30 BEGIN BOND
M  V30 1 1 1 2
M  V30 2 2 2 3
M  V30 3 1 3 4
M  V30 4 1 4 5
M  V30 5 2 4 6
M  V30 6 1 6 7
M  V30 7 2 7 8
M  V30 8 1 8 9
M  V30 9 2 9 10
M  V30 10 1 9 11
M  V30 11 1 11 12
M  V30 12 2 12 13
M  V30 13 1 13 14
M  V30 14 2 14 15
M  V30 15 1 15 16
M  V30 16 2 16 17
M  V30 17 1 16 18
M  V30 18 1 18 19
M  V30 19 1 19 20
M  V30 20 1 20 21
M  V30 21 1 19 22
M  V30 22 2 22 23
M  V30 23 1 23 24
M  V30 24 2 24 25
M  V30 25 1 25 26
M  V30 26 2 26 27
M  V30 27 1 15 28
M  V30 28 2 28 29
M  V30 29 1 6 30
M  V30 30 1 30 2
M  V30 31 1 29 8
M  V30 32 1 29 12
M  V30 33 1 27 22
M  V30 34 1 1 31
M  V30 35 1 1 32
M  V30 36 1 1 33
M  V30 37 1 3 34
M  V30 38 1 5 35
M  V30 39 1 5 36
M  V30 40 1 5 37
M  V30 41 1 7 38
M  V30 42 1 11 39
M  V30 43 1 13 40
M  V30 44 1 14 41
M  V30 45 1 18 42
M  V30 46 1 19 43 CFG=3
M  V30 47 1 20 44
M  V30 48 1 20 45
M  V30 49 1 21 46
M  V30 50 1 23 47
M  V30 51 1 24 48
M  V30 52 1 25 49
M  V30 53 1 26 50
M  V30 54 1 27 51
M  V30 55 1 28 52
M  V30 56 1 30 53
M  V30 END BOND
M  V30 END CTAB
M  END
>  <Dataset>  (54) 
ChEMBL_Kinases

>  <Ligand_Instance>  (54) 
nan

>  <PDB_ID>  (54) 
nan

>  <Standardized_SMILES>  (54) 
Cc1cc(C)c(/C=C2\C(=O)Nc3ccc(C(=O)N[C@H](CO)c4ccccc4)cc32)[nH]1

>  <Name>  (54) 
nan

>  <Pocket>  (54) 
nan

>  <ATP_Site>  (54) 
nan

>  <Peripheral>  (54) 
nan

>  <Num_H_Atoms_ProtBoundConf>  (54) 
nan

>  <Num_Resolved_Atoms>  (54) 
nan

>  <Num_Not_Resolved_Atoms>  (54) 
nan

$$$$
CHEMBL4846849
     RDKit          3D

  0  0  0  0  0  0  0  0  0  0999 V3000
M  V30 BEGIN CTAB
M  V30 COUNTS 46 49 0 0 0
M  V30 BEGIN ATOM
M  V30 1 N 2.936709 -4.582192 5.226125 0
M  V30 2 C 2.887432 -4.151213 4.133293 0
M  V30 3 C 2.804614 -3.637764 2.805342 0
M  V30 4 C 2.699821 -2.257499 2.599797 0
M  V30 5 C 2.610742 -1.708357 1.341457 0
M  V30 6 C 2.631182 -2.603678 0.294313 0
M  V30 7 N 2.521496 -2.146096 -1.044559 0
M  V30 8 C 2.347973 -0.720442 -1.201975 0
M  V30 9 N 3.160787 0.260941 -1.551326 0
M  V30 10 C 2.663698 1.503672 -1.581977 0
M  V30 11 C 1.344731 1.802593 -1.265837 0
M  V30 12 C 0.839714 3.185443 -1.308779 0
M  V30 13 F -0.232157 3.238903 -2.190755 0
M  V30 14 F 1.853196 3.970204 -1.897406 0
M  V30 15 F 0.588754 3.754492 -0.105411 0
M  V30 16 C 0.498011 0.762111 -0.898779 0
M  V30 17 N -0.890883 0.986121 -0.555330 0
M  V30 18 C -1.594739 -0.251602 -0.171029 0
M  V30 19 C -3.016870 -0.008869 0.151404 0
M  V30 20 C -3.344057 -0.101196 1.626016 0
M  V30 21 C -2.515473 0.886947 2.383435 0
M  V30 22 C -1.452425 0.040390 3.045123 0
M  V30 23 C -1.493418 -1.199594 2.178604 0
M  V30 24 C -0.773632 -0.868312 0.907031 0
M  V30 25 N -2.898610 -1.424872 2.048400 0
M  V30 26 N 1.074302 -0.443245 -0.895018 0
M  V30 27 C 2.735180 -3.976160 0.480815 0
M  V30 28 N 2.819827 -4.472981 1.723240 0
M  V30 29 H 2.688830 -1.600043 3.472045 0
M  V30 30 H 2.532445 -0.638933 1.197692 0
M  V30 31 H 2.562525 -2.779748 -1.871488 0
M  V30 32 H 3.359007 2.288422 -1.873098 0
M  V30 33 H -1.261636 1.953331 -0.606038 0
M  V30 34 H -1.546388 -0.883996 -1.089847 0
M  V30 35 H -3.684512 -0.785122 -0.331062 0
M  V30 36 H -3.413192 0.950873 -0.295261 0
M  V30 37 H -4.432265 0.027116 1.771296 0
M  V30 38 H -3.097104 1.480949 3.115960 0
M  V30 39 H -1.982839 1.611479 1.713918 0
M  V30 40 H -1.733001 -0.204759 4.092459 0
M  V30 41 H -0.452134 0.527275 2.992887 0
M  V30 42 H -0.969068 -2.057603 2.692162 0
M  V30 43 H 0.084246 -0.201917 1.213109 0
M  V30 44 H -0.291139 -1.798881 0.540616 0
M  V30 45 H -3.028451 -2.129995 1.270758 0
M  V30 46 H 2.747071 -4.642659 -0.394421 0
M  V30 END ATOM
M  V30 BEGIN BOND
M  V30 1 3 1 2
M  V30 2 1 2 3
M  V30 3 2 3 4
M  V30 4 1 4 5
M  V30 5 2 5 6
M  V30 6 1 6 7
M  V30 7 1 7 8
M  V30 8 2 8 9
M  V30 9 1 9 10
M  V30 10 2 10 11
M  V30 11 1 11 12
M  V30 12 1 12 13
M  V30 13 1 12 14
M  V30 14 1 12 15
M  V30 15 1 11 16
M  V30 16 1 16 17
M  V30 17 1 17 18
M  V30 18 1 18 19
M  V30 19 1 19 20
M  V30 20 1 20 21
M  V30 21 1 21 22
M  V30 22 1 22 23
M  V30 23 1 23 24
M  V30 24 1 23 25
M  V30 25 2 16 26
M  V30 26 1 6 27
M  V30 27 2 27 28
M  V30 28 1 28 3
M  V30 29 1 26 8
M  V30 30 1 24 18
M  V30 31 1 25 20
M  V30 32 1 4 29
M  V30 33 1 5 30
M  V30 34 1 7 31
M  V30 35 1 10 32
M  V30 36 1 17 33
M  V30 37 1 18 34
M  V30 38 1 19 35
M  V30 39 1 19 36
M  V30 40 1 20 37
M  V30 41 1 21 38
M  V30 42 1 21 39
M  V30 43 1 22 40
M  V30 44 1 22 41
M  V30 45 1 23 42
M  V30 46 1 24 43
M  V30 47 1 24 44
M  V30 48 1 25 45
M  V30 49 1 27 46
M  V30 END BOND
M  V30 END CTAB
M  END
>  <Dataset>  (55) 
ChEMBL_Kinases

>  <Ligand_Instance>  (55) 
nan

>  <PDB_ID>  (55) 
nan

>  <Standardized_SMILES>  (55) 
N#Cc1ccc(Nc2ncc(C(F)(F)F)c(NC3CC4CCC(C3)N4)n2)cn1

>  <Name>  (55) 
nan

>  <Pocket>  (55) 
nan

>  <ATP_Site>  (55) 
nan

>  <Peripheral>  (55) 
nan

>  <Num_H_Atoms_ProtBoundConf>  (55) 
nan

>  <Num_Resolved_Atoms>  (55) 
nan

>  <Num_Not_Resolved_Atoms>  (55) 
nan

$$$$
CHEMBL4088777
     RDKit          3D

  0  0  0  0  0  0  0  0  0  0999 V3000
M  V30 BEGIN CTAB
M  V30 COUNTS 46 49 0 0 0
M  V30 BEGIN ATOM
M  V30 1 C 0.947481 -3.783542 1.927059 0
M  V30 2 N -0.317087 -3.233752 1.483595 0
M  V30 3 C -0.354996 -1.959973 1.074034 0
M  V30 4 N 0.714154 -1.035698 0.959459 0
M  V30 5 C 0.353420 0.354498 0.620036 0
M  V30 6 C 0.907907 0.746279 -0.737925 0
M  V30 7 N 2.184134 0.098638 -0.977141 0
M  V30 8 C 2.875919 -0.141158 0.258452 0
M  V30 9 C 3.294125 1.058467 0.986169 0
M  V30 10 C 3.249283 1.460071 2.300879 0
M  V30 11 C 3.732162 2.673726 2.734677 0
M  V30 12 C 4.300365 3.571056 1.847155 0
M  V30 13 C 4.359033 3.194284 0.518821 0
M  V30 14 Br 5.163659 4.511616 -0.611712 0
M  V30 15 C 3.864889 1.956365 0.084894 0
M  V30 16 C 2.141783 -1.159585 1.089500 0
M  V30 17 N -1.582137 -1.554137 0.706785 0
M  V30 18 C -2.690301 -2.296702 0.724437 0
M  V30 19 C -3.967751 -1.738346 0.298401 0
M  V30 20 C -4.093473 -0.435564 -0.137387 0
M  V30 21 C -5.318821 0.060328 -0.533605 0
M  V30 22 N -6.440766 -0.715305 -0.508167 0
M  V30 23 C -6.280671 -1.980352 -0.077524 0
M  V30 24 N -5.077720 -2.492694 0.319413 0
M  V30 25 C -2.606774 -3.598667 1.150981 0
M  V30 26 C -1.371975 -4.061995 1.538461 0
M  V30 27 O -1.247044 -5.246531 1.936297 0
M  V30 28 H 1.520518 -4.257817 1.092739 0
M  V30 29 H 0.748726 -4.694846 2.593454 0
M  V30 30 H 1.523911 -3.133107 2.586355 0
M  V30 31 H -0.771013 0.442829 0.477636 0
M  V30 32 H 0.566233 1.061160 1.419705 0
M  V30 33 H 0.221605 0.383256 -1.520124 0
M  V30 34 H 0.993044 1.836716 -0.736470 0
M  V30 35 H 2.740014 0.512915 -1.723447 0
M  V30 36 H 3.853741 -0.637426 -0.061024 0
M  V30 37 H 2.793688 0.711485 2.924592 0
M  V30 38 H 3.625842 2.840763 3.778514 0
M  V30 39 H 4.662737 4.508947 2.243735 0
M  V30 40 H 4.021321 1.887273 -0.979417 0
M  V30 41 H 2.544023 -1.087618 2.096083 0
M  V30 42 H 2.427117 -2.155993 0.654888 0
M  V30 43 H -3.235224 0.214309 -0.174155 0
M  V30 44 H -5.448250 1.094478 -0.885481 0
M  V30 45 H -7.187958 -2.559501 -0.071867 0
M  V30 46 H -3.450576 -4.265621 1.196144 0
M  V30 END ATOM
M  V30 BEGIN BOND
M  V30 1 1 1 2
M  V30 2 1 2 3
M  V30 3 1 3 4
M  V30 4 1 4 5
M  V30 5 1 5 6
M  V30 6 1 6 7
M  V30 7 1 7 8
M  V30 8 1 8 9
M  V30 9 2 9 10
M  V30 10 1 10 11
M  V30 11 2 11 12
M  V30 12 1 12 13
M  V30 13 1 13 14
M  V30 14 2 13 15
M  V30 15 1 8 16
M  V30 16 2 3 17
M  V30 17 1 17 18
M  V30 18 1 18 19
M  V30 19 2 19 20
M  V30 20 1 20 21
M  V30 21 2 21 22
M  V30 22 1 22 23
M  V30 23 2 23 24
M  V30 24 2 18 25
M  V30 25 1 25 26
M  V30 26 2 26 27
M  V30 27 1 26 2
M  V30 28 1 16 4
M  V30 29 1 24 19
M  V30 30 1 15 9
M  V30 31 1 1 28
M  V30 32 1 1 29
M  V30 33 1 1 30
M  V30 34 1 5 31
M  V30 35 1 5 32
M  V30 36 1 6 33
M  V30 37 1 6 34
M  V30 38 1 7 35
M  V30 39 1 8 36
M  V30 40 1 10 37
M  V30 41 1 11 38
M  V30 42 1 12 39
M  V30 43 1 15 40
M  V30 44 1 16 41
M  V30 45 1 16 42
M  V30 46 1 20 43
M  V30 47 1 21 44
M  V30 48 1 23 45
M  V30 49 1 25 46
M  V30 END BOND
M  V30 END CTAB
M  END
>  <Dataset>  (56) 
ChEMBL_Kinases

>  <Ligand_Instance>  (56) 
nan

>  <PDB_ID>  (56) 
nan

>  <Standardized_SMILES>  (56) 
Cn1c(N2CCNC(c3cccc(Br)c3)C2)nc(-c2ccncn2)cc1=O

>  <Name>  (56) 
nan

>  <Pocket>  (56) 
nan

>  <ATP_Site>  (56) 
nan

>  <Peripheral>  (56) 
nan

>  <Num_H_Atoms_ProtBoundConf>  (56) 
nan

>  <Num_Resolved_Atoms>  (56) 
nan

>  <Num_Not_Resolved_Atoms>  (56) 
nan

$$$$
CHEMBL4848072
     RDKit          3D

  0  0  0  0  0  0  0  0  0  0999 V3000
M  V30 BEGIN CTAB
M  V30 COUNTS 43 46 0 0 0
M  V30 BEGIN ATOM
M  V30 1 O 3.313257 3.670692 2.285986 0
M  V30 2 C 2.859012 2.507122 2.428398 0
M  V30 3 O 2.915414 1.908607 3.662726 0
M  V30 4 C 3.457879 2.499073 4.835807 0
M  V30 5 C 3.292544 1.428170 5.922295 0
M  V30 6 I 1.239403 0.932749 6.180118 0
M  V30 7 C 2.272085 1.785834 1.290620 0
M  V30 8 C 2.233312 2.387208 0.046115 0
M  V30 9 C 1.686922 1.707037 -1.023018 0
M  V30 10 C 1.184933 0.444136 -0.856192 0
M  V30 11 C 1.241366 -0.120922 0.398087 0
M  V30 12 C 1.774126 0.514529 1.490158 0
M  V30 13 N 0.751761 -1.360011 0.576713 0
M  V30 14 C 0.194671 -2.108243 -0.413108 0
M  V30 15 N -0.299590 -3.424941 -0.090468 0
M  V30 16 C -1.630417 -3.319089 0.405667 0
M  V30 17 C -1.592555 -3.255981 1.804924 0
M  V30 18 C -2.758170 -3.147203 2.554016 0
M  V30 19 C -3.963798 -3.102146 1.887431 0
M  V30 20 C -4.017042 -3.163125 0.520573 0
M  V30 21 Cl -5.492554 -3.115277 -0.445063 0
M  V30 22 C -2.857595 -3.270823 -0.212678 0
M  V30 23 C 0.147679 -1.527116 -1.664878 0
M  V30 24 C -0.395108 -2.245483 -2.692680 0
M  V30 25 C -0.427921 -1.658163 -3.924825 0
M  V30 26 N 0.054371 -0.419189 -4.125390 0
M  V30 27 C 0.595233 0.312749 -3.134132 0
M  V30 28 C 0.636799 -0.260908 -1.890686 0
M  V30 29 H 4.530896 2.739022 4.740299 0
M  V30 30 H 2.885167 3.418031 5.128693 0
M  V30 31 H 3.728444 1.779227 6.875403 0
M  V30 32 H 3.831599 0.512088 5.608201 0
M  V30 33 H 2.637589 3.376465 -0.042994 0
M  V30 34 H 1.699027 2.250318 -1.947837 0
M  V30 35 H 1.822229 0.073770 2.482026 0
M  V30 36 H 0.363436 -4.238961 -0.259261 0
M  V30 37 H -0.713326 -3.281148 2.459071 0
M  V30 38 H -2.829887 -3.091603 3.622870 0
M  V30 39 H -4.940112 -3.017648 2.375256 0
M  V30 40 H -2.768338 -3.327473 -1.274868 0
M  V30 41 H -0.772889 -3.226036 -2.540359 0
M  V30 42 H -0.851534 -2.213936 -4.732463 0
M  V30 43 H 0.936652 1.269220 -3.421760 0
M  V30 END ATOM
M  V30 BEGIN BOND
M  V30 1 2 1 2
M  V30 2 1 2 3
M  V30 3 1 3 4
M  V30 4 1 4 5
M  V30 5 1 5 6
M  V30 6 1 2 7
M  V30 7 2 7 8
M  V30 8 1 8 9
M  V30 9 2 9 10
M  V30 10 1 10 11
M  V30 11 2 11 12
M  V30 12 1 11 13
M  V30 13 2 13 14
M  V30 14 1 14 15
M  V30 15 1 15 16
M  V30 16 2 16 17
M  V30 17 1 17 18
M  V30 18 2 18 19
M  V30 19 1 19 20
M  V30 20 1 20 21
M  V30 21 2 20 22
M  V30 22 1 14 23
M  V30 23 2 23 24
M  V30 24 1 24 25
M  V30 25 2 25 26
M  V30 26 1 26 27
M  V30 27 2 27 28
M  V30 28 1 12 7
M  V30 29 1 22 16
M  V30 30 1 28 23
M  V30 31 1 28 10
M  V30 32 1 4 29
M  V30 33 1 4 30
M  V30 34 1 5 31
M  V30 35 1 5 32
M  V30 36 1 8 33
M  V30 37 1 9 34
M  V30 38 1 12 35
M  V30 39 1 15 36
M  V30 40 1 17 37
M  V30 41 1 18 38
M  V30 42 1 19 39
M  V30 43 1 22 40
M  V30 44 1 24 41
M  V30 45 1 25 42
M  V30 46 1 27 43
M  V30 END BOND
M  V30 END CTAB
M  END
>  <Dataset>  (57) 
ChEMBL_Kinases

>  <Ligand_Instance>  (57) 
nan

>  <PDB_ID>  (57) 
nan

>  <Standardized_SMILES>  (57) 
O=C(OCCI)c1ccc2c(c1)nc(Nc1cccc(Cl)c1)c1ccncc12

>  <Name>  (57) 
nan

>  <Pocket>  (57) 
nan

>  <ATP_Site>  (57) 
nan

>  <Peripheral>  (57) 
nan

>  <Num_H_Atoms_ProtBoundConf>  (57) 
nan

>  <Num_Resolved_Atoms>  (57) 
nan

>  <Num_Not_Resolved_Atoms>  (57) 
nan

$$$$
CHEMBL484685
     RDKit          3D

  0  0  0  0  0  0  0  0  0  0999 V3000
M  V30 BEGIN CTAB
M  V30 COUNTS 49 54 0 0 0
M  V30 BEGIN ATOM
M  V30 1 C -0.804486 1.444176 -3.026914 0
M  V30 2 N -0.458254 0.529432 -1.956664 0
M  V30 3 C 0.717639 0.461536 -1.315910 0
M  V30 4 C 0.780945 -0.501928 -0.336083 0
M  V30 5 C 1.713544 -0.972548 0.643342 0
M  V30 6 C 2.467880 -0.407119 1.603909 0
M  V30 7 C 2.664172 0.955620 2.067019 0
M  V30 8 C 2.426246 1.309705 3.405803 0
M  V30 9 O 2.679237 2.564776 3.613115 0
M  V30 10 C 3.085984 3.133122 2.503914 0
M  V30 11 C 3.485166 4.401141 2.132484 0
M  V30 12 C 3.874752 4.674827 0.820522 0
M  V30 13 C 3.861056 3.651572 -0.129850 0
M  V30 14 F 4.245122 3.922280 -1.415672 0
M  V30 15 C 3.459953 2.390554 0.252653 0
M  V30 16 C 3.080052 2.147884 1.546903 0
M  V30 17 C 3.255227 -1.467558 2.273746 0
M  V30 18 O 4.091854 -1.364638 3.235307 0
M  V30 19 N 2.971524 -2.735481 1.697217 0
M  V30 20 C 2.018475 -2.424630 0.689224 0
M  V30 21 O 1.566638 -3.393084 -0.019356 0
M  V30 22 C -0.510439 -1.051151 -0.424731 0
M  V30 23 C -1.211051 -2.045604 0.225672 0
M  V30 24 C -2.507492 -2.384611 -0.063808 0
M  V30 25 C -3.205343 -3.429991 0.636647 0
M  V30 26 C -3.776168 -4.322194 1.221632 0
M  V30 27 C -4.460412 -5.423255 1.916143 0
M  V30 28 C -4.473820 -5.373635 3.460185 0
M  V30 29 C -5.692264 -5.117295 2.651886 0
M  V30 30 C -3.193720 -1.717867 -1.057704 0
M  V30 31 C -2.543365 -0.713022 -1.741342 0
M  V30 32 C -1.239017 -0.414537 -1.407622 0
M  V30 33 H -0.821512 0.857508 -3.976354 0
M  V30 34 H -1.834294 1.816926 -2.785217 0
M  V30 35 H -0.076937 2.247551 -3.133856 0
M  V30 36 H 1.523765 1.102325 -1.558924 0
M  V30 37 H 2.073086 0.661029 4.218947 0
M  V30 38 H 3.496103 5.193842 2.869274 0
M  V30 39 H 4.196100 5.671323 0.495814 0
M  V30 40 H 3.475014 1.609086 -0.488728 0
M  V30 41 H 3.380381 -3.654704 1.970099 0
M  V30 42 H -0.780251 -2.608622 1.009457 0
M  V30 43 H -4.246792 -6.431813 1.508475 0
M  V30 44 H -4.340835 -6.320007 4.015292 0
M  V30 45 H -3.926958 -4.496762 3.876885 0
M  V30 46 H -6.101143 -4.075150 2.592969 0
M  V30 47 H -6.503856 -5.875306 2.776368 0
M  V30 48 H -4.210977 -1.945186 -1.323671 0
M  V30 49 H -3.077628 -0.185969 -2.522898 0
M  V30 END ATOM
M  V30 BEGIN BOND
M  V30 1 1 1 2
M  V30 2 1 2 3
M  V30 3 2 3 4
M  V30 4 1 4 5
M  V30 5 2 5 6
M  V30 6 1 6 7
M  V30 7 2 7 8
M  V30 8 1 8 9
M  V30 9 1 9 10
M  V30 10 2 10 11
M  V30 11 1 11 12
M  V30 12 2 12 13
M  V30 13 1 13 14
M  V30 14 1 13 15
M  V30 15 2 15 16
M  V30 16 1 6 17
M  V30 17 2 17 18
M  V30 18 1 17 19
M  V30 19 1 19 20
M  V30 20 2 20 21
M  V30 21 1 4 22
M  V30 22 2 22 23
M  V30 23 1 23 24
M  V30 24 1 24 25
M  V30 25 3 25 26
M  V30 26 1 26 27
M  V30 27 1 27 28
M  V30 28 1 28 29
M  V30 29 2 24 30
M  V30 30 1 30 31
M  V30 31 2 31 32
M  V30 32 1 32 2
M  V30 33 1 20 5
M  V30 34 1 32 22
M  V30 35 1 16 7
M  V30 36 1 29 27
M  V30 37 1 16 10
M  V30 38 1 1 33
M  V30 39 1 1 34
M  V30 40 1 1 35
M  V30 41 1 3 36
M  V30 42 1 8 37
M  V30 43 1 11 38
M  V30 44 1 12 39
M  V30 45 1 15 40
M  V30 46 1 19 41
M  V30 47 1 23 42
M  V30 48 1 27 43
M  V30 49 1 28 44
M  V30 50 1 28 45
M  V30 51 1 29 46
M  V30 52 1 29 47
M  V30 53 1 30 48
M  V30 54 1 31 49
M  V30 END BOND
M  V30 END CTAB
M  END
>  <Dataset>  (58) 
ChEMBL_Kinases

>  <Ligand_Instance>  (58) 
nan

>  <PDB_ID>  (58) 
nan

>  <Standardized_SMILES>  (58) 
Cn1cc(C2=C(c3coc4ccc(F)cc34)C(=O)NC2=O)c2cc(C#CC3CC3)ccc21

>  <Name>  (58) 
nan

>  <Pocket>  (58) 
nan

>  <ATP_Site>  (58) 
nan

>  <Peripheral>  (58) 
nan

>  <Num_H_Atoms_ProtBoundConf>  (58) 
nan

>  <Num_Resolved_Atoms>  (58) 
nan

>  <Num_Not_Resolved_Atoms>  (58) 
nan

$$$$
CHEMBL4088706
     RDKit          3D

  0  0  0  0  0  0  0  0  0  0999 V3000
M  V30 BEGIN CTAB
M  V30 COUNTS 51 54 0 0 0
M  V30 BEGIN ATOM
M  V30 1 C -3.402097 -3.139745 3.612121 0
M  V30 2 N -2.109579 -3.032802 4.297737 0
M  V30 3 C -1.152066 -3.837322 3.581411 0
M  V30 4 N -0.343312 -3.425698 2.799677 0
M  V30 5 C 0.518095 -4.201885 2.148644 0
M  V30 6 C 1.513873 -3.693900 1.210844 0
M  V30 7 C 1.649159 -2.362425 0.923158 0
M  V30 8 C 2.571867 -1.829522 0.053251 0
M  V30 9 C 2.577128 -0.406955 -0.131710 0
M  V30 10 O 3.402356 -0.103594 0.785043 0
M  V30 11 N 2.204677 0.819345 -0.729205 0
M  V30 12 C 2.824735 2.012716 -0.164327 0
M  V30 13 C 1.816208 3.092501 0.152029 0
M  V30 14 N 0.481448 2.670795 -0.102949 0
M  V30 15 C -0.173483 1.969301 0.940637 0
M  V30 16 C -1.510868 1.509251 0.514947 0
M  V30 17 C -1.446259 0.215308 -0.013807 0
M  V30 18 C -2.563725 -0.463781 -0.497302 0
M  V30 19 C -3.757208 0.231092 -0.419317 0
M  V30 20 Cl -5.230751 -0.510381 -0.992320 0
M  V30 21 C -3.872759 1.515993 0.097395 0
M  V30 22 C -2.730090 2.135944 0.559563 0
M  V30 23 C 0.296524 2.221673 -1.434447 0
M  V30 24 C 1.297941 1.150789 -1.842269 0
M  V30 25 C 3.459872 -2.668854 -0.608689 0
M  V30 26 Cl 4.635524 -2.040877 -1.711804 0
M  V30 27 C 3.312943 -4.007558 -0.310422 0
M  V30 28 N 2.393116 -4.446726 0.543616 0
M  V30 29 C 0.450209 -5.627214 2.422097 0
M  V30 30 S -0.878916 -5.717422 3.620580 0
M  V30 31 H -3.307919 -3.060248 2.514231 0
M  V30 32 H -4.046435 -2.329979 4.048350 0
M  V30 33 H -3.893329 -4.135013 3.838908 0
M  V30 34 H -1.801699 -2.519428 5.138214 0
M  V30 35 H 0.957154 -1.701759 1.439535 0
M  V30 36 H 3.603291 2.391103 -0.883925 0
M  V30 37 H 3.416104 1.792644 0.760381 0
M  V30 38 H 1.986052 3.465208 1.186959 0
M  V30 39 H 2.041669 3.955481 -0.526851 0
M  V30 40 H -0.366625 2.711195 1.771325 0
M  V30 41 H 0.415674 1.161384 1.424177 0
M  V30 42 H -0.531014 -0.392937 -0.106320 0
M  V30 43 H -2.508169 -1.458157 -0.907923 0
M  V30 44 H -4.799875 2.061759 0.160611 0
M  V30 45 H -2.671964 3.123621 0.987157 0
M  V30 46 H 0.469348 3.128869 -2.095208 0
M  V30 47 H -0.732914 1.918782 -1.632656 0
M  V30 48 H 1.963961 1.548866 -2.639619 0
M  V30 49 H 0.762684 0.266876 -2.228182 0
M  V30 50 H 3.980659 -4.728499 -0.796548 0
M  V30 51 H 1.076488 -6.354522 1.967861 0
M  V30 END ATOM
M  V30 BEGIN BOND
M  V30 1 1 1 2
M  V30 2 1 2 3
M  V30 3 2 3 4
M  V30 4 1 4 5
M  V30 5 1 5 6
M  V30 6 2 6 7
M  V30 7 1 7 8
M  V30 8 1 8 9
M  V30 9 2 9 10
M  V30 10 1 9 11
M  V30 11 1 11 12
M  V30 12 1 12 13
M  V30 13 1 13 14
M  V30 14 1 14 15
M  V30 15 1 15 16
M  V30 16 2 16 17
M  V30 17 1 17 18
M  V30 18 2 18 19
M  V30 19 1 19 20
M  V30 20 1 19 21
M  V30 21 2 21 22
M  V30 22 1 14 23
M  V30 23 1 23 24
M  V30 24 2 8 25
M  V30 25 1 25 26
M  V30 26 1 25 27
M  V30 27 2 27 28
M  V30 28 2 5 29
M  V30 29 1 29 30
M  V30 30 1 30 3
M  V30 31 1 28 6
M  V30 32 1 24 11
M  V30 33 1 22 16
M  V30 34 1 1 31
M  V30 35 1 1 32
M  V30 36 1 1 33
M  V30 37 1 2 34
M  V30 38 1 7 35
M  V30 39 1 12 36
M  V30 40 1 12 37
M  V30 41 1 13 38
M  V30 42 1 13 39
M  V30 43 1 15 40
M  V30 44 1 15 41
M  V30 45 1 17 42
M  V30 46 1 18 43
M  V30 47 1 21 44
M  V30 48 1 22 45
M  V30 49 1 23 46
M  V30 50 1 23 47
M  V30 51 1 24 48
M  V30 52 1 24 49
M  V30 53 1 27 50
M  V30 54 1 29 51
M  V30 END BOND
M  V30 END CTAB
M  END
>  <Dataset>  (59) 
ChEMBL_Kinases

>  <Ligand_Instance>  (59) 
nan

>  <PDB_ID>  (59) 
nan

>  <Standardized_SMILES>  (59) 
CNc1nc(-c2cc(C(=O)N3CCN(Cc4ccc(Cl)cc4)CC3)c(Cl)cn2)cs1

>  <Name>  (59) 
nan

>  <Pocket>  (59) 
nan

>  <ATP_Site>  (59) 
nan

>  <Peripheral>  (59) 
nan

>  <Num_H_Atoms_ProtBoundConf>  (59) 
nan

>  <Num_Resolved_Atoms>  (59) 
nan

>  <Num_Not_Resolved_Atoms>  (59) 
nan

$$$$
CHEMBL4846889
     RDKit          3D

  0  0  0  0  0  0  0  0  0  0999 V3000
M  V30 BEGIN CTAB
M  V30 COUNTS 47 50 0 0 0
M  V30 BEGIN ATOM
M  V30 1 C -0.337527 -4.688345 3.670358 0
M  V30 2 O -0.152385 -4.059920 2.415810 0
M  V30 3 C 1.068413 -3.725686 1.895799 0
M  V30 4 C 2.298504 -3.938789 2.490852 0
M  V30 5 C 3.433130 -3.536843 1.821754 0
M  V30 6 C 3.432260 -2.928010 0.582622 0
M  V30 7 C 2.193833 -2.709147 -0.025268 0
M  V30 8 C 2.101886 -2.062381 -1.354244 0
M  V30 9 N 1.994063 -0.613876 -1.104150 0
M  V30 10 C 3.177941 0.158615 -1.023606 0
M  V30 11 C 3.321517 1.103875 0.102925 0
M  V30 12 O 2.359126 2.086766 0.252297 0
M  V30 13 C 0.957169 1.990685 0.394787 0
M  V30 14 C 0.354858 2.998860 1.143362 0
M  V30 15 C -1.012722 2.956426 1.315910 0
M  V30 16 C -1.770677 1.940492 0.761549 0
M  V30 17 C -3.225099 1.932771 0.969191 0
M  V30 18 C -3.874098 0.694566 1.022370 0
M  V30 19 C -5.256443 0.598820 1.216795 0
M  V30 20 N -5.976988 1.737317 1.356127 0
M  V30 21 C -5.346617 2.937867 1.304423 0
M  V30 22 C -3.991601 3.085209 1.115508 0
M  V30 23 C -1.204533 0.925751 0.013966 0
M  V30 24 C 0.179773 0.979026 -0.153931 0
M  V30 25 C 0.627616 -0.166155 -0.970134 0
M  V30 26 O -0.240408 -0.819915 -1.610669 0
M  V30 27 C 1.039763 -3.111335 0.641796 0
M  V30 28 H 0.312459 -5.550400 3.847374 0
M  V30 29 H -0.126708 -3.949167 4.472243 0
M  V30 30 H -1.409710 -5.011675 3.716521 0
M  V30 31 H 2.283891 -4.412540 3.452702 0
M  V30 32 H 4.396393 -3.712904 2.306408 0
M  V30 33 H 4.355970 -2.632786 0.102882 0
M  V30 34 H 1.176439 -2.423275 -1.855916 0
M  V30 35 H 2.948130 -2.301261 -2.018976 0
M  V30 36 H 4.044000 -0.536231 -1.031305 0
M  V30 37 H 3.281638 0.728964 -1.992978 0
M  V30 38 H 3.384624 0.535626 1.059102 0
M  V30 39 H 4.299436 1.626024 0.037073 0
M  V30 40 H 1.007206 3.760809 1.546658 0
M  V30 41 H -1.487275 3.738818 1.897889 0
M  V30 42 H -3.258653 -0.210762 0.905666 0
M  V30 43 H -5.652411 -0.411358 1.241087 0
M  V30 44 H -5.967377 3.825534 1.421746 0
M  V30 45 H -3.494222 4.032940 1.074502 0
M  V30 46 H -1.757636 0.113171 -0.437419 0
M  V30 47 H 0.103140 -2.920445 0.130138 0
M  V30 END ATOM
M  V30 BEGIN BOND
M  V30 1 1 1 2
M  V30 2 1 2 3
M  V30 3 2 3 4
M  V30 4 1 4 5
M  V30 5 2 5 6
M  V30 6 1 6 7
M  V30 7 1 7 8
M  V30 8 1 8 9
M  V30 9 1 9 10
M  V30 10 1 10 11
M  V30 11 1 11 12
M  V30 12 1 12 13
M  V30 13 2 13 14
M  V30 14 1 14 15
M  V30 15 2 15 16
M  V30 16 1 16 17
M  V30 17 2 17 18
M  V30 18 1 18 19
M  V30 19 2 19 20
M  V30 20 1 20 21
M  V30 21 2 21 22
M  V30 22 1 16 23
M  V30 23 2 23 24
M  V30 24 1 24 25
M  V30 25 2 25 26
M  V30 26 2 7 27
M  V30 27 1 27 3
M  V30 28 1 25 9
M  V30 29 1 24 13
M  V30 30 1 22 17
M  V30 31 1 1 28
M  V30 32 1 1 29
M  V30 33 1 1 30
M  V30 34 1 4 31
M  V30 35 1 5 32
M  V30 36 1 6 33
M  V30 37 1 8 34
M  V30 38 1 8 35
M  V30 39 1 10 36
M  V30 40 1 10 37
M  V30 41 1 11 38
M  V30 42 1 11 39
M  V30 43 1 14 40
M  V30 44 1 15 41
M  V30 45 1 18 42
M  V30 46 1 19 43
M  V30 47 1 21 44
M  V30 48 1 22 45
M  V30 49 1 23 46
M  V30 50 1 27 47
M  V30 END BOND
M  V30 END CTAB
M  END
>  <Dataset>  (60) 
ChEMBL_Kinases

>  <Ligand_Instance>  (60) 
nan

>  <PDB_ID>  (60) 
nan

>  <Standardized_SMILES>  (60) 
COc1cccc(CN2CCOc3ccc(-c4ccncc4)cc3C2=O)c1

>  <Name>  (60) 
nan

>  <Pocket>  (60) 
nan

>  <ATP_Site>  (60) 
nan

>  <Peripheral>  (60) 
nan

>  <Num_H_Atoms_ProtBoundConf>  (60) 
nan

>  <Num_Resolved_Atoms>  (60) 
nan

>  <Num_Not_Resolved_Atoms>  (60) 
nan

$$$$
CHEMBL4846965
     RDKit          3D

  0  0  0  0  0  0  0  0  0  0999 V3000
M  V30 BEGIN CTAB
M  V30 COUNTS 43 46 0 0 0
M  V30 BEGIN ATOM
M  V30 1 C 1.597010 -2.475394 -1.141831 0
M  V30 2 C 2.660648 -1.833500 -1.991149 0
M  V30 3 C 2.074651 -0.708421 -2.800651 0
M  V30 4 N 3.768850 -1.392951 -1.141753 0
M  V30 5 C 4.867255 -2.104237 -0.882109 0
M  V30 6 N 5.721645 -1.456137 -0.081032 0
M  V30 7 N 5.138643 -0.284137 0.177301 0
M  V30 8 C 3.929474 -0.220356 -0.466112 0
M  V30 9 C 2.991690 0.895012 -0.431573 0
M  V30 10 C 3.212567 2.123667 -1.072247 0
M  V30 11 C 2.241449 3.090196 -0.946234 0
M  V30 12 C 1.052393 2.927714 -0.223003 0
M  V30 13 C 0.917836 1.697585 0.371300 0
M  V30 14 N -0.270522 1.520078 1.098556 0
M  V30 15 C -0.825975 0.542367 1.806684 0
M  V30 16 O 0.193887 -0.271089 1.578445 0
M  V30 17 C -1.590311 -0.373797 2.603895 0
M  V30 18 C -1.569287 -1.641376 3.082088 0
M  V30 19 C -2.773021 -1.706295 3.805997 0
M  V30 20 C -3.209185 -2.821067 4.491034 0
M  V30 21 C -4.414115 -2.720806 5.152809 0
M  V30 22 C -5.161556 -1.555596 5.136506 0
M  V30 23 C -4.648296 -0.491743 4.425976 0
M  V30 24 C -3.452376 -0.510623 3.737878 0
M  V30 25 O -2.692601 0.247348 3.003562 0
M  V30 26 N 1.850758 0.765604 0.251713 0
M  V30 27 H 0.664450 -2.650499 -1.708529 0
M  V30 28 H 1.993518 -3.487625 -0.861137 0
M  V30 29 H 1.460008 -1.953695 -0.178774 0
M  V30 30 H 3.039137 -2.640536 -2.663913 0
M  V30 31 H 2.917182 0.009131 -3.027825 0
M  V30 32 H 1.220551 -0.196681 -2.334520 0
M  V30 33 H 1.760095 -1.057018 -3.821063 0
M  V30 34 H 5.044545 -3.092879 -1.278788 0
M  V30 35 H 4.113846 2.250043 -1.623767 0
M  V30 36 H 2.375544 4.065071 -1.433072 0
M  V30 37 H 0.299792 3.699124 -0.136310 0
M  V30 38 H -1.082116 2.173216 1.278211 0
M  V30 39 H -0.763034 -2.317217 2.873731 0
M  V30 40 H -2.642222 -3.751638 4.522664 0
M  V30 41 H -4.737949 -3.621624 5.690243 0
M  V30 42 H -6.102084 -1.506208 5.665223 0
M  V30 43 H -5.197808 0.457607 4.380365 0
M  V30 END ATOM
M  V30 BEGIN BOND
M  V30 1 1 1 2
M  V30 2 1 2 3
M  V30 3 1 2 4
M  V30 4 1 4 5
M  V30 5 2 5 6
M  V30 6 1 6 7
M  V30 7 2 7 8
M  V30 8 1 8 9
M  V30 9 2 9 10
M  V30 10 1 10 11
M  V30 11 2 11 12
M  V30 12 1 12 13
M  V30 13 1 13 14
M  V30 14 1 14 15
M  V30 15 2 15 16
M  V30 16 1 15 17
M  V30 17 2 17 18
M  V30 18 1 18 19
M  V30 19 2 19 20
M  V30 20 1 20 21
M  V30 21 2 21 22
M  V30 22 1 22 23
M  V30 23 2 23 24
M  V30 24 1 24 25
M  V30 25 2 13 26
M  V30 26 1 8 4
M  V30 27 1 26 9
M  V30 28 1 25 17
M  V30 29 1 24 19
M  V30 30 1 1 27
M  V30 31 1 1 28
M  V30 32 1 1 29
M  V30 33 1 2 30
M  V30 34 1 3 31
M  V30 35 1 3 32
M  V30 36 1 3 33
M  V30 37 1 5 34
M  V30 38 1 10 35
M  V30 39 1 11 36
M  V30 40 1 12 37
M  V30 41 1 14 38
M  V30 42 1 18 39
M  V30 43 1 20 40
M  V30 44 1 21 41
M  V30 45 1 22 42
M  V30 46 1 23 43
M  V30 END BOND
M  V30 END CTAB
M  END
>  <Dataset>  (61) 
ChEMBL_Kinases

>  <Ligand_Instance>  (61) 
nan

>  <PDB_ID>  (61) 
nan

>  <Standardized_SMILES>  (61) 
CC(C)n1cnnc1-c1cccc(NC(=O)c2cc3ccccc3o2)n1

>  <Name>  (61) 
nan

>  <Pocket>  (61) 
nan

>  <ATP_Site>  (61) 
nan

>  <Peripheral>  (61) 
nan

>  <Num_H_Atoms_ProtBoundConf>  (61) 
nan

>  <Num_Resolved_Atoms>  (61) 
nan

>  <Num_Not_Resolved_Atoms>  (61) 
nan

$$$$
CHEMBL4088576
     RDKit          3D

  0  0  0  0  0  0  0  0  0  0999 V3000
M  V30 BEGIN CTAB
M  V30 COUNTS 39 41 0 0 0
M  V30 BEGIN ATOM
M  V30 1 O -1.005239 -1.985808 2.406722 0
M  V30 2 C -0.262132 -1.325016 1.563706 0
M  V30 3 C 0.584467 -2.260566 0.803664 0
M  V30 4 O 1.436198 -1.897358 -0.117272 0
M  V30 5 C 2.281919 -1.583884 -1.026038 0
M  V30 6 C 2.859960 -2.788960 -1.484619 0
M  V30 7 C 3.835444 -2.878088 -2.482068 0
M  V30 8 C 4.235617 -1.669299 -3.033585 0
M  V30 9 C 3.707322 -0.474921 -2.625115 0
M  V30 10 C 4.043385 0.771762 -3.109986 0
M  V30 11 C 3.493317 1.938161 -2.671537 0
M  V30 12 C 2.521359 1.923058 -1.667246 0
M  V30 13 C 2.168046 0.691682 -1.166397 0
M  V30 14 C 2.752195 -0.452267 -1.641567 0
M  V30 15 N -0.694338 -0.002741 1.851559 0
M  V30 16 C -1.688832 0.018825 2.874371 0
M  V30 17 C -1.137118 0.124612 4.155603 0
M  V30 18 C -1.927381 0.162960 5.289930 0
M  V30 19 C -3.284524 0.089115 5.051410 0
M  V30 20 C -3.877477 -0.015816 3.813313 0
M  V30 21 C -5.320142 -0.089689 3.614569 0
M  V30 22 O -5.823810 -0.185312 2.464964 0
M  V30 23 O -6.128448 -0.049806 4.763322 0
M  V30 24 C -3.057471 -0.051418 2.703596 0
M  V30 25 H -0.193302 -3.004050 0.352663 0
M  V30 26 H 1.033340 -2.981715 1.597462 0
M  V30 27 H 2.670450 -3.834173 -1.168312 0
M  V30 28 H 4.328046 -3.739013 -2.893043 0
M  V30 29 H 4.975406 -1.574337 -3.810684 0
M  V30 30 H 4.806564 0.810175 -3.900960 0
M  V30 31 H 3.826758 2.862028 -3.117806 0
M  V30 32 H 2.125966 2.882535 -1.364894 0
M  V30 33 H 1.435509 0.674110 -0.407845 0
M  V30 34 H -0.126598 0.590188 1.196415 0
M  V30 35 H -0.064808 0.183606 4.345493 0
M  V30 36 H -1.525791 0.244023 6.291975 0
M  V30 37 H -3.926028 0.118031 5.945266 0
M  V30 38 H -7.098435 0.249830 4.671113 0
M  V30 39 H -3.392430 -0.131266 1.677970 0
M  V30 END ATOM
M  V30 BEGIN BOND
M  V30 1 2 1 2
M  V30 2 1 2 3
M  V30 3 1 3 4
M  V30 4 1 4 5
M  V30 5 2 5 6
M  V30 6 1 6 7
M  V30 7 2 7 8
M  V30 8 1 8 9
M  V30 9 2 9 10
M  V30 10 1 10 11
M  V30 11 2 11 12
M  V30 12 1 12 13
M  V30 13 2 13 14
M  V30 14 1 2 15
M  V30 15 1 15 16
M  V30 16 2 16 17
M  V30 17 1 17 18
M  V30 18 2 18 19
M  V30 19 1 19 20
M  V30 20 1 20 21
M  V30 21 2 21 22
M  V30 22 1 21 23
M  V30 23 2 20 24
M  V30 24 1 14 5
M  V30 25 1 24 16
M  V30 26 1 14 9
M  V30 27 1 3 25
M  V30 28 1 3 26
M  V30 29 1 6 27
M  V30 30 1 7 28
M  V30 31 1 8 29
M  V30 32 1 10 30
M  V30 33 1 11 31
M  V30 34 1 12 32
M  V30 35 1 13 33
M  V30 36 1 15 34
M  V30 37 1 17 35
M  V30 38 1 18 36
M  V30 39 1 19 37
M  V30 40 1 23 38
M  V30 41 1 24 39
M  V30 END BOND
M  V30 END CTAB
M  END
>  <Dataset>  (62) 
ChEMBL_Kinases

>  <Ligand_Instance>  (62) 
nan

>  <PDB_ID>  (62) 
nan

>  <Standardized_SMILES>  (62) 
O=C(COc1cccc2ccccc12)Nc1cccc(C(=O)O)c1

>  <Name>  (62) 
nan

>  <Pocket>  (62) 
nan

>  <ATP_Site>  (62) 
nan

>  <Peripheral>  (62) 
nan

>  <Num_H_Atoms_ProtBoundConf>  (62) 
nan

>  <Num_Resolved_Atoms>  (62) 
nan

>  <Num_Not_Resolved_Atoms>  (62) 
nan

$$$$
CHEMBL4088537
     RDKit          3D

  0  0  0  0  0  0  0  0  0  0999 V3000
M  V30 BEGIN CTAB
M  V30 COUNTS 27 30 0 0 0
M  V30 BEGIN ATOM
M  V30 1 O -1.101225 -2.098595 2.688587 0
M  V30 2 C -0.209707 -1.346978 2.260832 0
M  V30 3 N 0.884156 -0.931773 3.094723 0
M  V30 4 C 1.707597 -0.079235 2.266609 0
M  V30 5 C 2.882760 0.526281 2.726198 0
M  V30 6 C 3.548007 1.309049 1.800153 0
M  V30 7 C 2.987816 1.413257 0.521361 0
M  V30 8 S 3.651508 2.377850 -0.895391 0
M  V30 9 C 2.160745 1.781634 -1.939412 0
M  V30 10 N 1.579770 1.123048 -1.201348 0
M  V30 11 C 1.856480 0.838410 0.057182 0
M  V30 12 C 1.188881 0.049356 0.996702 0
M  V30 13 C -0.048650 -0.755279 0.955280 0
M  V30 14 C -0.867934 -0.894898 -0.085325 0
M  V30 15 C -2.087742 -1.692787 -0.030909 0
M  V30 16 C -3.133404 -1.677760 0.859681 0
M  V30 17 N -3.994601 -2.661231 0.465297 0
M  V30 18 C -3.473598 -3.237962 -0.625395 0
M  V30 19 N -2.316602 -2.675032 -0.955813 0
M  V30 20 H 1.032763 -1.206264 4.099704 0
M  V30 21 H 3.294774 0.439950 3.695411 0
M  V30 22 H 4.462242 1.859446 1.948116 0
M  V30 23 H 1.655174 1.875181 -3.090187 0
M  V30 24 H -0.624653 -0.387279 -1.031422 0
M  V30 25 H -3.285407 -1.016768 1.706520 0
M  V30 26 H -4.084536 -4.040409 -1.025672 0
M  V30 27 H -1.818953 -3.035574 -1.783247 0
M  V30 END ATOM
M  V30 BEGIN BOND
M  V30 1 2 1 2
M  V30 2 1 2 3
M  V30 3 1 3 4
M  V30 4 2 4 5
M  V30 5 1 5 6
M  V30 6 2 6 7
M  V30 7 1 7 8
M  V30 8 1 8 9
M  V30 9 2 9 10
M  V30 10 1 10 11
M  V30 11 2 11 12
M  V30 12 1 12 13
M  V30 13 2 13 14
M  V30 14 1 14 15
M  V30 15 2 15 16
M  V30 16 1 16 17
M  V30 17 2 17 18
M  V30 18 1 18 19
M  V30 19 1 13 2
M  V30 20 1 19 15
M  V30 21 1 12 4
M  V30 22 1 11 7
M  V30 23 1 3 20
M  V30 24 1 5 21
M  V30 25 1 6 22
M  V30 26 1 9 23
M  V30 27 1 14 24
M  V30 28 1 16 25
M  V30 29 1 18 26
M  V30 30 1 19 27
M  V30 END BOND
M  V30 END CTAB
M  END
>  <Dataset>  (63) 
ChEMBL_Kinases

>  <Ligand_Instance>  (63) 
nan

>  <PDB_ID>  (63) 
nan

>  <Standardized_SMILES>  (63) 
O=C1Nc2ccc3scnc3c2/C1=C/c1cnc[nH]1

>  <Name>  (63) 
nan

>  <Pocket>  (63) 
nan

>  <ATP_Site>  (63) 
nan

>  <Peripheral>  (63) 
nan

>  <Num_H_Atoms_ProtBoundConf>  (63) 
nan

>  <Num_Resolved_Atoms>  (63) 
nan

>  <Num_Not_Resolved_Atoms>  (63) 
nan

$$$$
CHEMBL4088519
     RDKit          3D

  0  0  0  0  0  0  0  0  0  0999 V3000
M  V30 BEGIN CTAB
M  V30 COUNTS 42 45 0 0 0
M  V30 BEGIN ATOM
M  V30 1 C 2.442519 -2.621091 2.000156 0
M  V30 2 C 3.653743 -1.776881 1.868636 0
M  V30 3 C 4.842530 -2.213433 2.474694 0
M  V30 4 C 6.040692 -1.540415 2.432429 0
M  V30 5 C 6.106105 -0.342317 1.749026 0
M  V30 6 C 4.936698 0.094977 1.148549 0
M  V30 7 C 3.734015 -0.575920 1.188095 0
M  V30 8 C 2.545251 -0.066887 0.528082 0
M  V30 9 C 2.573792 1.115928 -0.172419 0
M  V30 10 C 1.464614 1.629700 -0.821238 0
M  V30 11 N 1.235873 2.757699 -1.561848 0
M  V30 12 C -0.041734 2.786557 -1.970502 0
M  V30 13 C -0.670359 1.658900 -1.491521 0
M  V30 14 N 0.284478 0.973633 -0.792229 0
M  V30 15 C 0.246829 -0.193370 -0.104768 0
M  V30 16 N -0.978932 -0.944297 -0.053573 0
M  V30 17 C -2.147161 -0.610852 0.668581 0
M  V30 18 N -2.038486 0.514886 1.392054 0
M  V30 19 C -3.071026 0.967544 2.152380 0
M  V30 20 C -4.260797 0.243056 2.175291 0
M  V30 21 C -4.386910 -0.917965 1.434816 0
M  V30 22 C -3.315283 -1.334132 0.682128 0
M  V30 23 C -3.414761 -2.541417 -0.109233 0
M  V30 24 N -4.543676 -3.376508 -0.215502 0
M  V30 25 O -2.554809 -3.083536 -0.842910 0
M  V30 26 N 1.348227 -0.652399 0.509994 0
M  V30 27 H 2.207595 -3.128829 1.044092 0
M  V30 28 H 2.669917 -3.457046 2.719968 0
M  V30 29 H 1.540627 -2.069040 2.331831 0
M  V30 30 H 4.836760 -3.160815 3.029214 0
M  V30 31 H 6.910694 -1.949876 2.927818 0
M  V30 32 H 7.025392 0.189897 1.705284 0
M  V30 33 H 5.061859 1.036363 0.633409 0
M  V30 34 H 3.433499 1.737611 -0.279607 0
M  V30 35 H -0.550740 3.527137 -2.563457 0
M  V30 36 H -1.702881 1.393931 -1.646759 0
M  V30 37 H -0.714149 -1.733843 -0.679303 0
M  V30 38 H -2.964193 1.891759 2.740000 0
M  V30 39 H -5.071776 0.606611 2.777031 0
M  V30 40 H -5.302125 -1.492993 1.438464 0
M  V30 41 H -5.098460 -3.211391 -1.091483 0
M  V30 42 H -4.448558 -3.923480 0.676040 0
M  V30 END ATOM
M  V30 BEGIN BOND
M  V30 1 1 1 2
M  V30 2 2 2 3
M  V30 3 1 3 4
M  V30 4 2 4 5
M  V30 5 1 5 6
M  V30 6 2 6 7
M  V30 7 1 7 8
M  V30 8 2 8 9
M  V30 9 1 9 10
M  V30 10 2 10 11
M  V30 11 1 11 12
M  V30 12 2 12 13
M  V30 13 1 13 14
M  V30 14 1 14 15
M  V30 15 1 15 16
M  V30 16 1 16 17
M  V30 17 2 17 18
M  V30 18 1 18 19
M  V30 19 2 19 20
M  V30 20 1 20 21
M  V30 21 2 21 22
M  V30 22 1 22 23
M  V30 23 1 23 24
M  V30 24 2 23 25
M  V30 25 2 15 26
M  V30 26 1 7 2
M  V30 27 1 26 8
M  V30 28 1 14 10
M  V30 29 1 22 17
M  V30 30 1 1 27
M  V30 31 1 1 28
M  V30 32 1 1 29
M  V30 33 1 3 30
M  V30 34 1 4 31
M  V30 35 1 5 32
M  V30 36 1 6 33
M  V30 37 1 9 34
M  V30 38 1 12 35
M  V30 39 1 13 36
M  V30 40 1 16 37
M  V30 41 1 19 38
M  V30 42 1 20 39
M  V30 43 1 21 40
M  V30 44 1 24 41
M  V30 45 1 24 42
M  V30 END BOND
M  V30 END CTAB
M  END
>  <Dataset>  (64) 
ChEMBL_Kinases

>  <Ligand_Instance>  (64) 
nan

>  <PDB_ID>  (64) 
nan

>  <Standardized_SMILES>  (64) 
Cc1ccccc1-c1cc2nccn2c(Nc2ncccc2C(N)=O)n1

>  <Name>  (64) 
nan

>  <Pocket>  (64) 
nan

>  <ATP_Site>  (64) 
nan

>  <Peripheral>  (64) 
nan

>  <Num_H_Atoms_ProtBoundConf>  (64) 
nan

>  <Num_Resolved_Atoms>  (64) 
nan

>  <Num_Not_Resolved_Atoms>  (64) 
nan

$$$$
CHEMBL4846978
     RDKit          3D

  0  0  0  0  0  0  0  0  0  0999 V3000
M  V30 BEGIN CTAB
M  V30 COUNTS 51 54 0 0 0
M  V30 BEGIN ATOM
M  V30 1 C 0.867992 -3.739680 4.580197 0
M  V30 2 C 1.990416 -2.905615 4.037109 0
M  V30 3 C 2.184556 -1.625486 4.817339 0
M  V30 4 C 1.988084 -2.689251 2.559792 0
M  V30 5 O 3.130417 -1.896683 2.264597 0
M  V30 6 C 3.127531 -0.686676 1.615936 0
M  V30 7 O 4.243836 -0.118165 1.510547 0
M  V30 8 N 1.952458 -0.119192 1.102257 0
M  V30 9 C 2.067389 1.147436 0.449814 0
M  V30 10 C 1.223533 2.233424 1.062328 0
M  V30 11 C 1.303868 3.339744 0.038863 0
M  V30 12 C 1.339192 2.625799 -1.270964 0
M  V30 13 C 1.594901 1.156442 -0.985507 0
M  V30 14 C 0.754302 -0.860011 1.287482 0
M  V30 15 N -0.378670 -0.350210 0.772285 0
M  V30 16 C -1.556343 -0.989569 0.866065 0
M  V30 17 N -2.648618 -0.312091 0.263678 0
M  V30 18 C -3.049545 -0.602833 -1.072335 0
M  V30 19 C -4.053248 0.105737 -1.696054 0
M  V30 20 C -4.432005 -0.195316 -2.987426 0
M  V30 21 C -3.840011 -1.195195 -3.699834 0
M  V30 22 O -4.144787 -1.583347 -5.009332 0
M  V30 23 C -2.816311 -1.945836 -3.115441 0
M  V30 24 F -2.189923 -2.953199 -3.768433 0
M  V30 25 C -2.465622 -1.609505 -1.813810 0
M  V30 26 N -1.562718 -2.190793 1.510863 0
M  V30 27 C -0.404203 -2.690017 2.026298 0
M  V30 28 C 0.825601 -2.075112 1.957828 0
M  V30 29 H -0.083840 -3.211494 4.730874 0
M  V30 30 H 0.785155 -4.694599 4.002480 0
M  V30 31 H 1.116172 -4.119116 5.625225 0
M  V30 32 H 2.926977 -3.512144 4.231359 0
M  V30 33 H 1.340017 -1.437370 5.543790 0
M  V30 34 H 2.348807 -0.756504 4.135188 0
M  V30 35 H 3.091102 -1.651674 5.481940 0
M  V30 36 H 2.213280 -3.684075 2.098863 0
M  V30 37 H 3.127092 1.482224 0.474686 0
M  V30 38 H 0.165610 1.932361 1.180596 0
M  V30 39 H 1.651873 2.633329 2.001462 0
M  V30 40 H 2.223345 3.963932 0.198553 0
M  V30 41 H 0.423726 4.025856 0.127651 0
M  V30 42 H 0.384830 2.791799 -1.786492 0
M  V30 43 H 2.144275 3.067494 -1.897355 0
M  V30 44 H 2.377030 0.825894 -1.702373 0
M  V30 45 H 0.649257 0.636158 -1.093776 0
M  V30 46 H -3.178669 0.412931 0.789171 0
M  V30 47 H -4.556837 0.906920 -1.183960 0
M  V30 48 H -5.221594 0.339405 -3.524216 0
M  V30 49 H -4.434582 -2.550054 -5.155809 0
M  V30 50 H -1.664179 -2.181136 -1.324911 0
M  V30 51 H -0.633216 -3.621644 2.467574 0
M  V30 END ATOM
M  V30 BEGIN BOND
M  V30 1 1 1 2
M  V30 2 1 2 3
M  V30 3 1 2 4
M  V30 4 1 4 5
M  V30 5 1 5 6
M  V30 6 2 6 7
M  V30 7 1 6 8
M  V30 8 1 8 9
M  V30 9 1 9 10
M  V30 10 1 10 11
M  V30 11 1 11 12
M  V30 12 1 12 13
M  V30 13 1 8 14
M  V30 14 2 14 15
M  V30 15 1 15 16
M  V30 16 1 16 17
M  V30 17 1 17 18
M  V30 18 2 18 19
M  V30 19 1 19 20
M  V30 20 2 20 21
M  V30 21 1 21 22
M  V30 22 1 21 23
M  V30 23 1 23 24
M  V30 24 2 23 25
M  V30 25 2 16 26
M  V30 26 1 26 27
M  V30 27 2 27 28
M  V30 28 1 28 4
M  V30 29 1 13 9
M  V30 30 1 28 14
M  V30 31 1 25 18
M  V30 32 1 1 29
M  V30 33 1 1 30
M  V30 34 1 1 31
M  V30 35 1 2 32
M  V30 36 1 3 33
M  V30 37 1 3 34
M  V30 38 1 3 35
M  V30 39 1 4 36
M  V30 40 1 9 37
M  V30 41 1 10 38
M  V30 42 1 10 39
M  V30 43 1 11 40
M  V30 44 1 11 41
M  V30 45 1 12 42
M  V30 46 1 12 43
M  V30 47 1 13 44
M  V30 48 1 13 45
M  V30 49 1 17 46
M  V30 50 1 19 47
M  V30 51 1 20 48
M  V30 52 1 22 49
M  V30 53 1 25 50
M  V30 54 1 27 51
M  V30 END BOND
M  V30 END CTAB
M  END
>  <Dataset>  (65) 
ChEMBL_Kinases

>  <Ligand_Instance>  (65) 
nan

>  <PDB_ID>  (65) 
nan

>  <Standardized_SMILES>  (65) 
CC(C)C1OC(=O)N(C2CCCC2)c2nc(Nc3ccc(O)c(F)c3)ncc21

>  <Name>  (65) 
nan

>  <Pocket>  (65) 
nan

>  <ATP_Site>  (65) 
nan

>  <Peripheral>  (65) 
nan

>  <Num_H_Atoms_ProtBoundConf>  (65) 
nan

>  <Num_Resolved_Atoms>  (65) 
nan

>  <Num_Not_Resolved_Atoms>  (65) 
nan

$$$$
CHEMBL4088484
     RDKit          3D

  0  0  0  0  0  0  0  0  0  0999 V3000
M  V30 BEGIN CTAB
M  V30 COUNTS 30 32 0 0 0
M  V30 BEGIN ATOM
M  V30 1 N -1.130172 -2.771340 2.705926 0
M  V30 2 C -0.615588 -1.823601 3.127353 0
M  V30 3 C 0.006252 -0.653122 3.668878 0
M  V30 4 C -0.065040 -0.337611 5.014320 0
M  V30 5 N 0.591635 0.819740 5.219360 0
M  V30 6 C 1.088414 1.268555 4.051780 0
M  V30 7 N 1.799872 2.353943 3.670295 0
M  V30 8 C 2.135243 2.511364 2.357006 0
M  V30 9 N 1.767002 1.600240 1.441733 0
M  V30 10 C 1.048963 0.483966 1.766345 0
M  V30 11 C 0.740096 -0.380561 0.640662 0
M  V30 12 C 0.140055 0.305510 -0.425161 0
M  V30 13 C -0.227626 -0.279677 -1.619113 0
M  V30 14 C 0.002174 -1.626532 -1.794134 0
M  V30 15 S -0.401081 -2.525525 -3.240494 0
M  V30 16 N -1.990628 -3.179379 -3.166676 0
M  V30 17 O -0.290632 -1.636524 -4.464245 0
M  V30 18 O 0.585461 -3.633990 -3.409127 0
M  V30 19 C 0.591283 -2.329814 -0.764969 0
M  V30 20 C 0.949245 -1.723619 0.416038 0
M  V30 21 C 0.728817 0.357070 3.084752 0
M  V30 22 H -0.543904 -0.880879 5.797022 0
M  V30 23 H 0.723467 1.329103 6.119161 0
M  V30 24 H 2.704289 3.388767 2.077264 0
M  V30 25 H -0.088794 1.370591 -0.399512 0
M  V30 26 H -0.685942 0.249977 -2.430089 0
M  V30 27 H -1.998568 -4.111242 -3.638356 0
M  V30 28 H -2.620377 -2.541795 -3.702517 0
M  V30 29 H 0.832064 -3.398595 -0.764387 0
M  V30 30 H 1.426894 -2.222160 1.243790 0
M  V30 END ATOM
M  V30 BEGIN BOND
M  V30 1 3 1 2
M  V30 2 1 2 3
M  V30 3 2 3 4
M  V30 4 1 4 5
M  V30 5 1 5 6
M  V30 6 2 6 7
M  V30 7 1 7 8
M  V30 8 2 8 9
M  V30 9 1 9 10
M  V30 10 1 10 11
M  V30 11 2 11 12
M  V30 12 1 12 13
M  V30 13 2 13 14
M  V30 14 1 14 15
M  V30 15 1 15 16
M  V30 16 2 15 17
M  V30 17 2 15 18
M  V30 18 1 14 19
M  V30 19 2 19 20
M  V30 20 2 10 21
M  V30 21 1 21 3
M  V30 22 1 21 6
M  V30 23 1 20 11
M  V30 24 1 4 22
M  V30 25 1 5 23
M  V30 26 1 8 24
M  V30 27 1 12 25
M  V30 28 1 13 26
M  V30 29 1 16 27
M  V30 30 1 16 28
M  V30 31 1 19 29
M  V30 32 1 20 30
M  V30 END BOND
M  V30 END CTAB
M  END
>  <Dataset>  (66) 
ChEMBL_Kinases

>  <Ligand_Instance>  (66) 
nan

>  <PDB_ID>  (66) 
nan

>  <Standardized_SMILES>  (66) 
N#Cc1c[nH]c2ncnc(-c3ccc(S(N)(=O)=O)cc3)c12

>  <Name>  (66) 
nan

>  <Pocket>  (66) 
nan

>  <ATP_Site>  (66) 
nan

>  <Peripheral>  (66) 
nan

>  <Num_H_Atoms_ProtBoundConf>  (66) 
nan

>  <Num_Resolved_Atoms>  (66) 
nan

>  <Num_Not_Resolved_Atoms>  (66) 
nan

$$$$
CHEMBL4088396
     RDKit          3D

  0  0  0  0  0  0  0  0  0  0999 V3000
M  V30 BEGIN CTAB
M  V30 COUNTS 74 79 0 0 0
M  V30 BEGIN ATOM
M  V30 1 O -2.585658 -3.174823 -3.214833 0
M  V30 2 C -1.578806 -2.455525 -3.442736 0
M  V30 3 N -1.430945 -1.923544 -4.730159 0
M  V30 4 C -2.434013 -2.207822 -5.771010 0
M  V30 5 C -2.085673 -1.540108 -7.062640 0
M  V30 6 N -3.026221 -1.775495 -8.117664 0
M  V30 7 C -3.077276 -3.109880 -8.619880 0
M  V30 8 C -2.059390 -3.341557 -9.710224 0
M  V30 9 O -2.123744 -2.380614 -10.692344 0
M  V30 10 C -3.114592 -1.439133 -10.540324 0
M  V30 11 C -3.038195 -0.808413 -9.166028 0
M  V30 12 C -0.598849 -2.188414 -2.393459 0
M  V30 13 C 0.533975 -1.410333 -2.611930 0
M  V30 14 C 1.468154 -1.146597 -1.634074 0
M  V30 15 C 1.266496 -1.683703 -0.373885 0
M  V30 16 C 0.132896 -2.468355 -0.140737 0
M  V30 17 C -0.818351 -2.738917 -1.130450 0
M  V30 18 C -0.267225 -3.128456 1.121848 0
M  V30 19 O -1.045395 -4.112875 1.036071 0
M  V30 20 C 0.201674 -2.683293 2.431560 0
M  V30 21 C -0.339027 -3.458978 3.425262 0
M  V30 22 C -0.040428 -3.226938 4.748238 0
M  V30 23 C 0.810812 -2.213323 5.168705 0
M  V30 24 N 1.156674 -1.951058 6.516697 0
M  V30 25 C 1.355873 -0.756790 7.244824 0
M  V30 26 C 1.194850 0.520835 6.783870 0
M  V30 27 C 1.434016 1.653224 7.566092 0
M  V30 28 N 1.210708 2.916143 6.913111 0
M  V30 29 C 2.108606 3.720688 6.161724 0
M  V30 30 O 3.314696 3.506658 5.898423 0
M  V30 31 C 1.511426 4.985333 5.623046 0
M  V30 32 C 0.577892 5.677882 6.567076 0
M  V30 33 C 0.053095 5.022783 5.330537 0
M  V30 34 C 1.853526 1.492350 8.867746 0
M  V30 35 F 2.071894 2.620383 9.589047 0
M  V30 36 C 2.015237 0.203591 9.330752 0
M  V30 37 C 1.774447 -0.901321 8.546023 0
M  V30 38 F 1.984137 -2.109900 9.162254 0
M  V30 39 C 1.323026 -1.468419 4.118173 0
M  V30 40 C 1.061238 -1.652449 2.777353 0
M  V30 41 C 1.738614 -0.714651 1.860346 0
M  V30 42 C 2.318273 -1.354253 0.626798 0
M  V30 43 H -0.631407 -1.316956 -5.016122 0
M  V30 44 H -2.491063 -3.299615 -5.938319 0
M  V30 45 H -3.418518 -1.852191 -5.410288 0
M  V30 46 H -1.034930 -1.769079 -7.363949 0
M  V30 47 H -2.092938 -0.425048 -6.885465 0
M  V30 48 H -2.905058 -3.874898 -7.844650 0
M  V30 49 H -4.100472 -3.284357 -9.011741 0
M  V30 50 H -1.051109 -3.428985 -9.252489 0
M  V30 51 H -2.281941 -4.319121 -10.223430 0
M  V30 52 H -4.141502 -1.853335 -10.714659 0
M  V30 53 H -2.896503 -0.612307 -11.260000 0
M  V30 54 H -2.107877 -0.186553 -9.117649 0
M  V30 55 H -3.901336 -0.095347 -9.051293 0
M  V30 56 H 0.731976 -0.976714 -3.558742 0
M  V30 57 H 2.338371 -0.552648 -1.783501 0
M  V30 58 H -1.674903 -3.350574 -0.896447 0
M  V30 59 H -1.011977 -4.267263 3.158568 0
M  V30 60 H -0.489225 -3.865626 5.519191 0
M  V30 61 H 1.265250 -2.883564 6.974190 0
M  V30 62 H 0.859609 0.659194 5.785561 0
M  V30 63 H 0.230511 3.175968 7.082548 0
M  V30 64 H 2.182837 5.627747 5.034096 0
M  V30 65 H 0.348215 5.219474 7.557427 0
M  V30 66 H 0.548770 6.798801 6.599533 0
M  V30 67 H -0.568632 4.126466 5.467590 0
M  V30 68 H -0.276291 5.699391 4.520100 0
M  V30 69 H 2.344497 0.117542 10.357907 0
M  V30 70 H 2.014393 -0.650821 4.272180 0
M  V30 71 H 2.633413 -0.323614 2.429678 0
M  V30 72 H 1.155075 0.163915 1.573657 0
M  V30 73 H 3.065651 -0.682864 0.200208 0
M  V30 74 H 2.784880 -2.326154 0.924578 0
M  V30 END ATOM
M  V30 BEGIN BOND
M  V30 1 2 1 2
M  V30 2 1 2 3
M  V30 3 1 3 4
M  V30 4 1 4 5
M  V30 5 1 5 6
M  V30 6 1 6 7
M  V30 7 1 7 8
M  V30 8 1 8 9
M  V30 9 1 9 10
M  V30 10 1 10 11
M  V30 11 1 2 12
M  V30 12 2 12 13
M  V30 13 1 13 14
M  V30 14 2 14 15
M  V30 15 1 15 16
M  V30 16 2 16 17
M  V30 17 1 16 18
M  V30 18 2 18 19
M  V30 19 1 18 20
M  V30 20 2 20 21
M  V30 21 1 21 22
M  V30 22 2 22 23
M  V30 23 1 23 24
M  V30 24 1 24 25
M  V30 25 2 25 26
M  V30 26 1 26 27
M  V30 27 1 27 28
M  V30 28 1 28 29
M  V30 29 2 29 30
M  V30 30 1 29 31
M  V30 31 1 31 32
M  V30 32 1 32 33
M  V30 33 2 27 34
M  V30 34 1 34 35
M  V30 35 1 34 36
M  V30 36 2 36 37
M  V30 37 1 37 38
M  V30 38 1 23 39
M  V30 39 2 39 40
M  V30 40 1 40 41
M  V30 41 1 41 42
M  V30 42 1 11 6
M  V30 43 1 17 12
M  V30 44 1 40 20
M  V30 45 1 42 15
M  V30 46 1 37 25
M  V30 47 1 33 31
M  V30 48 1 3 43
M  V30 49 1 4 44
M  V30 50 1 4 45
M  V30 51 1 5 46
M  V30 52 1 5 47
M  V30 53 1 7 48
M  V30 54 1 7 49
M  V30 55 1 8 50
M  V30 56 1 8 51
M  V30 57 1 10 52
M  V30 58 1 10 53
M  V30 59 1 11 54
M  V30 60 1 11 55
M  V30 61 1 13 56
M  V30 62 1 14 57
M  V30 63 1 17 58
M  V30 64 1 21 59
M  V30 65 1 22 60
M  V30 66 1 24 61
M  V30 67 1 26 62
M  V30 68 1 28 63
M  V30 69 1 31 64
M  V30 70 1 32 65
M  V30 71 1 32 66
M  V30 72 1 33 67
M  V30 73 1 33 68
M  V30 74 1 36 69
M  V30 75 1 39 70
M  V30 76 1 41 71
M  V30 77 1 41 72
M  V30 78 1 42 73
M  V30 79 1 42 74
M  V30 END BOND
M  V30 END CTAB
M  END
>  <Dataset>  (67) 
ChEMBL_Kinases

>  <Ligand_Instance>  (67) 
nan

>  <PDB_ID>  (67) 
nan

>  <Standardized_SMILES>  (67) 
O=C(NCCN1CCOCC1)c1ccc2c(c1)C(=O)c1ccc(Nc3cc(NC(=O)C4CC4)c(F)cc3F)cc1CC2

>  <Name>  (67) 
nan

>  <Pocket>  (67) 
nan

>  <ATP_Site>  (67) 
nan

>  <Peripheral>  (67) 
nan

>  <Num_H_Atoms_ProtBoundConf>  (67) 
nan

>  <Num_Resolved_Atoms>  (67) 
nan

>  <Num_Not_Resolved_Atoms>  (67) 
nan

$$$$
CHEMBL4088380
     RDKit          3D

  0  0  0  0  0  0  0  0  0  0999 V3000
M  V30 BEGIN CTAB
M  V30 COUNTS 43 46 0 0 0
M  V30 BEGIN ATOM
M  V30 1 C -1.427371 -1.401743 2.460596 0
M  V30 2 C -2.192538 -1.671002 1.183117 0
M  V30 3 C -1.502587 -2.645054 0.257551 0
M  V30 4 C -0.181517 -2.213718 -0.228895 0
M  V30 5 N 0.173245 -1.041089 0.161482 0
M  V30 6 C 1.314428 -0.248325 -0.051158 0
M  V30 7 C 2.521433 -0.543818 -0.631131 0
M  V30 8 N 3.515555 0.351580 -0.741678 0
M  V30 9 C 3.343173 1.601318 -0.270744 0
M  V30 10 N 2.185757 1.919239 0.296479 0
M  V30 11 C 1.198648 1.044838 0.411917 0
M  V30 12 S -0.256212 1.619247 1.177598 0 CHG=1 VAL=3
M  V30 13 O -1.278566 2.427620 0.152097 0 CHG=-1 VAL=1
M  V30 14 C 0.116031 2.631267 2.545753 0
M  V30 15 C 0.333225 3.997534 2.543847 0
M  V30 16 C 0.624111 4.654977 3.714875 0
M  V30 17 C 0.707309 3.990580 4.906643 0
M  V30 18 C 0.486397 2.634163 4.880908 0
M  V30 19 C 0.184890 1.884709 3.731784 0
M  V30 20 S 3.122143 -2.044652 -1.345729 0
M  V30 21 C 1.792249 -3.182592 -1.565363 0
M  V30 22 C 2.289868 -4.180566 -2.370797 0
M  V30 23 C 1.474506 -5.257141 -2.743616 0
M  V30 24 C 0.182354 -5.251120 -2.265963 0
M  V30 25 C -0.270994 -4.213300 -1.451470 0
M  V30 26 C 0.520823 -3.153246 -1.080347 0
M  V30 27 H -1.736509 -2.249744 3.147412 0
M  V30 28 H -0.347393 -1.494298 2.387653 0
M  V30 29 H -1.773058 -0.499386 2.976653 0
M  V30 30 H -2.363977 -0.685336 0.706224 0
M  V30 31 H -3.206066 -2.074590 1.385379 0
M  V30 32 H -1.531896 -3.681458 0.653045 0
M  V30 33 H -2.163487 -2.676812 -0.636628 0
M  V30 34 H 4.141347 2.344634 -0.352678 0
M  V30 35 H 0.252235 4.460782 1.575628 0
M  V30 36 H 0.790900 5.736698 3.682137 0
M  V30 37 H 0.939172 4.493306 5.857022 0
M  V30 38 H 0.560517 2.131086 5.859910 0
M  V30 39 H 0.030799 0.820156 3.833040 0
M  V30 40 H 3.291403 -4.227323 -2.766849 0
M  V30 41 H 1.827746 -6.057788 -3.375079 0
M  V30 42 H -0.437377 -6.087261 -2.561110 0
M  V30 43 H -1.275750 -4.341754 -1.160724 0
M  V30 END ATOM
M  V30 BEGIN BOND
M  V30 1 1 1 2
M  V30 2 1 2 3
M  V30 3 1 3 4
M  V30 4 2 4 5
M  V30 5 1 5 6
M  V30 6 2 6 7
M  V30 7 1 7 8
M  V30 8 2 8 9
M  V30 9 1 9 10
M  V30 10 2 10 11
M  V30 11 1 11 12
M  V30 12 1 12 13
M  V30 13 1 12 14
M  V30 14 2 14 15
M  V30 15 1 15 16
M  V30 16 2 16 17
M  V30 17 1 17 18
M  V30 18 2 18 19
M  V30 19 1 7 20
M  V30 20 1 20 21
M  V30 21 2 21 22
M  V30 22 1 22 23
M  V30 23 2 23 24
M  V30 24 1 24 25
M  V30 25 2 25 26
M  V30 26 1 26 4
M  V30 27 1 11 6
M  V30 28 1 19 14
M  V30 29 1 26 21
M  V30 30 1 1 27
M  V30 31 1 1 28
M  V30 32 1 1 29
M  V30 33 1 2 30
M  V30 34 1 2 31
M  V30 35 1 3 32
M  V30 36 1 3 33
M  V30 37 1 9 34
M  V30 38 1 15 35
M  V30 39 1 16 36
M  V30 40 1 17 37
M  V30 41 1 18 38
M  V30 42 1 19 39
M  V30 43 1 22 40
M  V30 44 1 23 41
M  V30 45 1 24 42
M  V30 46 1 25 43
M  V30 END BOND
M  V30 END CTAB
M  END
>  <Dataset>  (68) 
ChEMBL_Kinases

>  <Ligand_Instance>  (68) 
nan

>  <PDB_ID>  (68) 
nan

>  <Standardized_SMILES>  (68) 
CCCC1=Nc2c(ncnc2[S+]([O-])c2ccccc2)Sc2ccccc21

>  <Name>  (68) 
nan

>  <Pocket>  (68) 
nan

>  <ATP_Site>  (68) 
nan

>  <Peripheral>  (68) 
nan

>  <Num_H_Atoms_ProtBoundConf>  (68) 
nan

>  <Num_Resolved_Atoms>  (68) 
nan

>  <Num_Not_Resolved_Atoms>  (68) 
nan

$$$$
CHEMBL4088735
     RDKit          3D

  0  0  0  0  0  0  0  0  0  0999 V3000
M  V30 BEGIN CTAB
M  V30 COUNTS 48 51 0 0 0
M  V30 BEGIN ATOM
M  V30 1 C -1.779041 2.580642 1.732584 0
M  V30 2 C -0.489594 2.194935 1.102662 0
M  V30 3 C -0.074063 2.754333 -0.086949 0
M  V30 4 N 1.087538 2.424948 -0.680521 0
M  V30 5 C 1.951141 1.526110 -0.178122 0
M  V30 6 C 3.166948 1.266946 -0.922836 0
M  V30 7 C 3.360938 1.958917 -2.099615 0
M  V30 8 C 4.483742 1.784748 -2.881350 0
M  V30 9 F 4.645908 2.475768 -4.027451 0
M  V30 10 C 5.477256 0.901618 -2.521324 0
M  V30 11 C 5.311039 0.195851 -1.350192 0
M  V30 12 C 4.177924 0.397860 -0.599134 0
M  V30 13 F 4.084554 -0.319825 0.522146 0
M  V30 14 C 1.539324 0.968991 1.004783 0
M  V30 15 C 0.364941 1.265626 1.657374 0
M  V30 16 N 0.029799 0.638407 2.870880 0
M  V30 17 C -1.015859 -0.182924 3.367145 0
M  V30 18 C -1.790143 0.242985 4.442685 0
M  V30 19 C -2.804414 -0.585788 4.902044 0
M  V30 20 N -3.038662 -1.780150 4.321353 0
M  V30 21 C -2.297323 -2.211893 3.275174 0
M  V30 22 C -2.311183 -3.356366 2.505524 0
M  V30 23 N -1.332876 -3.251378 1.586961 0
M  V30 24 C -0.959723 -4.205144 0.556097 0
M  V30 25 C -1.747415 -3.911101 -0.698141 0
M  V30 26 C -3.245829 -4.017019 -0.466079 0
M  V30 27 O -1.363716 -4.738482 -1.725608 0
M  V30 28 N -0.718706 -2.091307 1.759528 0
M  V30 29 C -1.280224 -1.410124 2.794461 0
M  V30 30 H -2.395918 1.704311 1.998517 0
M  V30 31 H -2.297454 3.276305 1.047643 0
M  V30 32 H -1.619278 3.137908 2.682176 0
M  V30 33 H -0.681825 3.498492 -0.601578 0
M  V30 34 H 2.637009 2.686087 -2.482659 0
M  V30 35 H 6.349984 0.777056 -3.144553 0
M  V30 36 H 6.076030 -0.498538 -1.052203 0
M  V30 37 H 2.169168 0.245401 1.469400 0
M  V30 38 H 0.733638 0.817377 3.619953 0
M  V30 39 H -1.564562 1.206831 4.874295 0
M  V30 40 H -3.409230 -0.259237 5.737978 0
M  V30 41 H -2.977098 -4.205902 2.597979 0
M  V30 42 H 0.102876 -4.165258 0.302142 0
M  V30 43 H -1.285629 -5.202929 0.926198 0
M  V30 44 H -1.551440 -2.824953 -0.920982 0
M  V30 45 H -3.569962 -3.411858 0.386413 0
M  V30 46 H -3.572577 -5.051499 -0.300935 0
M  V30 47 H -3.720362 -3.643583 -1.414248 0
M  V30 48 H -2.111628 -4.770408 -2.394890 0
M  V30 END ATOM
M  V30 BEGIN BOND
M  V30 1 1 1 2
M  V30 2 2 2 3
M  V30 3 1 3 4
M  V30 4 2 4 5
M  V30 5 1 5 6
M  V30 6 2 6 7
M  V30 7 1 7 8
M  V30 8 1 8 9
M  V30 9 2 8 10
M  V30 10 1 10 11
M  V30 11 2 11 12
M  V30 12 1 12 13
M  V30 13 1 5 14
M  V30 14 2 14 15
M  V30 15 1 15 16
M  V30 16 1 16 17
M  V30 17 2 17 18
M  V30 18 1 18 19
M  V30 19 2 19 20
M  V30 20 1 20 21
M  V30 21 2 21 22
M  V30 22 1 22 23
M  V30 23 1 23 24
M  V30 24 1 24 25
M  V30 25 1 25 26
M  V30 26 1 25 27
M  V30 27 1 23 28
M  V30 28 2 28 29
M  V30 29 1 15 2
M  V30 30 1 29 17
M  V30 31 1 12 6
M  V30 32 1 29 21
M  V30 33 1 1 30
M  V30 34 1 1 31
M  V30 35 1 1 32
M  V30 36 1 3 33
M  V30 37 1 7 34
M  V30 38 1 10 35
M  V30 39 1 11 36
M  V30 40 1 14 37
M  V30 41 1 16 38
M  V30 42 1 18 39
M  V30 43 1 19 40
M  V30 44 1 22 41
M  V30 45 1 24 42
M  V30 46 1 24 43
M  V30 47 1 25 44
M  V30 48 1 26 45
M  V30 49 1 26 46
M  V30 50 1 26 47
M  V30 51 1 27 48
M  V30 END BOND
M  V30 END CTAB
M  END
>  <Dataset>  (69) 
ChEMBL_Kinases

>  <Ligand_Instance>  (69) 
nan

>  <PDB_ID>  (69) 
nan

>  <Standardized_SMILES>  (69) 
Cc1cnc(-c2cc(F)ccc2F)cc1Nc1ccnc2cn(CC(C)O)nc12

>  <Name>  (69) 
nan

>  <Pocket>  (69) 
nan

>  <ATP_Site>  (69) 
nan

>  <Peripheral>  (69) 
nan

>  <Num_H_Atoms_ProtBoundConf>  (69) 
nan

>  <Num_Resolved_Atoms>  (69) 
nan

>  <Num_Not_Resolved_Atoms>  (69) 
nan

$$$$
CHEMBL4089961
     RDKit          3D

  0  0  0  0  0  0  0  0  0  0999 V3000
M  V30 BEGIN CTAB
M  V30 COUNTS 227 233 0 0 0
M  V30 BEGIN ATOM
M  V30 1 C -1.501988 1.909577 4.597568 0
M  V30 2 C -1.799076 2.253823 3.161988 0
M  V30 3 N -0.944100 3.232427 2.563853 0
M  V30 4 C 0.164815 3.991037 2.969865 0
M  V30 5 C 0.848069 3.839434 4.139701 0
M  V30 6 C 1.944220 4.690379 4.366978 0
M  V30 7 S 2.861333 4.581400 5.846340 0
M  V30 8 O 4.328128 4.713546 5.647718 0
M  V30 9 O 2.587721 3.233663 6.456940 0
M  V30 10 O 2.296158 5.716557 6.976190 0
M  V30 11 C 2.245940 5.620742 3.387985 0
M  V30 12 C 1.481043 5.678869 2.251048 0
M  V30 13 C 0.406329 4.881856 1.965825 0
M  V30 14 C -0.537706 4.713868 0.881369 0
M  V30 15 C -0.504330 5.410495 -0.212119 0
M  V30 16 C 0.452106 6.436517 -0.549834 0
M  V30 17 C 0.453857 7.093795 -1.674920 0
M  V30 18 C 1.284654 8.134875 -2.241430 0
M  V30 19 N 1.081607 8.665880 -3.380383 0 CHG=1 VAL=4
M  V30 20 C 0.154670 8.565197 -4.468600 0
M  V30 21 C -1.241050 8.278290 -4.038094 0
M  V30 22 C 2.212036 9.532429 -3.580648 0
M  V30 23 C 2.670041 10.372870 -4.596854 0
M  V30 24 C 3.846794 11.074471 -4.536018 0
M  V30 25 C 4.681367 10.994423 -3.438988 0
M  V30 26 S 6.166838 11.893547 -3.418730 0
M  V30 27 O 6.645263 12.204398 -2.036361 0
M  V30 28 O 6.070905 13.140157 -4.246188 0
M  V30 29 O 7.396253 10.977097 -4.145049 0 CHG=-1 VAL=1
M  V30 30 C 4.287775 10.177700 -2.389625 0
M  V30 31 C 3.091972 9.516818 -2.543369 0
M  V30 32 C 2.483748 8.605305 -1.498543 0
M  V30 33 C 3.472834 7.502752 -1.177901 0
M  V30 34 C 2.159203 9.497935 -0.337100 0
M  V30 35 C -1.417711 3.438391 1.178380 0
M  V30 36 C -2.801025 3.807918 1.094511 0
M  V30 37 C -0.826781 2.444324 0.222433 0
M  V30 38 C -1.379127 2.417016 -1.154166 0
M  V30 39 C -0.356599 2.225657 -2.227166 0
M  V30 40 C 0.621859 1.154420 -2.000294 0
M  V30 41 O 0.938535 0.284937 -1.169487 0
M  V30 42 N 1.509155 1.165120 -3.140917 0
M  V30 43 C 2.683581 0.315193 -3.212696 0
M  V30 44 C 3.435168 0.347061 -4.483433 0
M  V30 45 C 2.697578 -0.336723 -5.646146 0
M  V30 46 C 2.578538 -1.776318 -5.243936 0
M  V30 47 C 2.013186 -2.738484 -6.227555 0 CFG=2
M  V30 48 N 2.033422 -4.069400 -5.560286 0
M  V30 49 C 1.249023 -5.214198 -5.616448 0
M  V30 50 O 0.298502 -5.158601 -6.431904 0
M  V30 51 C 1.387222 -6.447407 -4.858325 0 CFG=2
M  V30 52 C 0.009189 -6.928428 -4.391186 0
M  V30 53 C 0.200310 -8.174799 -3.613265 0
M  V30 54 O 0.540941 -8.063393 -2.404551 0
M  V30 55 O 0.014245 -9.442606 -4.196936 0
M  V30 56 N 2.327826 -6.413842 -3.799739 0
M  V30 57 C 3.266333 -7.144156 -3.105726 0
M  V30 58 O 3.396607 -8.342898 -3.515415 0
M  V30 59 C 4.220539 -7.026833 -2.007732 0 CFG=2
M  V30 60 C 3.643191 -7.706253 -0.742534 0
M  V30 61 C 3.382546 -9.142747 -0.947984 0
M  V30 62 O 3.984164 -10.072952 -1.510756 0
M  V30 63 O 2.387780 -10.009271 -0.606660 0
M  V30 64 N 4.369599 -5.621774 -1.591330 0
M  V30 65 C 5.772635 -5.207737 -1.762391 0
M  V30 66 O 6.654650 -5.981508 -2.228311 0
M  V30 67 C 6.532537 -3.939290 -1.493145 0 CFG=2
M  V30 68 C 7.831803 -4.260964 -0.779676 0
M  V30 69 C 7.479177 -4.967807 0.510659 0
M  V30 70 O 6.496576 -5.303458 1.204303 0
M  V30 71 O 8.113460 -5.587671 1.565258 0
M  V30 72 N 5.787021 -2.907285 -0.915305 0
M  V30 73 C 5.143024 -1.668943 -0.788225 0
M  V30 74 O 5.322800 -1.033284 -1.890454 0
M  V30 75 C 4.376646 -0.829269 0.075504 0 CFG=2
M  V30 76 C 4.963141 0.554981 0.290033 0
M  V30 77 C 6.294232 0.506195 0.906095 0
M  V30 78 O 6.660220 0.174656 2.032125 0
M  V30 79 O 7.459674 0.888810 0.214911 0
M  V30 80 N 4.018983 -1.418336 1.374398 0
M  V30 81 C 2.796915 -2.015290 1.710961 0
M  V30 82 O 1.813190 -2.152135 0.870176 0
M  V30 83 C 1.844580 -2.669189 2.600102 0 CFG=2
M  V30 84 C 2.418422 -3.653617 3.536334 0
M  V30 85 C 3.386537 -3.001792 4.458620 0
M  V30 86 O 4.607949 -2.784271 4.613385 0
M  V30 87 O 3.622365 -2.296121 5.598172 0
M  V30 88 N 0.734176 -3.180419 1.830188 0
M  V30 89 C -0.491194 -2.712798 1.408413 0
M  V30 90 O -0.899563 -1.561912 1.655955 0
M  V30 91 C -1.480660 -3.518610 0.599033 0 CFG=2
M  V30 92 C -0.823248 -4.229392 -0.536208 0
M  V30 93 C -1.808551 -5.025336 -1.337489 0
M  V30 94 O -2.552122 -4.500945 -2.192301 0
M  V30 95 O -2.161736 -6.362708 -1.393470 0
M  V30 96 N -2.519293 -2.649451 0.177152 0
M  V30 97 C -3.890546 -2.304582 0.397246 0
M  V30 98 O -4.441434 -3.000094 1.296263 0
M  V30 99 C -4.266539 -1.206043 -0.504406 0
M  V30 100 C -5.591497 -0.561121 -0.018707 0
M  V30 101 C -5.928693 0.552981 -0.943081 0
M  V30 102 C -7.077722 1.413381 -0.658431 0
M  V30 103 C -8.457498 0.983133 -0.548511 0
M  V30 104 C -8.846971 0.032385 0.566873 0
M  V30 105 C -10.327481 -0.195633 0.508113 0
M  V30 106 C -10.836361 -1.146836 1.504204 0
M  V30 107 O -10.670258 -0.949059 2.848602 0
M  V30 108 C -9.611734 -0.906295 3.687826 0
M  V30 109 N -8.298706 -1.063640 3.566461 0
M  V30 110 C -7.384518 -0.988933 4.532236 0
M  V30 111 C -6.062516 -1.201790 4.183982 0
M  V30 112 C -5.167374 -1.125469 5.234027 0
M  V30 113 C -3.750669 -1.324182 4.960817 0
M  V30 114 O -3.303987 -1.554640 3.818558 0
M  V30 115 O -2.692316 -1.303893 5.815790 0
M  V30 116 C -5.543357 -0.858504 6.537016 0
M  V30 117 C -6.866896 -0.661689 6.800523 0
M  V30 118 C -7.815203 -0.723002 5.817765 0
M  V30 119 C -9.152518 -0.542836 6.066447 0
M  V30 120 C -9.577371 -0.272318 7.345087 0
M  V30 121 N -10.873917 -0.088063 7.586437 0
M  V30 122 C -11.824460 -0.149789 6.627583 0
M  V30 123 C -11.343578 -0.425107 5.375359 0
M  V30 124 C -10.017572 -0.637617 4.995695 0
M  V30 125 C 2.997912 -2.943470 -7.366587 0
M  V30 126 O 3.719686 -3.897943 -7.686168 0
M  V30 127 O 3.101925 -1.837366 -8.211955 0
M  V30 128 H -2.393817 1.321873 5.021125 0
M  V30 129 H -1.558188 2.846088 5.187394 0
M  V30 130 H -0.654890 1.252919 4.758122 0
M  V30 131 H -1.764854 1.274380 2.612634 0
M  V30 132 H -2.865832 2.580335 3.040983 0
M  V30 133 H 0.675911 3.153991 4.921684 0
M  V30 134 H 1.379695 5.981796 6.811354 0
M  V30 135 H 3.102953 6.260360 3.630386 0
M  V30 136 H 1.825138 6.435414 1.638695 0
M  V30 137 H -1.277030 5.218471 -0.919801 0
M  V30 138 H 1.306052 6.940018 -0.149672 0
M  V30 139 H -0.374969 6.717573 -2.315576 0
M  V30 140 H 0.513699 7.832375 -5.242200 0
M  V30 141 H 0.106080 9.532519 -5.058677 0
M  V30 142 H -1.961064 8.943507 -4.637020 0
M  V30 143 H -1.398083 8.621353 -2.989548 0
M  V30 144 H -1.594373 7.260694 -4.152415 0
M  V30 145 H 2.061357 10.480513 -5.491201 0
M  V30 146 H 4.127789 11.721991 -5.381014 0
M  V30 147 H 4.905623 10.100251 -1.525047 0
M  V30 148 H 3.607968 7.482936 -0.092367 0
M  V30 149 H 4.443902 7.790635 -1.650056 0
M  V30 150 H 3.089950 6.564956 -1.637910 0
M  V30 151 H 2.087462 10.582538 -0.669379 0
M  V30 152 H 3.047185 9.493455 0.344905 0
M  V30 153 H 1.304178 9.223092 0.269123 0
M  V30 154 H -3.436775 2.887828 1.009908 0
M  V30 155 H -3.101545 4.371073 2.025307 0
M  V30 156 H -3.102806 4.472938 0.255315 0
M  V30 157 H 0.294846 2.594261 0.150858 0
M  V30 158 H -0.924084 1.443117 0.712263 0
M  V30 159 H -2.066788 3.213209 -1.445207 0
M  V30 160 H -2.040329 1.477436 -1.200359 0
M  V30 161 H -0.848796 2.157479 -3.240363 0
M  V30 162 H 0.205879 3.211352 -2.289457 0
M  V30 163 H 1.441400 1.740896 -4.032246 0
M  V30 164 H 3.395835 0.786786 -2.432072 0
M  V30 165 H 2.506598 -0.692915 -2.832803 0
M  V30 166 H 3.790230 1.345809 -4.802123 0
M  V30 167 H 4.349633 -0.295706 -4.339127 0
M  V30 168 H 1.716148 0.139203 -5.759574 0
M  V30 169 H 3.358482 -0.218254 -6.523448 0
M  V30 170 H 3.628224 -2.111435 -4.961009 0
M  V30 171 H 1.945544 -1.771849 -4.300678 0
M  V30 172 H 1.040914 -2.544228 -6.635686 0
M  V30 173 H 2.833737 -4.215208 -4.880307 0
M  V30 174 H 1.692521 -7.288190 -5.562256 0
M  V30 175 H -0.590415 -6.155239 -3.914747 0
M  V30 176 H -0.527227 -7.219284 -5.332872 0
M  V30 177 H 0.584473 -10.198758 -3.816662 0
M  V30 178 H 2.317637 -5.442669 -3.353266 0
M  V30 179 H 5.193513 -7.458431 -2.211681 0
M  V30 180 H 4.441460 -7.577662 0.026823 0
M  V30 181 H 2.772942 -7.158199 -0.398968 0
M  V30 182 H 2.202873 -10.501486 0.212429 0
M  V30 183 H 3.899549 -4.782673 -1.216319 0
M  V30 184 H 6.862275 -3.574695 -2.517027 0
M  V30 185 H 8.387374 -3.342635 -0.624435 0
M  V30 186 H 8.399972 -4.930508 -1.443525 0
M  V30 187 H 8.979756 -5.378181 1.984614 0
M  V30 188 H 5.613343 -3.412601 0.016337 0
M  V30 189 H 3.363575 -0.678306 -0.412406 0
M  V30 190 H 4.281376 1.019307 1.050319 0
M  V30 191 H 4.879082 1.116642 -0.621035 0
M  V30 192 H 8.290830 0.340194 0.271090 0
M  V30 193 H 4.490756 -1.533393 2.280116 0
M  V30 194 H 1.350402 -1.865190 3.257217 0
M  V30 195 H 2.944141 -4.488449 3.016244 0
M  V30 196 H 1.619208 -4.132665 4.128066 0
M  V30 197 H 3.035205 -1.592457 6.005295 0
M  V30 198 H 0.962153 -4.163433 1.535958 0
M  V30 199 H -1.947585 -4.261925 1.314267 0
M  V30 200 H -0.024632 -4.899392 -0.151296 0
M  V30 201 H -0.344555 -3.508748 -1.249192 0
M  V30 202 H -1.979334 -6.975390 -2.176502 0
M  V30 203 H -1.939846 -2.123301 -0.533584 0
M  V30 204 H -3.523582 -0.391228 -0.500600 0
M  V30 205 H -4.368999 -1.512605 -1.579012 0
M  V30 206 H -6.289270 -1.428237 -0.060067 0
M  V30 207 H -5.406370 -0.220676 1.003068 0
M  V30 208 H -6.151061 0.048511 -1.961911 0
M  V30 209 H -4.995742 1.138705 -1.193651 0
M  V30 210 H -6.868643 1.987514 0.340158 0
M  V30 211 H -7.069521 2.286921 -1.428356 0
M  V30 212 H -9.098293 1.924293 -0.448751 0
M  V30 213 H -8.817635 0.548481 -1.519773 0
M  V30 214 H -8.614117 0.594563 1.509048 0
M  V30 215 H -8.352100 -0.910332 0.540216 0
M  V30 216 H -10.876538 0.779617 0.478232 0
M  V30 217 H -10.518355 -0.634648 -0.524648 0
M  V30 218 H -10.356674 -2.169059 1.288534 0
M  V30 219 H -11.947160 -1.386904 1.275065 0
M  V30 220 H -5.667245 -1.413682 3.212132 0
M  V30 221 H -1.990085 -2.024964 5.837501 0
M  V30 222 H -4.768628 -0.806115 7.294238 0
M  V30 223 H -7.116436 -0.465384 7.827179 0
M  V30 224 H -8.978826 -0.181538 8.219610 0
M  V30 225 H -12.881403 0.011662 6.797892 0
M  V30 226 H -12.098721 -0.490929 4.598050 0
M  V30 227 H 3.353114 -2.021447 -9.195853 0
M  V30 END ATOM
M  V30 BEGIN BOND
M  V30 1 1 1 2
M  V30 2 1 2 3
M  V30 3 1 3 4
M  V30 4 2 4 5
M  V30 5 1 5 6
M  V30 6 1 6 7
M  V30 7 2 7 8
M  V30 8 2 7 9
M  V30 9 1 7 10
M  V30 10 2 6 11
M  V30 11 1 11 12
M  V30 12 2 12 13
M  V30 13 1 13 14
M  V30 14 2 14 15
M  V30 15 1 15 16
M  V30 16 2 16 17
M  V30 17 1 17 18
M  V30 18 2 18 19
M  V30 19 1 19 20
M  V30 20 1 20 21
M  V30 21 1 19 22
M  V30 22 2 22 23
M  V30 23 1 23 24
M  V30 24 2 24 25
M  V30 25 1 25 26
M  V30 26 2 26 27
M  V30 27 2 26 28
M  V30 28 1 26 29
M  V30 29 1 25 30
M  V30 30 2 30 31
M  V30 31 1 31 32
M  V30 32 1 32 33
M  V30 33 1 32 34
M  V30 34 1 14 35
M  V30 35 1 35 36
M  V30 36 1 35 37
M  V30 37 1 37 38
M  V30 38 1 38 39
M  V30 39 1 39 40
M  V30 40 2 40 41
M  V30 41 1 40 42
M  V30 42 1 42 43
M  V30 43 1 43 44
M  V30 44 1 44 45
M  V30 45 1 45 46
M  V30 46 1 46 47
M  V30 47 1 47 48
M  V30 48 1 48 49
M  V30 49 2 49 50
M  V30 50 1 49 51
M  V30 51 1 51 52
M  V30 52 1 52 53
M  V30 53 2 53 54
M  V30 54 1 53 55
M  V30 55 1 51 56
M  V30 56 1 56 57
M  V30 57 2 57 58
M  V30 58 1 57 59
M  V30 59 1 59 60
M  V30 60 1 60 61
M  V30 61 2 61 62
M  V30 62 1 61 63
M  V30 63 1 59 64
M  V30 64 1 64 65
M  V30 65 2 65 66
M  V30 66 1 65 67
M  V30 67 1 67 68
M  V30 68 1 68 69
M  V30 69 2 69 70
M  V30 70 1 69 71
M  V30 71 1 67 72
M  V30 72 1 72 73
M  V30 73 2 73 74
M  V30 74 1 73 75
M  V30 75 1 75 76
M  V30 76 1 76 77
M  V30 77 2 77 78
M  V30 78 1 77 79
M  V30 79 1 75 80
M  V30 80 1 80 81
M  V30 81 2 81 82
M  V30 82 1 81 83
M  V30 83 1 83 84
M  V30 84 1 84 85
M  V30 85 2 85 86
M  V30 86 1 85 87
M  V30 87 1 83 88
M  V30 88 1 88 89
M  V30 89 2 89 90
M  V30 90 1 89 91
M  V30 91 1 91 92
M  V30 92 1 92 93
M  V30 93 2 93 94
M  V30 94 1 93 95
M  V30 95 1 91 96
M  V30 96 1 96 97
M  V30 97 2 97 98
M  V30 98 1 97 99
M  V30 99 1 99 100
M  V30 100 1 100 101
M  V30 101 1 101 102
M  V30 102 1 102 103
M  V30 103 1 103 104
M  V30 104 1 104 105
M  V30 105 1 105 106
M  V30 106 1 106 107
M  V30 107 1 107 108
M  V30 108 2 108 109
M  V30 109 1 109 110
M  V30 110 2 110 111
M  V30 111 1 111 112
M  V30 112 1 112 113
M  V30 113 2 113 114
M  V30 114 1 113 115
M  V30 115 2 112 116
M  V30 116 1 116 117
M  V30 117 2 117 118
M  V30 118 1 118 119
M  V30 119 2 119 120
M  V30 120 1 120 121
M  V30 121 2 121 122
M  V30 122 1 122 123
M  V30 123 2 123 124
M  V30 124 1 47 125
M  V30 125 2 125 126
M  V30 126 1 125 127
M  V30 127 1 35 3
M  V30 128 1 124 108
M  V30 129 1 13 4
M  V30 130 1 32 18
M  V30 131 1 118 110
M  V30 132 1 124 119
M  V30 133 1 31 22
M  V30 134 1 1 128
M  V30 135 1 1 129
M  V30 136 1 1 130
M  V30 137 1 2 131
M  V30 138 1 2 132
M  V30 139 1 5 133
M  V30 140 1 10 134
M  V30 141 1 11 135
M  V30 142 1 12 136
M  V30 143 1 15 137
M  V30 144 1 16 138
M  V30 145 1 17 139
M  V30 146 1 20 140
M  V30 147 1 20 141
M  V30 148 1 21 142
M  V30 149 1 21 143
M  V30 150 1 21 144
M  V30 151 1 23 145
M  V30 152 1 24 146
M  V30 153 1 30 147
M  V30 154 1 33 148
M  V30 155 1 33 149
M  V30 156 1 33 150
M  V30 157 1 34 151
M  V30 158 1 34 152
M  V30 159 1 34 153
M  V30 160 1 36 154
M  V30 161 1 36 155
M  V30 162 1 36 156
M  V30 163 1 37 157
M  V30 164 1 37 158
M  V30 165 1 38 159
M  V30 166 1 38 160
M  V30 167 1 39 161
M  V30 168 1 39 162
M  V30 169 1 42 163
M  V30 170 1 43 164
M  V30 171 1 43 165
M  V30 172 1 44 166
M  V30 173 1 44 167
M  V30 174 1 45 168
M  V30 175 1 45 169
M  V30 176 1 46 170
M  V30 177 1 46 171
M  V30 178 1 47 172 CFG=3
M  V30 179 1 48 173
M  V30 180 1 51 174 CFG=3
M  V30 181 1 52 175
M  V30 182 1 52 176
M  V30 183 1 55 177
M  V30 184 1 56 178
M  V30 185 1 59 179 CFG=3
M  V30 186 1 60 180
M  V30 187 1 60 181
M  V30 188 1 63 182
M  V30 189 1 64 183
M  V30 190 1 67 184 CFG=3
M  V30 191 1 68 185
M  V30 192 1 68 186
M  V30 193 1 71 187
M  V30 194 1 72 188
M  V30 195 1 75 189 CFG=3
M  V30 196 1 76 190
M  V30 197 1 76 191
M  V30 198 1 79 192
M  V30 199 1 80 193
M  V30 200 1 83 194 CFG=1
M  V30 201 1 84 195
M  V30 202 1 84 196
M  V30 203 1 87 197
M  V30 204 1 88 198
M  V30 205 1 91 199 CFG=1
M  V30 206 1 92 200
M  V30 207 1 92 201
M  V30 208 1 95 202
M  V30 209 1 96 203
M  V30 210 1 99 204
M  V30 211 1 99 205
M  V30 212 1 100 206
M  V30 213 1 100 207
M  V30 214 1 101 208
M  V30 215 1 101 209
M  V30 216 1 102 210
M  V30 217 1 102 211
M  V30 218 1 103 212
M  V30 219 1 103 213
M  V30 220 1 104 214
M  V30 221 1 104 215
M  V30 222 1 105 216
M  V30 223 1 105 217
M  V30 224 1 106 218
M  V30 225 1 106 219
M  V30 226 1 111 220
M  V30 227 1 115 221
M  V30 228 1 116 222
M  V30 229 1 117 223
M  V30 230 1 120 224
M  V30 231 1 122 225
M  V30 232 1 123 226
M  V30 233 1 127 227
M  V30 END BOND
M  V30 END CTAB
M  END
>  <Dataset>  (70) 
ChEMBL_Kinases

>  <Ligand_Instance>  (70) 
nan

>  <PDB_ID>  (70) 
nan

>  <Standardized_SMILES>  (70) 
CCN1c2cc(S(=O)(=O)O)ccc2/C(=C\C=C\C2=[N+](CC)c3ccc(S(=O)(=O)[O-])cc3C2(C)C)C1(C)CCCC(=O)NCCCC[C@H](NC(=O)[C@H](CC(=O)O)NC(=O)[C@H](CC(=O)O)NC(=O)[C@H](CC(=O)O)NC(=O)[C@H](CC(=O)O)NC(=O)[C@H](CC(=O)O)NC(=O)[C@H](CC(=O)O)NC(=O)CCCCCCCCOc1nc2cc(C(=O)O)ccc2c2cnccc12)C(=O)O

>  <Name>  (70) 
nan

>  <Pocket>  (70) 
nan

>  <ATP_Site>  (70) 
nan

>  <Peripheral>  (70) 
nan

>  <Num_H_Atoms_ProtBoundConf>  (70) 
nan

>  <Num_Resolved_Atoms>  (70) 
nan

>  <Num_Not_Resolved_Atoms>  (70) 
nan

$$$$
CHEMBL4089903
     RDKit          3D

  0  0  0  0  0  0  0  0  0  0999 V3000
M  V30 BEGIN CTAB
M  V30 COUNTS 27 28 0 0 0
M  V30 BEGIN ATOM
M  V30 1 N 0.197773 -2.407033 4.902292 0
M  V30 2 C 1.264973 -2.422708 3.913392 0
M  V30 3 C 0.948579 -1.657942 2.696722 0
M  V30 4 C 0.325417 -2.353716 1.671803 0
M  V30 5 C -0.006713 -1.698895 0.486707 0
M  V30 6 C 0.272936 -0.358922 0.306507 0
M  V30 7 C -0.080270 0.312605 -0.938440 0
M  V30 8 C 0.769673 1.165205 -1.611300 0
M  V30 9 C 0.395760 1.790088 -2.801382 0
M  V30 10 C -0.876736 1.475862 -3.224048 0
M  V30 11 C -1.790247 0.638795 -2.618718 0
M  V30 12 C -1.350218 0.046272 -1.430500 0
M  V30 13 C 0.887638 0.294140 1.338237 0
M  V30 14 Cl 1.287016 1.993222 1.214548 0
M  V30 15 C 1.226558 -0.331153 2.520827 0
M  V30 16 H 0.005220 -3.407684 5.134742 0
M  V30 17 H 0.500263 -1.976852 5.810060 0
M  V30 18 H 2.179213 -1.968684 4.393215 0
M  V30 19 H 1.588990 -3.456268 3.647799 0
M  V30 20 H 0.075541 -3.402388 1.740219 0
M  V30 21 H -0.494986 -2.222571 -0.329730 0
M  V30 22 H 1.754485 1.358844 -1.210571 0
M  V30 23 H 1.026670 2.453962 -3.346920 0
M  V30 24 H -1.191626 1.956782 -4.158887 0
M  V30 25 H -2.753570 0.485232 -3.063985 0
M  V30 26 H -2.032305 -0.619216 -0.918372 0
M  V30 27 H 1.715624 0.168660 3.354018 0
M  V30 END ATOM
M  V30 BEGIN BOND
M  V30 1 1 1 2
M  V30 2 1 2 3
M  V30 3 2 3 4
M  V30 4 1 4 5
M  V30 5 2 5 6
M  V30 6 1 6 7
M  V30 7 2 7 8
M  V30 8 1 8 9
M  V30 9 2 9 10
M  V30 10 1 10 11
M  V30 11 2 11 12
M  V30 12 1 6 13
M  V30 13 1 13 14
M  V30 14 2 13 15
M  V30 15 1 15 3
M  V30 16 1 12 7
M  V30 17 1 1 16
M  V30 18 1 1 17
M  V30 19 1 2 18
M  V30 20 1 2 19
M  V30 21 1 4 20
M  V30 22 1 5 21
M  V30 23 1 8 22
M  V30 24 1 9 23
M  V30 25 1 10 24
M  V30 26 1 11 25
M  V30 27 1 12 26
M  V30 28 1 15 27
M  V30 END BOND
M  V30 END CTAB
M  END
>  <Dataset>  (71) 
ChEMBL_Kinases

>  <Ligand_Instance>  (71) 
nan

>  <PDB_ID>  (71) 
nan

>  <Standardized_SMILES>  (71) 
NCc1ccc(-c2ccccc2)c(Cl)c1

>  <Name>  (71) 
nan

>  <Pocket>  (71) 
nan

>  <ATP_Site>  (71) 
nan

>  <Peripheral>  (71) 
nan

>  <Num_H_Atoms_ProtBoundConf>  (71) 
nan

>  <Num_Resolved_Atoms>  (71) 
nan

>  <Num_Not_Resolved_Atoms>  (71) 
nan

$$$$
CHEMBL4089892
     RDKit          3D

  0  0  0  0  0  0  0  0  0  0999 V3000
M  V30 BEGIN CTAB
M  V30 COUNTS 55 59 0 0 0
M  V30 BEGIN ATOM
M  V30 1 O 0.414731 0.111291 6.483135 0
M  V30 2 C 1.645983 0.440102 5.950973 0
M  V30 3 C 1.724040 -0.165314 4.578221 0
M  V30 4 C 3.072034 0.160332 3.921553 0
M  V30 5 C 3.088562 -0.482521 2.530723 0
M  V30 6 C 1.986746 0.060830 1.713492 0
M  V30 7 N 1.975441 1.131720 0.895892 0
M  V30 8 C 0.763823 1.273103 0.346658 0
M  V30 9 C 0.400124 2.329668 -0.585773 0
M  V30 10 C -0.023441 2.246188 -1.892854 0
M  V30 11 C -0.317348 3.392758 -2.596983 0
M  V30 12 C -0.210247 4.657172 -2.056526 0
M  V30 13 F -0.507616 5.761140 -2.777492 0
M  V30 14 C 0.215476 4.722950 -0.746558 0
M  V30 15 C 0.519328 3.595694 -0.009631 0
M  V30 16 C -0.026112 0.233234 0.848617 0
M  V30 17 C -1.416487 0.118083 0.424516 0
M  V30 18 C -2.444566 1.023798 0.587467 0
M  V30 19 C -3.703707 0.714713 0.107007 0
M  V30 20 N -3.926362 -0.468806 -0.519067 0
M  V30 21 C -2.948839 -1.377409 -0.696592 0
M  V30 22 N -2.983388 -2.588281 -1.283616 0
M  V30 23 C -1.748997 -3.133286 -1.217635 0
M  V30 24 C -1.267928 -4.441049 -1.713157 0
M  V30 25 C 0.053129 -4.840601 -1.552221 0
M  V30 26 C 0.381747 -6.084586 -2.056179 0
M  V30 27 C -0.480950 -6.950089 -2.696508 0
M  V30 28 C -1.802953 -6.525311 -2.845656 0
M  V30 29 C -2.165665 -5.283821 -2.352076 0
M  V30 30 C -0.952366 -2.213078 -0.568139 0
M  V30 31 C -1.685154 -1.085274 -0.223163 0
M  V30 32 N 0.749430 -0.487614 1.678991 0
M  V30 33 H -0.132370 -0.479692 5.914276 0
M  V30 34 H 2.445221 -0.024516 6.569984 0
M  V30 35 H 1.818709 1.525346 5.913725 0
M  V30 36 H 0.947783 0.343524 3.959360 0
M  V30 37 H 1.557655 -1.246306 4.599164 0
M  V30 38 H 3.193801 1.247330 3.825013 0
M  V30 39 H 3.872605 -0.243782 4.555579 0
M  V30 40 H 4.077203 -0.269273 2.084445 0
M  V30 41 H 2.955394 -1.576673 2.657260 0
M  V30 42 H -0.084551 1.234988 -2.248882 0
M  V30 43 H -0.645432 3.278494 -3.616465 0
M  V30 44 H 0.296697 5.730594 -0.326316 0
M  V30 45 H 0.840058 3.799551 1.002372 0
M  V30 46 H -2.147486 1.929684 1.099784 0
M  V30 47 H -4.475037 1.468009 0.264373 0
M  V30 48 H -3.749677 -3.111759 -1.735456 0
M  V30 49 H 0.759421 -4.201310 -1.060857 0
M  V30 50 H 1.409814 -6.405120 -1.935471 0
M  V30 51 H -0.110270 -7.915061 -3.056905 0
M  V30 52 H -2.487827 -7.198450 -3.346587 0
M  V30 53 H -3.209749 -4.999751 -2.495106 0
M  V30 54 H 0.101321 -2.349597 -0.355686 0
M  V30 55 H 0.333329 -1.322903 2.162225 0
M  V30 END ATOM
M  V30 BEGIN BOND
M  V30 1 1 1 2
M  V30 2 1 2 3
M  V30 3 1 3 4
M  V30 4 1 4 5
M  V30 5 1 5 6
M  V30 6 2 6 7
M  V30 7 1 7 8
M  V30 8 1 8 9
M  V30 9 2 9 10
M  V30 10 1 10 11
M  V30 11 2 11 12
M  V30 12 1 12 13
M  V30 13 1 12 14
M  V30 14 2 14 15
M  V30 15 2 8 16
M  V30 16 1 16 17
M  V30 17 2 17 18
M  V30 18 1 18 19
M  V30 19 2 19 20
M  V30 20 1 20 21
M  V30 21 1 21 22
M  V30 22 1 22 23
M  V30 23 1 23 24
M  V30 24 2 24 25
M  V30 25 1 25 26
M  V30 26 2 26 27
M  V30 27 1 27 28
M  V30 28 2 28 29
M  V30 29 2 23 30
M  V30 30 1 30 31
M  V30 31 1 16 32
M  V30 32 1 32 6
M  V30 33 1 15 9
M  V30 34 1 31 17
M  V30 35 2 31 21
M  V30 36 1 29 24
M  V30 37 1 1 33
M  V30 38 1 2 34
M  V30 39 1 2 35
M  V30 40 1 3 36
M  V30 41 1 3 37
M  V30 42 1 4 38
M  V30 43 1 4 39
M  V30 44 1 5 40
M  V30 45 1 5 41
M  V30 46 1 10 42
M  V30 47 1 11 43
M  V30 48 1 14 44
M  V30 49 1 15 45
M  V30 50 1 18 46
M  V30 51 1 19 47
M  V30 52 1 22 48
M  V30 53 1 25 49
M  V30 54 1 26 50
M  V30 55 1 27 51
M  V30 56 1 28 52
M  V30 57 1 29 53
M  V30 58 1 30 54
M  V30 59 1 32 55
M  V30 END BOND
M  V30 END CTAB
M  END
>  <Dataset>  (72) 
ChEMBL_Kinases

>  <Ligand_Instance>  (72) 
nan

>  <PDB_ID>  (72) 
nan

>  <Standardized_SMILES>  (72) 
OCCCCc1nc(-c2ccc(F)cc2)c(-c2ccnc3[nH]c(-c4ccccc4)cc23)[nH]1

>  <Name>  (72) 
nan

>  <Pocket>  (72) 
nan

>  <ATP_Site>  (72) 
nan

>  <Peripheral>  (72) 
nan

>  <Num_H_Atoms_ProtBoundConf>  (72) 
nan

>  <Num_Resolved_Atoms>  (72) 
nan

>  <Num_Not_Resolved_Atoms>  (72) 
nan

$$$$
CHEMBL4846360
     RDKit          3D

  0  0  0  0  0  0  0  0  0  0999 V3000
M  V30 BEGIN CTAB
M  V30 COUNTS 44 47 0 0 0
M  V30 BEGIN ATOM
M  V30 1 C -0.326075 -5.427282 0.284999 0
M  V30 2 O 0.955376 -4.979602 0.625625 0
M  V30 3 C 1.594004 -3.915530 0.023125 0
M  V30 4 C 0.977824 -3.205979 -0.989929 0
M  V30 5 C 1.632802 -2.145641 -1.579406 0
M  V30 6 C 2.905367 -1.783938 -1.165030 0
M  V30 7 N 3.649783 -0.689220 -1.733612 0
M  V30 8 S 2.802028 0.813289 -1.992621 0
M  V30 9 O 3.798661 1.831590 -2.496799 0
M  V30 10 O 1.659286 0.651382 -2.922543 0
M  V30 11 C 2.281097 1.337587 -0.396551 0
M  V30 12 C 3.041977 2.150204 0.439021 0
M  V30 13 C 2.532521 2.501960 1.676935 0
M  V30 14 C 1.282838 2.075810 2.127346 0
M  V30 15 C 0.504310 1.269139 1.322137 0
M  V30 16 C -0.815620 0.755196 1.669787 0
M  V30 17 N -1.115642 -0.546880 1.431439 0
M  V30 18 N -2.346922 -0.806121 1.814699 0
M  V30 19 C -2.894484 0.296877 2.311351 0
M  V30 20 C -4.116111 0.611127 2.844625 0
M  V30 21 C -4.338344 1.905568 3.272939 0
M  V30 22 F -5.563016 2.214594 3.805942 0
M  V30 23 C -3.369351 2.908957 3.185366 0
M  V30 24 C -2.119142 2.596658 2.642105 0
M  V30 25 C -1.950474 1.300025 2.232898 0
M  V30 26 C 1.042465 0.936369 0.092334 0
M  V30 27 C 3.499621 -2.506926 -0.152498 0
M  V30 28 C 2.858989 -3.571061 0.448884 0
M  V30 29 H -0.806035 -5.970344 1.127581 0
M  V30 30 H -1.003075 -4.543155 0.098558 0
M  V30 31 H -0.354374 -6.032307 -0.650695 0
M  V30 32 H -0.017214 -3.447151 -1.352194 0
M  V30 33 H 1.172302 -1.569747 -2.378402 0
M  V30 34 H 4.666327 -0.886727 -1.951982 0
M  V30 35 H 3.999015 2.469304 0.079518 0
M  V30 36 H 3.141897 3.135575 2.311633 0
M  V30 37 H 0.881111 2.348598 3.094299 0
M  V30 38 H -2.857634 -1.718390 1.758180 0
M  V30 39 H -4.868799 -0.162463 2.914204 0
M  V30 40 H -3.563401 3.915165 3.526140 0
M  V30 41 H -1.339360 3.343365 2.555358 0
M  V30 42 H 0.456379 0.304575 -0.563041 0
M  V30 43 H 4.497335 -2.284154 0.228214 0
M  V30 44 H 3.329641 -4.151115 1.257646 0
M  V30 END ATOM
M  V30 BEGIN BOND
M  V30 1 1 1 2
M  V30 2 1 2 3
M  V30 3 2 3 4
M  V30 4 1 4 5
M  V30 5 2 5 6
M  V30 6 1 6 7
M  V30 7 1 7 8
M  V30 8 2 8 9
M  V30 9 2 8 10
M  V30 10 1 8 11
M  V30 11 2 11 12
M  V30 12 1 12 13
M  V30 13 2 13 14
M  V30 14 1 14 15
M  V30 15 1 15 16
M  V30 16 2 16 17
M  V30 17 1 17 18
M  V30 18 1 18 19
M  V30 19 2 19 20
M  V30 20 1 20 21
M  V30 21 1 21 22
M  V30 22 2 21 23
M  V30 23 1 23 24
M  V30 24 2 24 25
M  V30 25 2 15 26
M  V30 26 1 6 27
M  V30 27 2 27 28
M  V30 28 1 28 3
M  V30 29 1 26 11
M  V30 30 1 25 16
M  V30 31 1 25 19
M  V30 32 1 1 29
M  V30 33 1 1 30
M  V30 34 1 1 31
M  V30 35 1 4 32
M  V30 36 1 5 33
M  V30 37 1 7 34
M  V30 38 1 12 35
M  V30 39 1 13 36
M  V30 40 1 14 37
M  V30 41 1 18 38
M  V30 42 1 20 39
M  V30 43 1 23 40
M  V30 44 1 24 41
M  V30 45 1 26 42
M  V30 46 1 27 43
M  V30 47 1 28 44
M  V30 END BOND
M  V30 END CTAB
M  END
>  <Dataset>  (73) 
ChEMBL_Kinases

>  <Ligand_Instance>  (73) 
nan

>  <PDB_ID>  (73) 
nan

>  <Standardized_SMILES>  (73) 
COc1ccc(NS(=O)(=O)c2cccc(-c3n[nH]c4cc(F)ccc34)c2)cc1

>  <Name>  (73) 
nan

>  <Pocket>  (73) 
nan

>  <ATP_Site>  (73) 
nan

>  <Peripheral>  (73) 
nan

>  <Num_H_Atoms_ProtBoundConf>  (73) 
nan

>  <Num_Resolved_Atoms>  (73) 
nan

>  <Num_Not_Resolved_Atoms>  (73) 
nan

$$$$
CHEMBL4846445
     RDKit          3D

  0  0  0  0  0  0  0  0  0  0999 V3000
M  V30 BEGIN CTAB
M  V30 COUNTS 48 50 0 0 0
M  V30 BEGIN ATOM
M  V30 1 N 3.685325 -5.464407 4.771689 0
M  V30 2 C 3.400451 -4.890459 3.809473 0
M  V30 3 C 3.056610 -4.177962 2.613221 0
M  V30 4 C 2.762904 -2.826104 2.623684 0
M  V30 5 C 2.439266 -2.194763 1.445465 0
M  V30 6 C 2.383340 -2.819154 0.225367 0
M  V30 7 N 2.051780 -2.228890 -1.003812 0
M  V30 8 C 1.598088 -0.905794 -1.246133 0
M  V30 9 N 1.383194 -0.513767 -2.508009 0
M  V30 10 C 0.952338 0.699657 -2.865250 0
M  V30 11 C 0.707135 1.622866 -1.885772 0
M  V30 12 C 0.228424 2.975991 -2.268051 0
M  V30 13 F 0.105960 3.072330 -3.638225 0
M  V30 14 F 1.158565 3.895971 -1.812011 0
M  V30 15 F -0.979941 3.255883 -1.691036 0
M  V30 16 C 0.922822 1.237047 -0.576917 0
M  V30 17 N 0.675485 2.200974 0.466870 0
M  V30 18 C 0.862661 1.891629 1.859356 0
M  V30 19 C -0.097236 0.799603 2.320110 0
M  V30 20 C -1.512524 1.302237 2.111026 0
M  V30 21 N -2.498485 0.345826 2.514991 0
M  V30 22 C -2.594974 -0.835004 1.735142 0
M  V30 23 C -2.933970 -0.705765 0.292101 0
M  V30 24 C -3.797062 -1.964543 0.464784 0
M  V30 25 C -3.952797 -1.507789 1.922381 0
M  V30 26 N 1.350115 0.016160 -0.311547 0
M  V30 27 C 2.691164 -4.164626 0.312266 0
M  V30 28 N 3.006372 -4.802240 1.428249 0
M  V30 29 H 2.798752 -2.311587 3.567865 0
M  V30 30 H 2.229006 -1.156860 1.518382 0
M  V30 31 H 2.156816 -2.855143 -1.847443 0
M  V30 32 H 0.795871 0.966090 -3.887204 0
M  V30 33 H 0.346699 3.161836 0.201548 0
M  V30 34 H 0.640464 2.780028 2.471709 0
M  V30 35 H 1.913721 1.563398 2.022384 0
M  V30 36 H 0.111779 -0.091502 1.705063 0
M  V30 37 H 0.102687 0.565811 3.371060 0
M  V30 38 H -1.647532 2.205265 2.741965 0
M  V30 39 H -1.689366 1.608853 1.065064 0
M  V30 40 H -2.584271 0.192132 3.526336 0
M  V30 41 H -1.780585 -1.579238 1.864725 0
M  V30 42 H -3.606288 0.119499 -0.009372 0
M  V30 43 H -2.111912 -0.924001 -0.406288 0
M  V30 44 H -4.760207 -1.947245 -0.050085 0
M  V30 45 H -3.224766 -2.914295 0.415477 0
M  V30 46 H -3.946615 -2.313372 2.661966 0
M  V30 47 H -4.748541 -0.741679 2.020008 0
M  V30 48 H 2.693301 -4.810113 -0.567845 0
M  V30 END ATOM
M  V30 BEGIN BOND
M  V30 1 3 1 2
M  V30 2 1 2 3
M  V30 3 2 3 4
M  V30 4 1 4 5
M  V30 5 2 5 6
M  V30 6 1 6 7
M  V30 7 1 7 8
M  V30 8 2 8 9
M  V30 9 1 9 10
M  V30 10 2 10 11
M  V30 11 1 11 12
M  V30 12 1 12 13
M  V30 13 1 12 14
M  V30 14 1 12 15
M  V30 15 1 11 16
M  V30 16 1 16 17
M  V30 17 1 17 18
M  V30 18 1 18 19
M  V30 19 1 19 20
M  V30 20 1 20 21
M  V30 21 1 21 22
M  V30 22 1 22 23
M  V30 23 1 23 24
M  V30 24 1 24 25
M  V30 25 2 16 26
M  V30 26 1 6 27
M  V30 27 2 27 28
M  V30 28 1 28 3
M  V30 29 1 26 8
M  V30 30 1 25 22
M  V30 31 1 4 29
M  V30 32 1 5 30
M  V30 33 1 7 31
M  V30 34 1 10 32
M  V30 35 1 17 33
M  V30 36 1 18 34
M  V30 37 1 18 35
M  V30 38 1 19 36
M  V30 39 1 19 37
M  V30 40 1 20 38
M  V30 41 1 20 39
M  V30 42 1 21 40
M  V30 43 1 22 41
M  V30 44 1 23 42
M  V30 45 1 23 43
M  V30 46 1 24 44
M  V30 47 1 24 45
M  V30 48 1 25 46
M  V30 49 1 25 47
M  V30 50 1 27 48
M  V30 END BOND
M  V30 END CTAB
M  END
>  <Dataset>  (74) 
ChEMBL_Kinases

>  <Ligand_Instance>  (74) 
nan

>  <PDB_ID>  (74) 
nan

>  <Standardized_SMILES>  (74) 
N#Cc1ccc(Nc2ncc(C(F)(F)F)c(NCCCNC3CCC3)n2)cn1

>  <Name>  (74) 
nan

>  <Pocket>  (74) 
nan

>  <ATP_Site>  (74) 
nan

>  <Peripheral>  (74) 
nan

>  <Num_H_Atoms_ProtBoundConf>  (74) 
nan

>  <Num_Resolved_Atoms>  (74) 
nan

>  <Num_Not_Resolved_Atoms>  (74) 
nan

$$$$
CHEMBL4089811
     RDKit          3D

  0  0  0  0  0  0  0  0  0  0999 V3000
M  V30 BEGIN CTAB
M  V30 COUNTS 36 38 0 0 0
M  V30 BEGIN ATOM
M  V30 1 C -1.562423 -1.732317 3.593747 0
M  V30 2 O -0.785580 -2.832323 3.920307 0
M  V30 3 C -0.750421 -3.833600 2.986110 0
M  V30 4 C -0.185514 -3.352902 1.662512 0
M  V30 5 N 1.159464 -2.861691 1.802938 0
M  V30 6 C 1.867608 -2.321214 0.674638 0
M  V30 7 C 1.157195 -1.305056 0.015700 0
M  V30 8 C 1.644461 -0.622392 -1.107679 0
M  V30 9 C 0.831447 0.432001 -1.698578 0
M  V30 10 N 0.466453 0.720034 -2.961628 0
M  V30 11 N -0.290028 1.816082 -2.979553 0
M  V30 12 C -0.450198 2.289428 -1.724681 0
M  V30 13 C -1.112988 3.361125 -1.187646 0
M  V30 14 C -1.120626 3.642245 0.183173 0
M  V30 15 C -0.405947 2.762370 0.998111 0
M  V30 16 C 0.245512 1.700496 0.425835 0
M  V30 17 C 0.254081 1.420529 -0.921666 0
M  V30 18 C 2.890452 -0.989939 -1.570474 0
M  V30 19 C 3.537506 -1.993850 -0.882461 0
M  V30 20 N 3.072514 -2.638066 0.183220 0
M  V30 21 H -1.506563 -1.003510 4.436037 0
M  V30 22 H -2.594005 -2.063661 3.423592 0
M  V30 23 H -1.229456 -1.247000 2.635277 0
M  V30 24 H -0.142059 -4.700784 3.349459 0
M  V30 25 H -1.774115 -4.270561 2.796307 0
M  V30 26 H -0.857011 -2.600853 1.206859 0
M  V30 27 H -0.168242 -4.213188 0.938437 0
M  V30 28 H 1.749864 -2.835032 2.669011 0
M  V30 29 H 0.166488 -1.003984 0.354676 0
M  V30 30 H -0.733770 2.303710 -3.795552 0
M  V30 31 H -1.669654 4.049973 -1.805684 0
M  V30 32 H -1.640855 4.480974 0.611323 0
M  V30 33 H -0.418610 2.989231 2.059684 0
M  V30 34 H 0.763162 1.109514 1.162751 0
M  V30 35 H 3.280422 -0.476892 -2.434158 0
M  V30 36 H 4.525104 -2.305769 -1.224961 0
M  V30 END ATOM
M  V30 BEGIN BOND
M  V30 1 1 1 2
M  V30 2 1 2 3
M  V30 3 1 3 4
M  V30 4 1 4 5
M  V30 5 1 5 6
M  V30 6 2 6 7
M  V30 7 1 7 8
M  V30 8 1 8 9
M  V30 9 2 9 10
M  V30 10 1 10 11
M  V30 11 1 11 12
M  V30 12 2 12 13
M  V30 13 1 13 14
M  V30 14 2 14 15
M  V30 15 1 15 16
M  V30 16 2 16 17
M  V30 17 2 8 18
M  V30 18 1 18 19
M  V30 19 2 19 20
M  V30 20 1 20 6
M  V30 21 1 17 9
M  V30 22 1 17 12
M  V30 23 1 1 21
M  V30 24 1 1 22
M  V30 25 1 1 23
M  V30 26 1 3 24
M  V30 27 1 3 25
M  V30 28 1 4 26
M  V30 29 1 4 27
M  V30 30 1 5 28
M  V30 31 1 7 29
M  V30 32 1 11 30
M  V30 33 1 13 31
M  V30 34 1 14 32
M  V30 35 1 15 33
M  V30 36 1 16 34
M  V30 37 1 18 35
M  V30 38 1 19 36
M  V30 END BOND
M  V30 END CTAB
M  END
>  <Dataset>  (75) 
ChEMBL_Kinases

>  <Ligand_Instance>  (75) 
nan

>  <PDB_ID>  (75) 
nan

>  <Standardized_SMILES>  (75) 
COCCNc1cc(-c2n[nH]c3ccccc23)ccn1

>  <Name>  (75) 
nan

>  <Pocket>  (75) 
nan

>  <ATP_Site>  (75) 
nan

>  <Peripheral>  (75) 
nan

>  <Num_H_Atoms_ProtBoundConf>  (75) 
nan

>  <Num_Resolved_Atoms>  (75) 
nan

>  <Num_Not_Resolved_Atoms>  (75) 
nan

$$$$
CHEMBL4089765
     RDKit          3D

  0  0  0  0  0  0  0  0  0  0999 V3000
M  V30 BEGIN CTAB
M  V30 COUNTS 57 59 0 0 0
M  V30 BEGIN ATOM
M  V30 1 C 4.744700 -0.604456 -3.674581 0
M  V30 2 C 3.479341 -0.977798 -3.002615 0
M  V30 3 C 3.454921 -1.658171 -1.805861 0
M  V30 4 C 2.255540 -1.999711 -1.190318 0
M  V30 5 C 1.020406 -1.663833 -1.766022 0
M  V30 6 C -0.030285 -2.172533 -0.900638 0
M  V30 7 C -0.557279 -1.531135 0.195118 0
M  V30 8 C -0.374185 -0.258366 0.852620 0
M  V30 9 C -0.388564 0.991545 0.507791 0
M  V30 10 C -0.655462 1.237944 -0.882816 0
M  V30 11 N -0.887613 1.433820 -1.985627 0
M  V30 12 C -0.154335 2.107467 1.382039 0
M  V30 13 O -0.203037 3.285535 0.928585 0
M  V30 14 N 0.143431 2.060581 2.767480 0
M  V30 15 C 0.372520 3.196131 3.615760 0
M  V30 16 C 1.847139 3.210512 4.001174 0
M  V30 17 C -0.413190 3.210942 4.884355 0
M  V30 18 N -1.478029 -2.430963 0.647690 0
M  V30 19 C -2.343506 -2.248834 1.812179 0
M  V30 20 C -3.608608 -1.585962 1.277997 0
M  V30 21 C -4.607095 -1.334714 2.377038 0
M  V30 22 O -4.939047 -2.567404 2.949155 0
M  V30 23 C -1.520825 -3.525539 -0.094079 0
M  V30 24 N -2.256798 -4.655840 -0.031004 0
M  V30 25 C -2.075305 -5.618240 -0.946321 0
M  V30 26 N -1.163861 -5.502095 -1.954987 0
M  V30 27 C -0.400466 -4.390541 -2.064758 0
M  V30 28 N 0.560774 -4.196398 -3.076111 0
M  V30 29 C -0.600394 -3.410343 -1.114286 0
M  V30 30 C 1.067150 -0.984449 -2.961611 0
M  V30 31 C 2.259045 -0.653927 -3.557110 0
M  V30 32 H 5.281266 0.206162 -3.099185 0
M  V30 33 H 5.438862 -1.457774 -3.809400 0
M  V30 34 H 4.566367 -0.164565 -4.671096 0
M  V30 35 H 4.442921 -1.890027 -1.412394 0
M  V30 36 H 2.458260 -2.534458 -0.253364 0
M  V30 37 H -0.163515 -0.380005 1.934011 0
M  V30 38 H 0.205190 1.125163 3.225030 0
M  V30 39 H 0.201336 4.116193 2.998653 0
M  V30 40 H 2.367318 4.106511 3.608829 0
M  V30 41 H 2.361031 2.318648 3.597807 0
M  V30 42 H 2.000358 3.192301 5.092891 0
M  V30 43 H 0.081643 2.573963 5.673056 0
M  V30 44 H -0.476933 4.219550 5.290119 0
M  V30 45 H -1.435112 2.766036 4.785526 0
M  V30 46 H -2.562321 -3.218520 2.255195 0
M  V30 47 H -1.817420 -1.568921 2.518243 0
M  V30 48 H -3.328706 -0.616260 0.818611 0
M  V30 49 H -4.050115 -2.208102 0.483342 0
M  V30 50 H -5.498113 -0.857301 1.908732 0
M  V30 51 H -4.137835 -0.654022 3.096317 0
M  V30 52 H -5.929234 -2.594283 3.002204 0
M  V30 53 H -2.668797 -6.542225 -0.903817 0
M  V30 54 H 1.527092 -4.506521 -2.821168 0
M  V30 55 H 0.433584 -3.789267 -4.029873 0
M  V30 56 H 0.057824 -0.797031 -3.295443 0
M  V30 57 H 2.159982 -0.122222 -4.491971 0
M  V30 END ATOM
M  V30 BEGIN BOND
M  V30 1 1 1 2
M  V30 2 2 2 3
M  V30 3 1 3 4
M  V30 4 2 4 5
M  V30 5 1 5 6
M  V30 6 2 6 7
M  V30 7 1 7 8
M  V30 8 2 8 9
M  V30 9 1 9 10
M  V30 10 3 10 11
M  V30 11 1 9 12
M  V30 12 2 12 13
M  V30 13 1 12 14
M  V30 14 1 14 15
M  V30 15 1 15 16
M  V30 16 1 15 17
M  V30 17 1 7 18
M  V30 18 1 18 19
M  V30 19 1 19 20
M  V30 20 1 20 21
M  V30 21 1 21 22
M  V30 22 1 18 23
M  V30 23 2 23 24
M  V30 24 1 24 25
M  V30 25 2 25 26
M  V30 26 1 26 27
M  V30 27 1 27 28
M  V30 28 2 27 29
M  V30 29 1 5 30
M  V30 30 2 30 31
M  V30 31 1 31 2
M  V30 32 1 29 6
M  V30 33 1 29 23
M  V30 34 1 1 32
M  V30 35 1 1 33
M  V30 36 1 1 34
M  V30 37 1 3 35
M  V30 38 1 4 36
M  V30 39 1 8 37
M  V30 40 1 14 38
M  V30 41 1 15 39
M  V30 42 1 16 40
M  V30 43 1 16 41
M  V30 44 1 16 42
M  V30 45 1 17 43
M  V30 46 1 17 44
M  V30 47 1 17 45
M  V30 48 1 19 46
M  V30 49 1 19 47
M  V30 50 1 20 48
M  V30 51 1 20 49
M  V30 52 1 21 50
M  V30 53 1 21 51
M  V30 54 1 22 52
M  V30 55 1 25 53
M  V30 56 1 28 54
M  V30 57 1 28 55
M  V30 58 1 30 56
M  V30 59 1 31 57
M  V30 END BOND
M  V30 END CTAB
M  END
>  <Dataset>  (76) 
ChEMBL_Kinases

>  <Ligand_Instance>  (76) 
nan

>  <PDB_ID>  (76) 
nan

>  <Standardized_SMILES>  (76) 
Cc1ccc(-c2c(/C=C(\C#N)C(=O)NC(C)C)n(CCCO)c3ncnc(N)c23)cc1

>  <Name>  (76) 
nan

>  <Pocket>  (76) 
nan

>  <ATP_Site>  (76) 
nan

>  <Peripheral>  (76) 
nan

>  <Num_H_Atoms_ProtBoundConf>  (76) 
nan

>  <Num_Resolved_Atoms>  (76) 
nan

>  <Num_Not_Resolved_Atoms>  (76) 
nan

$$$$
CHEMBL4089737
     RDKit          3D

  0  0  0  0  0  0  0  0  0  0999 V3000
M  V30 BEGIN CTAB
M  V30 COUNTS 39 41 0 0 0
M  V30 BEGIN ATOM
M  V30 1 O 0.705163 -1.595511 -2.273358 0
M  V30 2 C 0.283299 -1.162117 -1.158647 0
M  V30 3 N -0.007190 -2.263968 -0.336974 0
M  V30 4 C 0.283700 -3.472054 -1.070446 0
M  V30 5 C -0.738737 -4.036890 -1.833844 0
M  V30 6 C -0.364628 -5.183673 -2.494523 0
M  V30 7 C 0.872715 -5.778667 -2.458650 0
M  V30 8 N 1.821695 -5.191637 -1.706500 0
M  V30 9 C 1.533618 -4.063898 -1.027822 0
M  V30 10 C 0.149899 0.256013 -0.855666 0
M  V30 11 C 0.536673 1.079611 -1.924476 0
M  V30 12 C 0.487603 2.451215 -1.845632 0
M  V30 13 F 0.866979 3.220735 -2.892369 0
M  V30 14 C 0.051679 3.083361 -0.701182 0
M  V30 15 C -0.320613 2.246572 0.329154 0
M  V30 16 C -0.290611 0.868401 0.302050 0
M  V30 17 O -0.646691 0.038992 1.287821 0
M  V30 18 C -1.119534 0.113167 2.559765 0
M  V30 19 C -0.313827 0.792389 3.574856 0
M  V30 20 C 0.664665 0.032369 4.235016 0
M  V30 21 C 1.509796 0.490520 5.223534 0
M  V30 22 C 1.388056 1.811129 5.601572 0
M  V30 23 C 0.447651 2.615378 4.995036 0
M  V30 24 C -0.368258 2.098910 4.013077 0
M  V30 25 H -0.361578 -2.082368 0.606479 0
M  V30 26 H -1.725538 -3.632760 -1.911340 0
M  V30 27 H -1.136882 -5.660408 -3.105933 0
M  V30 28 H 1.037193 -6.692493 -3.033632 0
M  V30 29 H 2.315076 -3.604184 -0.424902 0
M  V30 30 H 0.899600 0.690605 -2.882694 0
M  V30 31 H -0.000418 4.158410 -0.602815 0
M  V30 32 H -0.662042 2.739559 1.216962 0
M  V30 33 H -1.259611 -0.954137 2.920390 0
M  V30 34 H -2.179079 0.516429 2.634885 0
M  V30 35 H 0.787323 -1.019201 3.958840 0
M  V30 36 H 2.233177 -0.173653 5.673182 0
M  V30 37 H 2.016768 2.239436 6.369615 0
M  V30 38 H 0.301266 3.673038 5.250591 0
M  V30 39 H -1.111391 2.710577 3.534695 0
M  V30 END ATOM
M  V30 BEGIN BOND
M  V30 1 2 1 2
M  V30 2 1 2 3
M  V30 3 1 3 4
M  V30 4 2 4 5
M  V30 5 1 5 6
M  V30 6 2 6 7
M  V30 7 1 7 8
M  V30 8 2 8 9
M  V30 9 1 2 10
M  V30 10 2 10 11
M  V30 11 1 11 12
M  V30 12 1 12 13
M  V30 13 2 12 14
M  V30 14 1 14 15
M  V30 15 2 15 16
M  V30 16 1 16 17
M  V30 17 1 17 18
M  V30 18 1 18 19
M  V30 19 2 19 20
M  V30 20 1 20 21
M  V30 21 2 21 22
M  V30 22 1 22 23
M  V30 23 2 23 24
M  V30 24 1 9 4
M  V30 25 1 16 10
M  V30 26 1 24 19
M  V30 27 1 3 25
M  V30 28 1 5 26
M  V30 29 1 6 27
M  V30 30 1 7 28
M  V30 31 1 9 29
M  V30 32 1 11 30
M  V30 33 1 14 31
M  V30 34 1 15 32
M  V30 35 1 18 33
M  V30 36 1 18 34
M  V30 37 1 20 35
M  V30 38 1 21 36
M  V30 39 1 22 37
M  V30 40 1 23 38
M  V30 41 1 24 39
M  V30 END BOND
M  V30 END CTAB
M  END
>  <Dataset>  (77) 
ChEMBL_Kinases

>  <Ligand_Instance>  (77) 
nan

>  <PDB_ID>  (77) 
nan

>  <Standardized_SMILES>  (77) 
O=C(Nc1cccnc1)c1cc(F)ccc1OCc1ccccc1

>  <Name>  (77) 
nan

>  <Pocket>  (77) 
nan

>  <ATP_Site>  (77) 
nan

>  <Peripheral>  (77) 
nan

>  <Num_H_Atoms_ProtBoundConf>  (77) 
nan

>  <Num_Resolved_Atoms>  (77) 
nan

>  <Num_Not_Resolved_Atoms>  (77) 
nan

$$$$
CHEMBL4846455
     RDKit          3D

  0  0  0  0  0  0  0  0  0  0999 V3000
M  V30 BEGIN CTAB
M  V30 COUNTS 49 51 0 0 0
M  V30 BEGIN ATOM
M  V30 1 C 1.144015 -3.115215 0.766689 0
M  V30 2 N 2.513508 -2.914081 1.103279 0
M  V30 3 C 3.451846 -1.869813 0.891729 0
M  V30 4 N 3.005832 -0.800980 0.207280 0
M  V30 5 C 3.753839 0.263648 -0.099670 0
M  V30 6 N 3.139141 1.332279 -0.823828 0
M  V30 7 C 1.779108 1.512598 -1.121030 0
M  V30 8 C 1.396122 2.354237 -2.173801 0
M  V30 9 N 0.071869 2.520607 -2.420294 0
M  V30 10 C -0.897411 1.923105 -1.711727 0
M  V30 11 C -2.275134 2.196006 -2.089387 0
M  V30 12 N -3.370129 2.426851 -2.374621 0
M  V30 13 C -0.568330 1.072290 -0.647391 0
M  V30 14 O -1.660831 0.546675 -0.023001 0
M  V30 15 C -1.676173 -0.284071 1.117648 0
M  V30 16 C -2.249503 -1.645482 0.894059 0
M  V30 17 C -3.701705 -1.818853 1.088867 0
M  V30 18 N -4.406431 -0.800004 1.727280 0
M  V30 19 C -5.741321 -1.003801 2.060751 0
M  V30 20 C -3.832226 0.463454 1.893256 0
M  V30 21 C -2.373909 0.421770 2.279853 0
M  V30 22 C 0.776321 0.909026 -0.403348 0
M  V30 23 N 5.027799 0.289674 0.288582 0
M  V30 24 C 5.505175 -0.753095 0.970595 0
M  V30 25 C 4.770253 -1.876246 1.311211 0
M  V30 26 C 5.220947 -3.051750 2.067173 0
M  V30 27 F 6.566834 -2.872266 2.404540 0
M  V30 28 F 5.171663 -4.229932 1.376928 0
M  V30 29 F 4.542473 -3.121031 3.284652 0
M  V30 30 H 0.556380 -3.669769 1.492688 0
M  V30 31 H 1.133893 -3.732790 -0.176863 0
M  V30 32 H 0.627939 -2.156651 0.478265 0
M  V30 33 H 2.886709 -3.740020 1.625485 0
M  V30 34 H 3.817177 2.070145 -1.168796 0
M  V30 35 H 2.106496 2.873813 -2.790329 0
M  V30 36 H -0.618534 -0.377371 1.459022 0
M  V30 37 H -1.721880 -2.353743 1.595854 0
M  V30 38 H -1.891630 -1.988236 -0.116351 0
M  V30 39 H -4.170571 -1.969842 0.079537 0
M  V30 40 H -3.923302 -2.797771 1.611044 0
M  V30 41 H -5.887398 -0.791781 3.138821 0
M  V30 42 H -6.416710 -0.318735 1.513310 0
M  V30 43 H -6.043615 -2.049081 1.864894 0
M  V30 44 H -4.359948 1.084624 2.620644 0
M  V30 45 H -3.875018 0.985936 0.904682 0
M  V30 46 H -2.246795 -0.193413 3.161290 0
M  V30 47 H -1.973031 1.442347 2.385692 0
M  V30 48 H 0.968069 0.262217 0.415629 0
M  V30 49 H 6.541026 -0.762927 1.304809 0
M  V30 END ATOM
M  V30 BEGIN BOND
M  V30 1 1 1 2
M  V30 2 1 2 3
M  V30 3 2 3 4
M  V30 4 1 4 5
M  V30 5 1 5 6
M  V30 6 1 6 7
M  V30 7 2 7 8
M  V30 8 1 8 9
M  V30 9 2 9 10
M  V30 10 1 10 11
M  V30 11 3 11 12
M  V30 12 1 10 13
M  V30 13 1 13 14
M  V30 14 1 14 15
M  V30 15 1 15 16
M  V30 16 1 16 17
M  V30 17 1 17 18
M  V30 18 1 18 19
M  V30 19 1 18 20
M  V30 20 1 20 21
M  V30 21 2 13 22
M  V30 22 2 5 23
M  V30 23 1 23 24
M  V30 24 2 24 25
M  V30 25 1 25 26
M  V30 26 1 26 27
M  V30 27 1 26 28
M  V30 28 1 26 29
M  V30 29 1 25 3
M  V30 30 1 22 7
M  V30 31 1 21 15
M  V30 32 1 1 30
M  V30 33 1 1 31
M  V30 34 1 1 32
M  V30 35 1 2 33
M  V30 36 1 6 34
M  V30 37 1 8 35
M  V30 38 1 15 36
M  V30 39 1 16 37
M  V30 40 1 16 38
M  V30 41 1 17 39
M  V30 42 1 17 40
M  V30 43 1 19 41
M  V30 44 1 19 42
M  V30 45 1 19 43
M  V30 46 1 20 44
M  V30 47 1 20 45
M  V30 48 1 21 46
M  V30 49 1 21 47
M  V30 50 1 22 48
M  V30 51 1 24 49
M  V30 END BOND
M  V30 END CTAB
M  END
>  <Dataset>  (78) 
ChEMBL_Kinases

>  <Ligand_Instance>  (78) 
nan

>  <PDB_ID>  (78) 
nan

>  <Standardized_SMILES>  (78) 
CNc1nc(Nc2cnc(C#N)c(OC3CCN(C)CC3)c2)ncc1C(F)(F)F

>  <Name>  (78) 
nan

>  <Pocket>  (78) 
nan

>  <ATP_Site>  (78) 
nan

>  <Peripheral>  (78) 
nan

>  <Num_H_Atoms_ProtBoundConf>  (78) 
nan

>  <Num_Resolved_Atoms>  (78) 
nan

>  <Num_Not_Resolved_Atoms>  (78) 
nan

$$$$
CHEMBL4089709
     RDKit          3D

  0  0  0  0  0  0  0  0  0  0999 V3000
M  V30 BEGIN CTAB
M  V30 COUNTS 57 61 0 0 0
M  V30 BEGIN ATOM
M  V30 1 C 3.695399 -0.746961 2.879930 0
M  V30 2 N 3.525119 0.655653 2.644815 0
M  V30 3 N 4.120944 1.460881 3.501132 0
M  V30 4 C 3.904618 2.737994 3.142955 0
M  V30 5 C 3.125268 2.626222 1.995799 0
M  V30 6 C 2.874228 1.282235 1.667197 0
M  V30 7 C 2.156574 0.743610 0.535622 0
M  V30 8 C 2.507838 1.113434 -0.745722 0
M  V30 9 C 1.813989 0.602246 -1.822526 0
M  V30 10 C 0.764084 -0.278293 -1.679638 0
M  V30 11 C 0.413652 -0.647658 -0.373235 0
M  V30 12 C 1.127701 -0.119485 0.712677 0
M  V30 13 C 0.480831 -0.661866 1.913508 0
M  V30 14 O 0.638053 -1.524971 2.845923 0
M  V30 15 N -0.787354 -0.056196 2.212912 0
M  V30 16 C -1.711837 -0.336304 3.309955 0 CFG=2
M  V30 17 C -1.143690 0.000438 4.661876 0
M  V30 18 O -1.989175 -0.227451 5.719966 0
M  V30 19 C -2.251217 -1.716803 3.216822 0
M  V30 20 C -2.602764 -1.942089 1.879146 0
M  V30 21 C -3.147053 -3.155837 1.474666 0
M  V30 22 C -3.350892 -4.166321 2.393606 0
M  V30 23 C -2.998832 -3.924167 3.705988 0
M  V30 24 C -2.459221 -2.727024 4.120314 0
M  V30 25 C 0.272968 -0.609945 -3.028734 0
M  V30 26 C -0.736425 -1.406811 -3.279675 0
M  V30 27 C -1.256115 -1.768293 -4.587798 0
M  V30 28 C -2.641122 -1.697978 -4.812248 0
M  V30 29 C -2.950029 -2.095693 -6.081307 0
M  V30 30 C -1.740853 -2.417377 -6.652586 0
M  V30 31 N -0.781716 -2.208744 -5.737621 0
M  V30 32 C 1.055356 0.098727 -4.007281 0
M  V30 33 O 0.913603 0.056113 -5.250653 0
M  V30 34 N 2.003974 0.840963 -3.208634 0
M  V30 35 H 4.794205 -0.992851 2.996495 0
M  V30 36 H 3.272301 -1.371236 2.063126 0
M  V30 37 H 3.206488 -1.004401 3.839104 0
M  V30 38 H 4.228383 3.666208 3.590546 0
M  V30 39 H 2.758465 3.496956 1.431284 0
M  V30 40 H 3.344968 1.814019 -0.836472 0
M  V30 41 H -0.424083 -1.345676 -0.390209 0
M  V30 42 H -1.120926 0.720976 1.543382 0
M  V30 43 H -2.589236 0.328793 3.173146 0
M  V30 44 H -0.818909 1.055905 4.730429 0
M  V30 45 H -0.203491 -0.589555 4.861964 0
M  V30 46 H -2.949591 -0.029483 5.545783 0
M  V30 47 H -2.524343 -1.283284 1.000875 0
M  V30 48 H -3.448081 -3.430809 0.470226 0
M  V30 49 H -3.764541 -5.140839 2.165256 0
M  V30 50 H -3.133747 -4.662852 4.460618 0
M  V30 51 H -2.152085 -2.430415 5.108306 0
M  V30 52 H -1.247772 -1.856402 -2.411500 0
M  V30 53 H -3.430165 -1.386252 -4.128700 0
M  V30 54 H -3.926716 -2.150452 -6.546365 0
M  V30 55 H -1.584668 -2.774860 -7.662529 0
M  V30 56 H 0.207268 -2.392074 -5.919256 0
M  V30 57 H 2.722387 1.462583 -3.661569 0
M  V30 END ATOM
M  V30 BEGIN BOND
M  V30 1 1 1 2
M  V30 2 1 2 3
M  V30 3 2 3 4
M  V30 4 1 4 5
M  V30 5 2 5 6
M  V30 6 1 6 7
M  V30 7 2 7 8
M  V30 8 1 8 9
M  V30 9 2 9 10
M  V30 10 1 10 11
M  V30 11 2 11 12
M  V30 12 1 12 13
M  V30 13 2 13 14
M  V30 14 1 13 15
M  V30 15 1 15 16
M  V30 16 1 16 17
M  V30 17 1 17 18
M  V30 18 1 16 19
M  V30 19 2 19 20
M  V30 20 1 20 21
M  V30 21 2 21 22
M  V30 22 1 22 23
M  V30 23 2 23 24
M  V30 24 1 10 25
M  V30 25 2 25 26
M  V30 26 1 26 27
M  V30 27 2 27 28
M  V30 28 1 28 29
M  V30 29 2 29 30
M  V30 30 1 30 31
M  V30 31 1 25 32
M  V30 32 2 32 33
M  V30 33 1 32 34
M  V30 34 1 6 2
M  V30 35 1 12 7
M  V30 36 1 24 19
M  V30 37 1 31 27
M  V30 38 1 34 9
M  V30 39 1 1 35
M  V30 40 1 1 36
M  V30 41 1 1 37
M  V30 42 1 4 38
M  V30 43 1 5 39
M  V30 44 1 8 40
M  V30 45 1 11 41
M  V30 46 1 15 42
M  V30 47 1 16 43 CFG=3
M  V30 48 1 17 44
M  V30 49 1 17 45
M  V30 50 1 18 46
M  V30 51 1 20 47
M  V30 52 1 21 48
M  V30 53 1 22 49
M  V30 54 1 23 50
M  V30 55 1 24 51
M  V30 56 1 26 52
M  V30 57 1 28 53
M  V30 58 1 29 54
M  V30 59 1 30 55
M  V30 60 1 31 56
M  V30 61 1 34 57
M  V30 END BOND
M  V30 END CTAB
M  END
>  <Dataset>  (79) 
ChEMBL_Kinases

>  <Ligand_Instance>  (79) 
nan

>  <PDB_ID>  (79) 
nan

>  <Standardized_SMILES>  (79) 
Cn1nccc1-c1cc2c(cc1C(=O)N[C@H](CO)c1ccccc1)/C(=C/c1ccc[nH]1)C(=O)N2

>  <Name>  (79) 
nan

>  <Pocket>  (79) 
nan

>  <ATP_Site>  (79) 
nan

>  <Peripheral>  (79) 
nan

>  <Num_H_Atoms_ProtBoundConf>  (79) 
nan

>  <Num_Resolved_Atoms>  (79) 
nan

>  <Num_Not_Resolved_Atoms>  (79) 
nan

$$$$
CHEMBL4089702
     RDKit          3D

  0  0  0  0  0  0  0  0  0  0999 V3000
M  V30 BEGIN CTAB
M  V30 COUNTS 46 49 0 0 0
M  V30 BEGIN ATOM
M  V30 1 C 1.467556 -2.856043 2.307234 0
M  V30 2 N 0.171841 -2.586463 1.730871 0
M  V30 3 C 0.067964 -1.764538 0.688829 0
M  V30 4 N 1.127703 -1.068692 0.055525 0
M  V30 5 C 0.717624 -0.322742 -1.132421 0
M  V30 6 C 1.883237 0.137098 -1.972831 0
M  V30 7 N 2.511067 1.164621 -1.144486 0
M  V30 8 C 2.913800 0.557976 0.078390 0
M  V30 9 C 2.669168 1.363693 1.297248 0
M  V30 10 C 1.493844 2.014235 1.574498 0
M  V30 11 C 1.256814 2.771334 2.713279 0
M  V30 12 C 2.256464 2.899127 3.655728 0
M  V30 13 C 3.463485 2.269692 3.437233 0
M  V30 14 C 3.642059 1.531147 2.288912 0
M  V30 15 Br 5.331322 0.659633 1.995800 0
M  V30 16 C 2.493876 -0.894354 0.260746 0
M  V30 17 N -1.201848 -1.621203 0.258283 0
M  V30 18 C -2.280541 -2.199205 0.763455 0
M  V30 19 C -3.548781 -1.880620 0.117024 0
M  V30 20 C -3.598263 -1.019030 -0.964906 0
M  V30 21 C -4.817111 -0.718907 -1.575669 0
M  V30 22 N -5.972783 -1.268221 -1.116953 0
M  V30 23 C -5.893211 -2.099374 -0.068103 0
M  V30 24 N -4.713629 -2.406751 0.544029 0
M  V30 25 C -2.150053 -3.029734 1.821811 0
M  V30 26 C -0.874741 -3.211718 2.300808 0
M  V30 27 O -0.726978 -3.987159 3.294536 0
M  V30 28 H 2.187655 -3.256259 1.567067 0
M  V30 29 H 1.820479 -2.105132 3.009514 0
M  V30 30 H 1.379499 -3.766134 2.995981 0
M  V30 31 H 0.132385 -0.991715 -1.831606 0
M  V30 32 H 0.021483 0.487483 -0.897085 0
M  V30 33 H 2.535090 -0.685512 -2.246677 0
M  V30 34 H 1.416125 0.639757 -2.862804 0
M  V30 35 H 1.711039 1.857657 -0.996849 0
M  V30 36 H 4.049980 0.514102 0.010283 0
M  V30 37 H 0.680390 1.949113 0.876673 0
M  V30 38 H 0.317049 3.271815 2.899958 0
M  V30 39 H 2.118866 3.469236 4.547839 0
M  V30 40 H 4.300095 2.327062 4.139651 0
M  V30 41 H 2.936991 -1.077708 1.256922 0
M  V30 42 H 3.054704 -1.513001 -0.474462 0
M  V30 43 H -2.702933 -0.553831 -1.370546 0
M  V30 44 H -4.873986 -0.037511 -2.432736 0
M  V30 45 H -6.860019 -2.510666 0.255626 0
M  V30 46 H -3.026482 -3.499031 2.232283 0
M  V30 END ATOM
M  V30 BEGIN BOND
M  V30 1 1 1 2
M  V30 2 1 2 3
M  V30 3 1 3 4
M  V30 4 1 4 5
M  V30 5 1 5 6
M  V30 6 1 6 7
M  V30 7 1 7 8
M  V30 8 1 8 9
M  V30 9 2 9 10
M  V30 10 1 10 11
M  V30 11 2 11 12
M  V30 12 1 12 13
M  V30 13 2 13 14
M  V30 14 1 14 15
M  V30 15 1 8 16
M  V30 16 2 3 17
M  V30 17 1 17 18
M  V30 18 1 18 19
M  V30 19 2 19 20
M  V30 20 1 20 21
M  V30 21 2 21 22
M  V30 22 1 22 23
M  V30 23 2 23 24
M  V30 24 2 18 25
M  V30 25 1 25 26
M  V30 26 2 26 27
M  V30 27 1 26 2
M  V30 28 1 16 4
M  V30 29 1 24 19
M  V30 30 1 14 9
M  V30 31 1 1 28
M  V30 32 1 1 29
M  V30 33 1 1 30
M  V30 34 1 5 31
M  V30 35 1 5 32
M  V30 36 1 6 33
M  V30 37 1 6 34
M  V30 38 1 7 35
M  V30 39 1 8 36
M  V30 40 1 10 37
M  V30 41 1 11 38
M  V30 42 1 12 39
M  V30 43 1 13 40
M  V30 44 1 16 41
M  V30 45 1 16 42
M  V30 46 1 20 43
M  V30 47 1 21 44
M  V30 48 1 23 45
M  V30 49 1 25 46
M  V30 END BOND
M  V30 END CTAB
M  END
>  <Dataset>  (80) 
ChEMBL_Kinases

>  <Ligand_Instance>  (80) 
nan

>  <PDB_ID>  (80) 
nan

>  <Standardized_SMILES>  (80) 
Cn1c(N2CCNC(c3ccccc3Br)C2)nc(-c2ccncn2)cc1=O

>  <Name>  (80) 
nan

>  <Pocket>  (80) 
nan

>  <ATP_Site>  (80) 
nan

>  <Peripheral>  (80) 
nan

>  <Num_H_Atoms_ProtBoundConf>  (80) 
nan

>  <Num_Resolved_Atoms>  (80) 
nan

>  <Num_Not_Resolved_Atoms>  (80) 
nan

$$$$
CHEMBL4846712
     RDKit          3D

  0  0  0  0  0  0  0  0  0  0999 V3000
M  V30 BEGIN CTAB
M  V30 COUNTS 50 53 0 0 0
M  V30 BEGIN ATOM
M  V30 1 N 4.934420 -5.269132 3.268363 0
M  V30 2 C 4.001226 -4.800707 2.300293 0
M  V30 3 O 3.768948 -5.588961 1.324036 0
M  V30 4 C 3.376059 -3.475619 2.474073 0
M  V30 5 C 3.705019 -2.700856 3.566852 0
M  V30 6 C 3.050278 -1.468995 3.622616 0
M  V30 7 C 2.157240 -1.097368 2.646302 0
M  V30 8 C 1.863184 -1.905866 1.576291 0
M  V30 9 C 0.955416 -1.452109 0.646037 0
M  V30 10 N 0.286035 -0.203869 0.660757 0
M  V30 11 C -0.644905 0.509012 -0.088797 0 CFG=2
M  V30 12 C -0.779944 1.925970 0.438487 0
M  V30 13 N 0.541042 2.582699 0.355565 0
M  V30 14 C 0.540289 3.936740 0.833574 0
M  V30 15 C 0.180066 4.400370 -0.555482 0
M  V30 16 C 0.821570 3.090259 -0.969788 0
M  V30 17 C -2.011958 0.023887 -0.284597 0
M  V30 18 C -3.124739 0.718646 0.231503 0
M  V30 19 C -4.448129 0.372926 0.089791 0
M  V30 20 C -4.750105 -0.757357 -0.619842 0
M  V30 21 F -6.042091 -1.125345 -0.777365 0
M  V30 22 C -3.732838 -1.485804 -1.151726 0
M  V30 23 C -4.088961 -2.709074 -1.918246 0
M  V30 24 F -2.905465 -3.300546 -2.370466 0
M  V30 25 F -4.822147 -3.601432 -1.153234 0
M  V30 26 F -4.806902 -2.298847 -3.041693 0
M  V30 27 C -2.431736 -1.081464 -0.971400 0
M  V30 28 N 0.684352 -2.243091 -0.375809 0
M  V30 29 C 1.279292 -3.433153 -0.483234 0
M  V30 30 N 2.181241 -3.890349 0.435852 0
M  V30 31 C 2.487731 -3.122117 1.489975 0
M  V30 32 H 5.924461 -5.099793 3.554310 0
M  V30 33 H 4.931584 -5.978628 4.056430 0
M  V30 34 H 4.417852 -3.091043 4.270810 0
M  V30 35 H 3.328150 -0.867858 4.502929 0
M  V30 36 H 1.754103 -0.121984 2.856228 0
M  V30 37 H 0.582424 0.348571 1.491946 0
M  V30 38 H -0.205835 0.655062 -1.129368 0
M  V30 39 H -1.030128 1.892375 1.512051 0
M  V30 40 H -1.511342 2.513462 -0.157847 0
M  V30 41 H -0.198135 4.158189 1.616233 0
M  V30 42 H 1.539407 4.259157 1.187557 0
M  V30 43 H -0.921171 4.400207 -0.679395 0
M  V30 44 H 0.698194 5.306967 -0.897104 0
M  V30 45 H 1.926283 3.187417 -1.077442 0
M  V30 46 H 0.296022 2.531219 -1.744978 0
M  V30 47 H -2.998939 1.637417 0.824764 0
M  V30 48 H -5.257248 0.940550 0.504899 0
M  V30 49 H -1.718906 -1.709711 -1.435739 0
M  V30 50 H 1.121256 -4.151465 -1.285712 0
M  V30 END ATOM
M  V30 BEGIN BOND
M  V30 1 1 1 2
M  V30 2 2 2 3
M  V30 3 1 2 4
M  V30 4 2 4 5
M  V30 5 1 5 6
M  V30 6 2 6 7
M  V30 7 1 7 8
M  V30 8 2 8 9
M  V30 9 1 9 10
M  V30 10 1 10 11
M  V30 11 1 11 12
M  V30 12 1 12 13
M  V30 13 1 13 14
M  V30 14 1 14 15
M  V30 15 1 15 16
M  V30 16 1 11 17
M  V30 17 2 17 18
M  V30 18 1 18 19
M  V30 19 2 19 20
M  V30 20 1 20 21
M  V30 21 1 20 22
M  V30 22 1 22 23
M  V30 23 1 23 24
M  V30 24 1 23 25
M  V30 25 1 23 26
M  V30 26 2 22 27
M  V30 27 1 9 28
M  V30 28 2 28 29
M  V30 29 1 29 30
M  V30 30 2 30 31
M  V30 31 1 31 4
M  V30 32 1 31 8
M  V30 33 1 16 13
M  V30 34 1 27 17
M  V30 35 1 1 32
M  V30 36 1 1 33
M  V30 37 1 5 34
M  V30 38 1 6 35
M  V30 39 1 7 36
M  V30 40 1 10 37
M  V30 41 1 11 38 CFG=3
M  V30 42 1 12 39
M  V30 43 1 12 40
M  V30 44 1 14 41
M  V30 45 1 14 42
M  V30 46 1 15 43
M  V30 47 1 15 44
M  V30 48 1 16 45
M  V30 49 1 16 46
M  V30 50 1 18 47
M  V30 51 1 19 48
M  V30 52 1 27 49
M  V30 53 1 29 50
M  V30 END BOND
M  V30 END CTAB
M  END
>  <Dataset>  (81) 
ChEMBL_Kinases

>  <Ligand_Instance>  (81) 
nan

>  <PDB_ID>  (81) 
nan

>  <Standardized_SMILES>  (81) 
NC(=O)c1cccc2c(N[C@H](CN3CCC3)c3ccc(F)c(C(F)(F)F)c3)ncnc12

>  <Name>  (81) 
nan

>  <Pocket>  (81) 
nan

>  <ATP_Site>  (81) 
nan

>  <Peripheral>  (81) 
nan

>  <Num_H_Atoms_ProtBoundConf>  (81) 
nan

>  <Num_Resolved_Atoms>  (81) 
nan

>  <Num_Not_Resolved_Atoms>  (81) 
nan

$$$$
CHEMBL4846465
     RDKit          3D

  0  0  0  0  0  0  0  0  0  0999 V3000
M  V30 BEGIN CTAB
M  V30 COUNTS 51 55 0 0 0
M  V30 BEGIN ATOM
M  V30 1 C 0.831154 2.049565 2.853338 0
M  V30 2 C 2.240047 1.489488 2.620841 0
M  V30 3 C 2.751937 1.048155 3.999226 0
M  V30 4 N 3.120260 2.448847 2.029576 0
M  V30 5 C 3.500126 3.559886 2.691282 0
M  V30 6 N 4.320355 4.243371 1.863668 0
M  V30 7 N 4.453587 3.600646 0.737842 0
M  V30 8 C 3.719291 2.478488 0.807594 0
M  V30 9 C 3.459490 1.364409 -0.111114 0
M  V30 10 C 4.465193 0.740648 -0.820438 0
M  V30 11 C 4.278024 -0.305151 -1.692372 0
M  V30 12 C 2.974089 -0.732639 -1.840881 0
M  V30 13 C 1.937086 -0.133808 -1.147797 0
M  V30 14 N 0.562336 -0.493755 -1.226058 0
M  V30 15 C -0.072816 -1.457803 -0.392361 0
M  V30 16 O 0.556695 -2.084941 0.506999 0
M  V30 17 C -1.494777 -1.719867 -0.593471 0
M  V30 18 N -2.323587 -1.145316 -1.503978 0
M  V30 19 C -3.574706 -1.630420 -1.403362 0
M  V30 20 C -4.703501 -1.316487 -2.132316 0
M  V30 21 C -5.895348 -1.971701 -1.825804 0
M  V30 22 C -5.877329 -2.912922 -0.793049 0
M  V30 23 C -4.723645 -3.213039 -0.070657 0
M  V30 24 C -3.556204 -2.559838 -0.383325 0
M  V30 25 C -2.277633 -2.618504 0.118546 0
M  V30 26 C -1.853494 -3.486412 1.210367 0
M  V30 27 C -1.339461 -4.774414 1.391785 0
M  V30 28 C -1.176942 -4.908004 2.773187 0
M  V30 29 O -1.555017 -3.811500 3.361729 0
M  V30 30 C -1.967446 -2.929261 2.484448 0
M  V30 31 N 2.199321 0.886857 -0.310292 0
M  V30 32 H 0.113901 1.561179 2.130726 0
M  V30 33 H 0.453460 1.792475 3.859933 0
M  V30 34 H 0.787946 3.134472 2.735302 0
M  V30 35 H 2.137562 0.542588 2.050331 0
M  V30 36 H 3.682669 0.482774 3.950722 0
M  V30 37 H 2.941583 1.938211 4.643128 0
M  V30 38 H 1.991042 0.428284 4.508260 0
M  V30 39 H 3.238302 3.903630 3.694639 0
M  V30 40 H 5.477783 1.116075 -0.667557 0
M  V30 41 H 5.075090 -0.778503 -2.236371 0
M  V30 42 H 2.714956 -1.537167 -2.492145 0
M  V30 43 H 0.016058 0.014515 -1.967304 0
M  V30 44 H -1.987177 -0.431366 -2.167526 0
M  V30 45 H -4.731882 -0.591286 -2.933037 0
M  V30 46 H -6.830839 -1.797181 -2.336423 0
M  V30 47 H -6.782031 -3.464990 -0.500654 0
M  V30 48 H -4.763341 -3.944230 0.713215 0
M  V30 49 H -1.194609 -5.335772 0.482854 0
M  V30 50 H -0.779414 -5.864747 3.103690 0
M  V30 51 H -2.290441 -2.000250 2.949721 0
M  V30 END ATOM
M  V30 BEGIN BOND
M  V30 1 1 1 2
M  V30 2 1 2 3
M  V30 3 1 2 4
M  V30 4 1 4 5
M  V30 5 2 5 6
M  V30 6 1 6 7
M  V30 7 2 7 8
M  V30 8 1 8 9
M  V30 9 2 9 10
M  V30 10 1 10 11
M  V30 11 2 11 12
M  V30 12 1 12 13
M  V30 13 1 13 14
M  V30 14 1 14 15
M  V30 15 2 15 16
M  V30 16 1 15 17
M  V30 17 1 17 18
M  V30 18 1 18 19
M  V30 19 2 19 20
M  V30 20 1 20 21
M  V30 21 2 21 22
M  V30 22 1 22 23
M  V30 23 2 23 24
M  V30 24 1 24 25
M  V30 25 1 25 26
M  V30 26 1 26 27
M  V30 27 2 27 28
M  V30 28 1 28 29
M  V30 29 1 29 30
M  V30 30 2 13 31
M  V30 31 1 8 4
M  V30 32 1 31 9
M  V30 33 2 25 17
M  V30 34 2 30 26
M  V30 35 1 24 19
M  V30 36 1 1 32
M  V30 37 1 1 33
M  V30 38 1 1 34
M  V30 39 1 2 35
M  V30 40 1 3 36
M  V30 41 1 3 37
M  V30 42 1 3 38
M  V30 43 1 5 39
M  V30 44 1 10 40
M  V30 45 1 11 41
M  V30 46 1 12 42
M  V30 47 1 14 43
M  V30 48 1 18 44
M  V30 49 1 20 45
M  V30 50 1 21 46
M  V30 51 1 22 47
M  V30 52 1 23 48
M  V30 53 1 27 49
M  V30 54 1 28 50
M  V30 55 1 30 51
M  V30 END BOND
M  V30 END CTAB
M  END
>  <Dataset>  (82) 
ChEMBL_Kinases

>  <Ligand_Instance>  (82) 
nan

>  <PDB_ID>  (82) 
nan

>  <Standardized_SMILES>  (82) 
CC(C)n1cnnc1-c1cccc(NC(=O)c2[nH]c3ccccc3c2-c2ccoc2)n1

>  <Name>  (82) 
nan

>  <Pocket>  (82) 
nan

>  <ATP_Site>  (82) 
nan

>  <Peripheral>  (82) 
nan

>  <Num_H_Atoms_ProtBoundConf>  (82) 
nan

>  <Num_Resolved_Atoms>  (82) 
nan

>  <Num_Not_Resolved_Atoms>  (82) 
nan

$$$$
CHEMBL4846492
     RDKit          3D

  0  0  0  0  0  0  0  0  0  0999 V3000
M  V30 BEGIN CTAB
M  V30 COUNTS 53 58 0 0 0
M  V30 BEGIN ATOM
M  V30 1 C 2.752053 1.391090 3.495338 0
M  V30 2 C 2.485121 -0.077473 3.356247 0
M  V30 3 C 2.551621 -0.688073 4.749959 0
M  V30 4 N 3.380494 -0.751190 2.444499 0
M  V30 5 C 4.331069 -1.723946 2.517215 0
M  V30 6 N 4.842435 -1.933890 1.289949 0
M  V30 7 N 4.217874 -1.102117 0.463636 0
M  V30 8 C 3.307049 -0.358653 1.156228 0
M  V30 9 C 2.558649 0.595784 0.336866 0
M  V30 10 C 3.257769 1.545048 -0.384135 0
M  V30 11 C 2.697399 2.500844 -1.192366 0
M  V30 12 C 1.307293 2.494881 -1.278010 0
M  V30 13 N 0.415821 3.248114 -1.944239 0
M  V30 14 N -0.828160 2.839946 -1.695612 0
M  V30 15 C -0.760153 1.799745 -0.851256 0
M  V30 16 C -1.927971 1.084069 -0.349376 0
M  V30 17 C -2.960770 1.910297 0.068931 0
M  V30 18 C -4.134142 1.392625 0.569691 0
M  V30 19 C -4.335714 0.025498 0.678110 0
M  V30 20 C -3.296039 -0.779966 0.256557 0
M  V30 21 N -3.298476 -2.217738 0.282792 0
M  V30 22 C -3.572295 -2.955279 1.374477 0
M  V30 23 N -3.483735 -4.259902 1.039248 0
M  V30 24 C -3.156459 -4.340608 -0.254437 0
M  V30 25 C -2.926209 -5.518783 -1.151600 0
M  V30 26 C -3.129607 -5.319800 -2.615940 0
M  V30 27 C -1.731461 -5.356248 -2.111524 0
M  V30 28 N -3.048125 -3.070786 -0.697668 0
M  V30 29 C -2.113174 -0.264708 -0.248137 0
M  V30 30 C 0.567562 1.568850 -0.578410 0
M  V30 31 C 1.162524 0.615669 0.229961 0
M  V30 32 H 3.420804 1.804778 2.713221 0
M  V30 33 H 3.231988 1.649801 4.463255 0
M  V30 34 H 1.809330 1.993091 3.477763 0
M  V30 35 H 1.402150 -0.188603 3.063904 0
M  V30 36 H 2.154474 -1.737219 4.692794 0
M  V30 37 H 3.604453 -0.799124 5.098142 0
M  V30 38 H 1.927591 -0.081280 5.422555 0
M  V30 39 H 4.504108 -2.140835 3.499626 0
M  V30 40 H 4.352048 1.562564 -0.327086 0
M  V30 41 H 3.274030 3.227430 -1.741532 0
M  V30 42 H 0.632249 4.064627 -2.589458 0
M  V30 43 H -2.918289 2.999296 0.032057 0
M  V30 44 H -4.963422 2.021278 0.906173 0
M  V30 45 H -5.216971 -0.473535 1.056130 0
M  V30 46 H -3.822527 -2.562816 2.359786 0
M  V30 47 H -3.033904 -6.531514 -0.713641 0
M  V30 48 H -3.532656 -4.351909 -2.938105 0
M  V30 49 H -3.478436 -6.208185 -3.192787 0
M  V30 50 H -1.189438 -4.380373 -2.098973 0
M  V30 51 H -1.052011 -6.201629 -2.267303 0
M  V30 52 H -1.275094 -0.860460 -0.588886 0
M  V30 53 H 0.623345 -0.112665 0.782974 0
M  V30 END ATOM
M  V30 BEGIN BOND
M  V30 1 1 1 2
M  V30 2 1 2 3
M  V30 3 1 2 4
M  V30 4 1 4 5
M  V30 5 2 5 6
M  V30 6 1 6 7
M  V30 7 2 7 8
M  V30 8 1 8 9
M  V30 9 2 9 10
M  V30 10 1 10 11
M  V30 11 2 11 12
M  V30 12 1 12 13
M  V30 13 1 13 14
M  V30 14 2 14 15
M  V30 15 1 15 16
M  V30 16 2 16 17
M  V30 17 1 17 18
M  V30 18 2 18 19
M  V30 19 1 19 20
M  V30 20 1 20 21
M  V30 21 1 21 22
M  V30 22 2 22 23
M  V30 23 1 23 24
M  V30 24 1 24 25
M  V30 25 1 25 26
M  V30 26 1 26 27
M  V30 27 2 24 28
M  V30 28 2 20 29
M  V30 29 1 15 30
M  V30 30 2 30 31
M  V30 31 1 8 4
M  V30 32 1 31 9
M  V30 33 1 30 12
M  V30 34 1 29 16
M  V30 35 1 28 21
M  V30 36 1 27 25
M  V30 37 1 1 32
M  V30 38 1 1 33
M  V30 39 1 1 34
M  V30 40 1 2 35
M  V30 41 1 3 36
M  V30 42 1 3 37
M  V30 43 1 3 38
M  V30 44 1 5 39
M  V30 45 1 10 40
M  V30 46 1 11 41
M  V30 47 1 13 42
M  V30 48 1 17 43
M  V30 49 1 18 44
M  V30 50 1 19 45
M  V30 51 1 22 46
M  V30 52 1 25 47
M  V30 53 1 26 48
M  V30 54 1 26 49
M  V30 55 1 27 50
M  V30 56 1 27 51
M  V30 57 1 29 52
M  V30 58 1 31 53
M  V30 END BOND
M  V30 END CTAB
M  END
>  <Dataset>  (83) 
ChEMBL_Kinases

>  <Ligand_Instance>  (83) 
nan

>  <PDB_ID>  (83) 
nan

>  <Standardized_SMILES>  (83) 
CC(C)n1cnnc1-c1ccc2[nH]nc(-c3cccc(-n4cnc(C5CC5)n4)c3)c2c1

>  <Name>  (83) 
nan

>  <Pocket>  (83) 
nan

>  <ATP_Site>  (83) 
nan

>  <Peripheral>  (83) 
nan

>  <Num_H_Atoms_ProtBoundConf>  (83) 
nan

>  <Num_Resolved_Atoms>  (83) 
nan

>  <Num_Not_Resolved_Atoms>  (83) 
nan

$$$$
CHEMBL4846500
     RDKit          3D

  0  0  0  0  0  0  0  0  0  0999 V3000
M  V30 BEGIN CTAB
M  V30 COUNTS 42 44 0 0 0
M  V30 BEGIN ATOM
M  V30 1 N 0.963185 -6.940942 3.032279 0
M  V30 2 C 1.319493 -5.991187 2.476876 0
M  V30 3 C 1.775901 -4.818190 1.794523 0
M  V30 4 C 3.123881 -4.552729 1.683396 0
M  V30 5 C 3.614261 -3.439223 1.037908 0
M  V30 6 C 2.780208 -2.509269 0.455592 0
M  V30 7 N 3.152307 -1.358312 -0.235066 0
M  V30 8 C 2.411779 -0.264576 -0.704443 0
M  V30 9 N 3.053814 0.655739 -1.462635 0
M  V30 10 C 2.434288 1.738119 -1.952614 0
M  V30 11 C 1.101210 1.920320 -1.675544 0
M  V30 12 C 0.433461 3.122812 -2.235247 0
M  V30 13 F -0.102937 3.929637 -1.231550 0
M  V30 14 F 1.356326 3.885415 -2.965988 0
M  V30 15 F -0.585281 2.765736 -3.064304 0
M  V30 16 C 0.403374 1.011720 -0.907097 0
M  V30 17 N -0.981071 1.190040 -0.633665 0
M  V30 18 C -1.917075 0.424924 0.135508 0
M  V30 19 C -1.754477 0.528440 1.606898 0 CFG=2
M  V30 20 C -0.466145 0.106268 2.204334 0
M  V30 21 C -0.891698 0.093752 3.689579 0
M  V30 22 N -2.114491 -0.699523 3.611225 0
M  V30 23 C -2.685312 -0.483023 2.291723 0
M  V30 24 N 1.113630 -0.031862 -0.468147 0
M  V30 25 C 1.443621 -2.818785 0.592925 0
M  V30 26 N 0.926310 -3.912801 1.226053 0
M  V30 27 H 3.869335 -5.217662 2.104875 0
M  V30 28 H 4.695525 -3.241523 0.957706 0
M  V30 29 H 4.203309 -1.366502 -0.409688 0
M  V30 30 H 2.953494 2.468603 -2.557498 0
M  V30 31 H -1.417104 2.057628 -1.076883 0
M  V30 32 H -2.962747 0.733221 -0.084913 0
M  V30 33 H -1.899178 -0.657573 -0.185668 0
M  V30 34 H -2.087708 1.512044 1.995980 0
M  V30 35 H 0.368967 0.819273 2.061662 0
M  V30 36 H -0.233639 -0.943716 2.001941 0
M  V30 37 H -0.095934 -0.389457 4.272773 0
M  V30 38 H -1.107150 1.145976 4.019534 0
M  V30 39 H -2.724709 -0.440820 4.391979 0
M  V30 40 H -3.723815 -0.152201 2.293018 0
M  V30 41 H -2.500862 -1.435346 1.735240 0
M  V30 42 H 0.618547 -2.236994 0.209137 0
M  V30 END ATOM
M  V30 BEGIN BOND
M  V30 1 3 1 2
M  V30 2 1 2 3
M  V30 3 2 3 4
M  V30 4 1 4 5
M  V30 5 2 5 6
M  V30 6 1 6 7
M  V30 7 1 7 8
M  V30 8 2 8 9
M  V30 9 1 9 10
M  V30 10 2 10 11
M  V30 11 1 11 12
M  V30 12 1 12 13
M  V30 13 1 12 14
M  V30 14 1 12 15
M  V30 15 1 11 16
M  V30 16 1 16 17
M  V30 17 1 17 18
M  V30 18 1 18 19
M  V30 19 1 19 20
M  V30 20 1 20 21
M  V30 21 1 21 22
M  V30 22 1 22 23
M  V30 23 2 16 24
M  V30 24 1 6 25
M  V30 25 2 25 26
M  V30 26 1 26 3
M  V30 27 1 24 8
M  V30 28 1 23 19
M  V30 29 1 4 27
M  V30 30 1 5 28
M  V30 31 1 7 29
M  V30 32 1 10 30
M  V30 33 1 17 31
M  V30 34 1 18 32
M  V30 35 1 18 33
M  V30 36 1 19 34 CFG=1
M  V30 37 1 20 35
M  V30 38 1 20 36
M  V30 39 1 21 37
M  V30 40 1 21 38
M  V30 41 1 22 39
M  V30 42 1 23 40
M  V30 43 1 23 41
M  V30 44 1 25 42
M  V30 END BOND
M  V30 END CTAB
M  END
>  <Dataset>  (84) 
ChEMBL_Kinases

>  <Ligand_Instance>  (84) 
nan

>  <PDB_ID>  (84) 
nan

>  <Standardized_SMILES>  (84) 
N#Cc1ccc(Nc2ncc(C(F)(F)F)c(NC[C@@H]3CCNC3)n2)cn1

>  <Name>  (84) 
nan

>  <Pocket>  (84) 
nan

>  <ATP_Site>  (84) 
nan

>  <Peripheral>  (84) 
nan

>  <Num_H_Atoms_ProtBoundConf>  (84) 
nan

>  <Num_Resolved_Atoms>  (84) 
nan

>  <Num_Not_Resolved_Atoms>  (84) 
nan

$$$$
CHEMBL4846517
     RDKit          3D

  0  0  0  0  0  0  0  0  0  0999 V3000
M  V30 BEGIN CTAB
M  V30 COUNTS 36 39 0 0 0
M  V30 BEGIN ATOM
M  V30 1 C -0.261667 -4.490988 4.099563 0
M  V30 2 O 0.022621 -5.083973 2.823188 0
M  V30 3 C 0.352624 -4.236435 1.774361 0
M  V30 4 C 0.646371 -4.688819 0.500735 0
M  V30 5 C 0.974906 -3.850894 -0.545057 0
M  V30 6 C 1.022050 -2.486537 -0.344566 0
M  V30 7 C 0.734249 -2.001682 0.915012 0
M  V30 8 C 0.408984 -2.862176 1.941681 0
M  V30 9 N 0.827290 -0.658207 0.930536 0
M  V30 10 C 1.169754 -0.265538 -0.295049 0
M  V30 11 C 1.409786 0.966782 -0.884299 0
M  V30 12 N 1.267249 2.091566 -0.011239 0
M  V30 13 C -0.067402 2.557827 -0.051511 0
M  V30 14 O -0.847586 1.908790 -0.827225 0
M  V30 15 C -0.656300 3.701852 0.696515 0
M  V30 16 C -2.048168 3.358555 1.234653 0
M  V30 17 C -1.816585 4.387746 0.137651 0
M  V30 18 N 1.752382 1.099981 -2.183447 0
M  V30 19 C 1.879841 0.006561 -2.988867 0
M  V30 20 C 1.646281 -1.256447 -2.433511 0
M  V30 21 C 1.300888 -1.376022 -1.119616 0
M  V30 22 H 0.644286 -4.006512 4.511047 0
M  V30 23 H -1.033467 -3.706780 3.985753 0
M  V30 24 H -0.544224 -5.268661 4.836654 0
M  V30 25 H 0.603069 -5.776492 0.363178 0
M  V30 26 H 1.200780 -4.227088 -1.532377 0
M  V30 27 H 0.186843 -2.464843 2.920386 0
M  V30 28 H 0.663002 -0.015725 1.752581 0
M  V30 29 H 1.904634 2.640172 0.637486 0
M  V30 30 H 0.012466 4.268850 1.370131 0
M  V30 31 H -2.287886 3.708228 2.246835 0
M  V30 32 H -2.562918 2.456948 0.902478 0
M  V30 33 H -2.114467 5.395940 0.427222 0
M  V30 34 H -2.071202 4.107800 -0.905131 0
M  V30 35 H 2.153310 0.086798 -4.033222 0
M  V30 36 H 1.741874 -2.147450 -3.057544 0
M  V30 END ATOM
M  V30 BEGIN BOND
M  V30 1 1 1 2
M  V30 2 1 2 3
M  V30 3 2 3 4
M  V30 4 1 4 5
M  V30 5 2 5 6
M  V30 6 1 6 7
M  V30 7 2 7 8
M  V30 8 1 7 9
M  V30 9 1 9 10
M  V30 10 2 10 11
M  V30 11 1 11 12
M  V30 12 1 12 13
M  V30 13 2 13 14
M  V30 14 1 13 15
M  V30 15 1 15 16
M  V30 16 1 16 17
M  V30 17 1 11 18
M  V30 18 2 18 19
M  V30 19 1 19 20
M  V30 20 2 20 21
M  V30 21 1 8 3
M  V30 22 1 21 10
M  V30 23 1 21 6
M  V30 24 1 17 15
M  V30 25 1 1 22
M  V30 26 1 1 23
M  V30 27 1 1 24
M  V30 28 1 4 25
M  V30 29 1 5 26
M  V30 30 1 8 27
M  V30 31 1 9 28
M  V30 32 1 12 29
M  V30 33 1 15 30
M  V30 34 1 16 31
M  V30 35 1 16 32
M  V30 36 1 17 33
M  V30 37 1 17 34
M  V30 38 1 19 35
M  V30 39 1 20 36
M  V30 END BOND
M  V30 END CTAB
M  END
>  <Dataset>  (85) 
ChEMBL_Kinases

>  <Ligand_Instance>  (85) 
nan

>  <PDB_ID>  (85) 
nan

>  <Standardized_SMILES>  (85) 
COc1ccc2c(c1)[nH]c1c(NC(=O)C3CC3)nccc12

>  <Name>  (85) 
nan

>  <Pocket>  (85) 
nan

>  <ATP_Site>  (85) 
nan

>  <Peripheral>  (85) 
nan

>  <Num_H_Atoms_ProtBoundConf>  (85) 
nan

>  <Num_Resolved_Atoms>  (85) 
nan

>  <Num_Not_Resolved_Atoms>  (85) 
nan

$$$$
CHEMBL4089425
     RDKit          3D

  0  0  0  0  0  0  0  0  0  0999 V3000
M  V30 BEGIN CTAB
M  V30 COUNTS 53 58 0 0 0
M  V30 BEGIN ATOM
M  V30 1 Cl -2.666640 -1.670626 5.548412 0
M  V30 2 C -1.387521 -1.161943 4.476746 0
M  V30 3 C -0.137434 -0.889368 4.974328 0
M  V30 4 C 0.869834 -0.487966 4.125284 0
M  V30 5 C 0.566697 -0.377294 2.787640 0
M  V30 6 N 1.569833 0.013265 2.005792 0
M  V30 7 C 1.410241 0.158408 0.705214 0
M  V30 8 N 2.423030 0.564659 -0.205517 0
M  V30 9 C 2.747024 1.917733 -0.506410 0
M  V30 10 C 3.743894 2.235370 -1.426429 0
M  V30 11 C 4.052001 3.551657 -1.703480 0
M  V30 12 C 3.352188 4.562654 -1.050148 0
M  V30 13 N 3.388478 5.920590 -1.073860 0
M  V30 14 N 2.474330 6.400958 -0.224965 0
M  V30 15 C 1.817200 5.392609 0.375649 0
M  V30 16 C 2.370459 4.216550 -0.144428 0
M  V30 17 C 2.044813 2.907913 0.148803 0
M  V30 18 N 0.220024 -0.090037 0.155631 0
M  V30 19 C -0.856056 -0.485285 0.829337 0
M  V30 20 N -2.161292 -0.796807 0.490197 0
M  V30 21 C -3.504125 -1.117044 0.139463 0
M  V30 22 C -3.631467 -2.256237 -0.828179 0
M  V30 23 C -3.078031 -3.530244 -0.376700 0
M  V30 24 C -3.869108 -4.545435 0.168345 0
M  V30 25 N -3.112375 -5.605356 0.527219 0
M  V30 26 C -1.843173 -5.340089 0.243007 0
M  V30 27 C -0.623860 -6.011059 0.365339 0
M  V30 28 C 0.549702 -5.417040 -0.055830 0
M  V30 29 C 0.587411 -4.152691 -0.610525 0
M  V30 30 C -0.630271 -3.502363 -0.723656 0
M  V30 31 C -1.813665 -4.071775 -0.311094 0
M  V30 32 C -0.653931 -0.628092 2.194901 0
M  V30 33 C -1.590411 -1.022047 3.128688 0
M  V30 34 H 0.045565 -0.991953 6.028869 0
M  V30 35 H 1.851747 -0.273732 4.515698 0
M  V30 36 H 2.958990 -0.222358 -0.680325 0
M  V30 37 H 4.259813 1.403202 -1.909452 0
M  V30 38 H 4.819274 3.810439 -2.411689 0
M  V30 39 H 4.071702 6.398726 -1.702548 0
M  V30 40 H 1.021353 5.439821 1.111630 0
M  V30 41 H 1.268875 2.659701 0.865022 0
M  V30 42 H -2.002047 -0.612972 -0.559192 0
M  V30 43 H -4.028603 -0.220020 -0.313514 0
M  V30 44 H -4.131468 -1.326097 1.065021 0
M  V30 45 H -3.170420 -1.942751 -1.802827 0
M  V30 46 H -4.720302 -2.382749 -1.092092 0
M  V30 47 H -4.942910 -4.524533 0.302048 0
M  V30 48 H -3.445874 -6.500152 0.960310 0
M  V30 49 H -0.657713 -6.996314 0.798407 0
M  V30 50 H 1.462880 -5.979872 0.061541 0
M  V30 51 H 1.491563 -3.665848 -0.948745 0
M  V30 52 H -0.606606 -2.521007 -1.162425 0
M  V30 53 H -2.587557 -1.249079 2.793095 0
M  V30 END ATOM
M  V30 BEGIN BOND
M  V30 1 1 1 2
M  V30 2 2 2 3
M  V30 3 1 3 4
M  V30 4 2 4 5
M  V30 5 1 5 6
M  V30 6 2 6 7
M  V30 7 1 7 8
M  V30 8 1 8 9
M  V30 9 2 9 10
M  V30 10 1 10 11
M  V30 11 2 11 12
M  V30 12 1 12 13
M  V30 13 1 13 14
M  V30 14 2 14 15
M  V30 15 1 15 16
M  V30 16 2 16 17
M  V30 17 1 7 18
M  V30 18 2 18 19
M  V30 19 1 19 20
M  V30 20 1 20 21
M  V30 21 1 21 22
M  V30 22 1 22 23
M  V30 23 2 23 24
M  V30 24 1 24 25
M  V30 25 1 25 26
M  V30 26 2 26 27
M  V30 27 1 27 28
M  V30 28 2 28 29
M  V30 29 1 29 30
M  V30 30 2 30 31
M  V30 31 1 19 32
M  V30 32 2 32 33
M  V30 33 1 33 2
M  V30 34 1 32 5
M  V30 35 1 17 9
M  V30 36 1 31 23
M  V30 37 1 16 12
M  V30 38 1 31 26
M  V30 39 1 3 34
M  V30 40 1 4 35
M  V30 41 1 8 36
M  V30 42 1 10 37
M  V30 43 1 11 38
M  V30 44 1 13 39
M  V30 45 1 15 40
M  V30 46 1 17 41
M  V30 47 1 20 42
M  V30 48 1 21 43
M  V30 49 1 21 44
M  V30 50 1 22 45
M  V30 51 1 22 46
M  V30 52 1 24 47
M  V30 53 1 25 48
M  V30 54 1 27 49
M  V30 55 1 28 50
M  V30 56 1 29 51
M  V30 57 1 30 52
M  V30 58 1 33 53
M  V30 END BOND
M  V30 END CTAB
M  END
>  <Dataset>  (86) 
ChEMBL_Kinases

>  <Ligand_Instance>  (86) 
nan

>  <PDB_ID>  (86) 
nan

>  <Standardized_SMILES>  (86) 
Clc1ccc2nc(Nc3ccc4[nH]ncc4c3)nc(NCCc3c[nH]c4ccccc34)c2c1

>  <Name>  (86) 
nan

>  <Pocket>  (86) 
nan

>  <ATP_Site>  (86) 
nan

>  <Peripheral>  (86) 
nan

>  <Num_H_Atoms_ProtBoundConf>  (86) 
nan

>  <Num_Resolved_Atoms>  (86) 
nan

>  <Num_Not_Resolved_Atoms>  (86) 
nan

$$$$
CHEMBL484662
     RDKit          3D

  0  0  0  0  0  0  0  0  0  0999 V3000
M  V30 BEGIN CTAB
M  V30 COUNTS 29 31 0 0 0
M  V30 BEGIN ATOM
M  V30 1 O -1.453675 -1.750747 3.768286 0
M  V30 2 C -0.687896 -1.292123 2.881155 0
M  V30 3 C -1.032013 -1.269020 1.544824 0
M  V30 4 C -0.188460 -0.764946 0.576150 0
M  V30 5 C -0.508298 -0.719665 -0.846149 0
M  V30 6 C 0.444239 -0.183913 -1.686605 0
M  V30 7 C 0.251772 -0.088014 -3.062177 0
M  V30 8 C -0.942254 -0.547397 -3.614929 0
M  V30 9 O -1.198880 -0.482147 -4.975051 0
M  V30 10 C -1.874693 -1.077402 -2.750145 0
M  V30 11 C -1.683629 -1.173605 -1.377003 0
M  V30 12 O 0.973323 -0.298927 0.969638 0
M  V30 13 C 1.360361 -0.294420 2.241801 0
M  V30 14 C 2.604799 0.219064 2.554918 0
M  V30 15 C 3.068334 0.252385 3.867166 0
M  V30 16 C 2.235115 -0.248978 4.850197 0
M  V30 17 C 0.972218 -0.775061 4.570143 0
M  V30 18 O 0.153431 -1.272691 5.573607 0
M  V30 19 C 0.542918 -0.793027 3.257217 0
M  V30 20 H -1.982347 -1.654402 1.254679 0
M  V30 21 H 1.400888 0.196216 -1.335093 0
M  V30 22 H 0.973280 0.321060 -3.723496 0
M  V30 23 H -0.523942 -0.080605 -5.597790 0
M  V30 24 H -2.822900 -1.444415 -3.172401 0
M  V30 25 H -2.438555 -1.595651 -0.730346 0
M  V30 26 H 3.244765 0.608332 1.768167 0
M  V30 27 H 4.042762 0.654309 4.113489 0
M  V30 28 H 2.518368 -0.260619 5.894316 0
M  V30 29 H 0.273865 -2.235987 5.834127 0
M  V30 END ATOM
M  V30 BEGIN BOND
M  V30 1 2 1 2
M  V30 2 1 2 3
M  V30 3 2 3 4
M  V30 4 1 4 5
M  V30 5 2 5 6
M  V30 6 1 6 7
M  V30 7 2 7 8
M  V30 8 1 8 9
M  V30 9 1 8 10
M  V30 10 2 10 11
M  V30 11 1 4 12
M  V30 12 1 12 13
M  V30 13 2 13 14
M  V30 14 1 14 15
M  V30 15 2 15 16
M  V30 16 1 16 17
M  V30 17 1 17 18
M  V30 18 2 17 19
M  V30 19 1 19 2
M  V30 20 1 11 5
M  V30 21 1 19 13
M  V30 22 1 3 20
M  V30 23 1 6 21
M  V30 24 1 7 22
M  V30 25 1 9 23
M  V30 26 1 10 24
M  V30 27 1 11 25
M  V30 28 1 14 26
M  V30 29 1 15 27
M  V30 30 1 16 28
M  V30 31 1 18 29
M  V30 END BOND
M  V30 END CTAB
M  END
>  <Dataset>  (87) 
ChEMBL_Kinases

>  <Ligand_Instance>  (87) 
nan

>  <PDB_ID>  (87) 
nan

>  <Standardized_SMILES>  (87) 
O=c1cc(-c2ccc(O)cc2)oc2cccc(O)c12

>  <Name>  (87) 
nan

>  <Pocket>  (87) 
nan

>  <ATP_Site>  (87) 
nan

>  <Peripheral>  (87) 
nan

>  <Num_H_Atoms_ProtBoundConf>  (87) 
nan

>  <Num_Resolved_Atoms>  (87) 
nan

>  <Num_Not_Resolved_Atoms>  (87) 
nan

$$$$
CHEMBL4089331
     RDKit          3D

  0  0  0  0  0  0  0  0  0  0999 V3000
M  V30 BEGIN CTAB
M  V30 COUNTS 43 45 0 0 0
M  V30 BEGIN ATOM
M  V30 1 C -0.737976 -3.833310 -0.328279 0
M  V30 2 C 0.486757 -3.242488 0.277696 0 CFG=2
M  V30 3 C 0.955347 -3.935697 1.546694 0
M  V30 4 N 2.005815 -3.134726 2.138442 0
M  V30 5 C 1.579886 -2.270738 3.192618 0
M  V30 6 C 2.765311 -2.411829 1.162495 0
M  V30 7 C 1.957454 -1.452536 0.349098 0
M  V30 8 N 0.528437 -1.835087 0.458465 0
M  V30 9 C -0.298459 -0.698861 0.671143 0
M  V30 10 N 0.286755 0.479570 0.369512 0
M  V30 11 C -0.327347 1.684819 0.505025 0
M  V30 12 C 0.433063 2.873841 0.136815 0
M  V30 13 C 1.720144 2.698383 -0.322945 0
M  V30 14 C 2.432414 3.853897 -0.671072 0
M  V30 15 N 1.925243 5.086902 -0.577125 0
M  V30 16 C 0.672367 5.267344 -0.130182 0
M  V30 17 C -0.075259 4.148674 0.228184 0
M  V30 18 C -1.610075 1.645321 0.977928 0
M  V30 19 C -2.261760 0.479545 1.304228 0
M  V30 20 O -3.434603 0.476373 1.734609 0
M  V30 21 N -1.555884 -0.646818 1.129766 0
M  V30 22 C -2.234041 -1.852106 1.512013 0
M  V30 23 H -1.287744 -3.080482 -0.927469 0
M  V30 24 H -1.403837 -4.371238 0.384682 0
M  V30 25 H -0.477126 -4.629769 -1.083124 0
M  V30 26 H 1.317630 -3.514745 -0.468849 0
M  V30 27 H 1.423390 -4.935634 1.308361 0
M  V30 28 H 0.152073 -4.136178 2.260417 0
M  V30 29 H 2.389429 -2.327235 3.979019 0
M  V30 30 H 1.596769 -1.208672 2.813055 0
M  V30 31 H 0.610435 -2.540681 3.645551 0
M  V30 32 H 3.247232 -3.186440 0.509410 0
M  V30 33 H 3.577688 -1.885331 1.733996 0
M  V30 34 H 2.192557 -1.652426 -0.738429 0
M  V30 35 H 2.142876 -0.405851 0.568978 0
M  V30 36 H 2.232155 1.760442 -0.442335 0
M  V30 37 H 3.450965 3.744444 -1.036808 0
M  V30 38 H 0.211000 6.246468 -0.034001 0
M  V30 39 H -1.084242 4.235695 0.591454 0
M  V30 40 H -2.120553 2.579725 1.093502 0
M  V30 41 H -1.540051 -2.515786 2.017946 0
M  V30 42 H -2.858697 -2.307936 0.721092 0
M  V30 43 H -3.010571 -1.628225 2.327213 0
M  V30 END ATOM
M  V30 BEGIN BOND
M  V30 1 1 1 2
M  V30 2 1 2 3
M  V30 3 1 3 4
M  V30 4 1 4 5
M  V30 5 1 4 6
M  V30 6 1 6 7
M  V30 7 1 7 8
M  V30 8 1 8 9
M  V30 9 2 9 10
M  V30 10 1 10 11
M  V30 11 1 11 12
M  V30 12 2 12 13
M  V30 13 1 13 14
M  V30 14 2 14 15
M  V30 15 1 15 16
M  V30 16 2 16 17
M  V30 17 2 11 18
M  V30 18 1 18 19
M  V30 19 2 19 20
M  V30 20 1 19 21
M  V30 21 1 21 22
M  V30 22 1 8 2
M  V30 23 1 21 9
M  V30 24 1 17 12
M  V30 25 1 1 23
M  V30 26 1 1 24
M  V30 27 1 1 25
M  V30 28 1 2 26 CFG=3
M  V30 29 1 3 27
M  V30 30 1 3 28
M  V30 31 1 5 29
M  V30 32 1 5 30
M  V30 33 1 5 31
M  V30 34 1 6 32
M  V30 35 1 6 33
M  V30 36 1 7 34
M  V30 37 1 7 35
M  V30 38 1 13 36
M  V30 39 1 14 37
M  V30 40 1 16 38
M  V30 41 1 17 39
M  V30 42 1 18 40
M  V30 43 1 22 41
M  V30 44 1 22 42
M  V30 45 1 22 43
M  V30 END BOND
M  V30 END CTAB
M  END
>  <Dataset>  (88) 
ChEMBL_Kinases

>  <Ligand_Instance>  (88) 
nan

>  <PDB_ID>  (88) 
nan

>  <Standardized_SMILES>  (88) 
C[C@@H]1CN(C)CCN1c1nc(-c2ccncc2)cc(=O)n1C

>  <Name>  (88) 
nan

>  <Pocket>  (88) 
nan

>  <ATP_Site>  (88) 
nan

>  <Peripheral>  (88) 
nan

>  <Num_H_Atoms_ProtBoundConf>  (88) 
nan

>  <Num_Resolved_Atoms>  (88) 
nan

>  <Num_Not_Resolved_Atoms>  (88) 
nan

$$$$
CHEMBL4846645
     RDKit          3D

  0  0  0  0  0  0  0  0  0  0999 V3000
M  V30 BEGIN CTAB
M  V30 COUNTS 51 54 0 0 0
M  V30 BEGIN ATOM
M  V30 1 C 4.084794 -3.601573 5.155441 0
M  V30 2 C 4.590117 -2.412055 4.420148 0
M  V30 3 O 5.515031 -2.623549 3.589362 0
M  V30 4 N 3.982683 -1.154004 4.724456 0
M  V30 5 C 4.275827 0.143677 4.166885 0
M  V30 6 C 5.223987 0.967373 4.739335 0
M  V30 7 C 5.489441 2.219116 4.180438 0
M  V30 8 C 4.790968 2.625160 3.045423 0
M  V30 9 C 3.837019 1.813276 2.457623 0
M  V30 10 C 3.012828 1.973116 1.343199 0
M  V30 11 C 2.277821 0.806198 1.271582 0
M  V30 12 C 1.285706 0.585207 0.221263 0
M  V30 13 O 1.092358 1.465133 -0.633384 0
M  V30 14 N 0.591918 -0.637436 0.238917 0
M  V30 15 C -0.418556 -1.227662 -0.573693 0
M  V30 16 C -0.075802 -2.010570 -1.672982 0
M  V30 17 C -1.056667 -2.597000 -2.480633 0
M  V30 18 C -2.380930 -2.377076 -2.156194 0
M  V30 19 C -2.722483 -1.600595 -1.065908 0
M  V30 20 C -4.074119 -1.288236 -0.611831 0
M  V30 21 N -4.463854 -1.592915 0.640744 0
M  V30 22 N -5.717963 -1.230427 0.855578 0
M  V30 23 C -6.117707 -0.677126 -0.319816 0
M  V30 24 N -5.107753 -0.717226 -1.208357 0
M  V30 25 C -5.090307 -0.246434 -2.563488 0
M  V30 26 C -5.630160 -1.291984 -3.536001 0
M  V30 27 C -3.805614 0.369686 -3.011186 0
M  V30 28 N -1.735721 -1.045231 -0.301779 0
M  V30 29 N 2.642283 0.003845 2.279684 0
M  V30 30 C 3.588852 0.565703 3.034594 0
M  V30 31 H 3.029363 -3.469713 5.510646 0
M  V30 32 H 4.065207 -4.499589 4.501143 0
M  V30 33 H 4.685485 -3.837167 6.045753 0
M  V30 34 H 3.230296 -1.100829 5.425886 0
M  V30 35 H 5.708900 0.559001 5.616400 0
M  V30 36 H 6.243594 2.818589 4.674969 0
M  V30 37 H 5.022852 3.592329 2.646132 0
M  V30 38 H 2.987364 2.827513 0.710510 0
M  V30 39 H 0.706801 -1.418937 0.928856 0
M  V30 40 H 0.972395 -2.165571 -1.903102 0
M  V30 41 H -0.808042 -3.211498 -3.343206 0
M  V30 42 H -3.208916 -2.787552 -2.719713 0
M  V30 43 H -7.070892 -0.246916 -0.596107 0
M  V30 44 H -5.848886 0.591286 -2.593466 0
M  V30 45 H -4.938394 -1.341470 -4.409286 0
M  V30 46 H -5.538348 -2.290173 -3.030235 0
M  V30 47 H -6.686465 -1.115077 -3.816870 0
M  V30 48 H -3.369543 -0.240540 -3.854250 0
M  V30 49 H -3.069639 0.560861 -2.200175 0
M  V30 50 H -3.937412 1.383782 -3.491849 0
M  V30 51 H 2.187985 -0.941427 2.393203 0
M  V30 END ATOM
M  V30 BEGIN BOND
M  V30 1 1 1 2
M  V30 2 2 2 3
M  V30 3 1 2 4
M  V30 4 1 4 5
M  V30 5 2 5 6
M  V30 6 1 6 7
M  V30 7 2 7 8
M  V30 8 1 8 9
M  V30 9 1 9 10
M  V30 10 2 10 11
M  V30 11 1 11 12
M  V30 12 2 12 13
M  V30 13 1 12 14
M  V30 14 1 14 15
M  V30 15 2 15 16
M  V30 16 1 16 17
M  V30 17 2 17 18
M  V30 18 1 18 19
M  V30 19 1 19 20
M  V30 20 2 20 21
M  V30 21 1 21 22
M  V30 22 2 22 23
M  V30 23 1 23 24
M  V30 24 1 24 25
M  V30 25 1 25 26
M  V30 26 1 25 27
M  V30 27 2 19 28
M  V30 28 1 11 29
M  V30 29 1 29 30
M  V30 30 1 30 5
M  V30 31 2 30 9
M  V30 32 1 28 15
M  V30 33 1 24 20
M  V30 34 1 1 31
M  V30 35 1 1 32
M  V30 36 1 1 33
M  V30 37 1 4 34
M  V30 38 1 6 35
M  V30 39 1 7 36
M  V30 40 1 8 37
M  V30 41 1 10 38
M  V30 42 1 14 39
M  V30 43 1 16 40
M  V30 44 1 17 41
M  V30 45 1 18 42
M  V30 46 1 23 43
M  V30 47 1 25 44
M  V30 48 1 26 45
M  V30 49 1 26 46
M  V30 50 1 26 47
M  V30 51 1 27 48
M  V30 52 1 27 49
M  V30 53 1 27 50
M  V30 54 1 29 51
M  V30 END BOND
M  V30 END CTAB
M  END
>  <Dataset>  (89) 
ChEMBL_Kinases

>  <Ligand_Instance>  (89) 
nan

>  <PDB_ID>  (89) 
nan

>  <Standardized_SMILES>  (89) 
CC(=O)Nc1cccc2cc(C(=O)Nc3cccc(-c4nncn4C(C)C)n3)[nH]c12

>  <Name>  (89) 
nan

>  <Pocket>  (89) 
nan

>  <ATP_Site>  (89) 
nan

>  <Peripheral>  (89) 
nan

>  <Num_H_Atoms_ProtBoundConf>  (89) 
nan

>  <Num_Resolved_Atoms>  (89) 
nan

>  <Num_Not_Resolved_Atoms>  (89) 
nan

$$$$
CHEMBL4089283
     RDKit          3D

  0  0  0  0  0  0  0  0  0  0999 V3000
M  V30 BEGIN CTAB
M  V30 COUNTS 47 50 0 0 0
M  V30 BEGIN ATOM
M  V30 1 C 0.395466 -3.720701 3.008569 0
M  V30 2 N -0.547353 -3.294614 2.002016 0
M  V30 3 C -0.249217 -2.178283 1.278472 0
M  V30 4 N 0.957710 -1.411823 1.450321 0
M  V30 5 C 1.894253 -1.844818 0.433498 0
M  V30 6 C 3.189051 -1.140774 0.663164 0
M  V30 7 N 3.337188 -0.393870 1.842598 0
M  V30 8 C 2.271174 0.335648 2.393035 0
M  V30 9 C 2.016247 1.679352 1.829375 0
M  V30 10 C 1.903074 1.992362 0.491136 0
M  V30 11 C 1.671957 3.248950 -0.009847 0
M  V30 12 C 1.536565 4.305014 0.860547 0
M  V30 13 C 1.295148 5.609156 0.332773 0
M  V30 14 N 1.082546 6.666601 -0.087652 0
M  V30 15 C 1.633897 4.091713 2.210593 0
M  V30 16 C 1.866946 2.806160 2.646285 0
M  V30 17 C 0.972056 -0.446984 2.530726 0
M  V30 18 N -1.125931 -1.767045 0.331640 0
M  V30 19 C -2.272599 -2.421724 0.085222 0
M  V30 20 C -3.144741 -1.904773 -0.961910 0
M  V30 21 C -2.828704 -0.781383 -1.691862 0
M  V30 22 C -3.567742 -0.206650 -2.701953 0
M  V30 23 N -4.740146 -0.819527 -3.010180 0
M  V30 24 C -5.084015 -1.931733 -2.309122 0
M  V30 25 N -4.321342 -2.467652 -1.315497 0
M  V30 26 C -2.617639 -3.553481 0.789590 0
M  V30 27 C -1.698450 -3.934463 1.740698 0
M  V30 28 O -1.958747 -4.977235 2.429019 0
M  V30 29 H 0.289388 -4.828414 3.138962 0
M  V30 30 H 1.416026 -3.434476 2.663335 0
M  V30 31 H 0.185923 -3.200711 3.972087 0
M  V30 32 H 1.968392 -2.954124 0.383641 0
M  V30 33 H 1.506443 -1.462167 -0.559453 0
M  V30 34 H 3.956176 -1.981962 0.730601 0
M  V30 35 H 3.555307 -0.591946 -0.258796 0
M  V30 36 H 3.933501 -0.858769 2.562953 0
M  V30 37 H 2.557882 0.523526 3.475723 0
M  V30 38 H 1.998228 1.197371 -0.223398 0
M  V30 39 H 1.594348 3.423525 -1.065650 0
M  V30 40 H 1.533626 4.898045 2.921906 0
M  V30 41 H 1.942730 2.654371 3.729565 0
M  V30 42 H 0.850137 -0.941499 3.497183 0
M  V30 43 H 0.104696 0.262597 2.446839 0
M  V30 44 H -1.884096 -0.269451 -1.458991 0
M  V30 45 H -3.246460 0.671231 -3.220649 0
M  V30 46 H -6.013748 -2.494924 -2.488935 0
M  V30 47 H -3.525066 -4.093919 0.613421 0
M  V30 END ATOM
M  V30 BEGIN BOND
M  V30 1 1 1 2
M  V30 2 1 2 3
M  V30 3 1 3 4
M  V30 4 1 4 5
M  V30 5 1 5 6
M  V30 6 1 6 7
M  V30 7 1 7 8
M  V30 8 1 8 9
M  V30 9 2 9 10
M  V30 10 1 10 11
M  V30 11 2 11 12
M  V30 12 1 12 13
M  V30 13 3 13 14
M  V30 14 1 12 15
M  V30 15 2 15 16
M  V30 16 1 8 17
M  V30 17 2 3 18
M  V30 18 1 18 19
M  V30 19 1 19 20
M  V30 20 2 20 21
M  V30 21 1 21 22
M  V30 22 2 22 23
M  V30 23 1 23 24
M  V30 24 2 24 25
M  V30 25 2 19 26
M  V30 26 1 26 27
M  V30 27 2 27 28
M  V30 28 1 27 2
M  V30 29 1 17 4
M  V30 30 1 25 20
M  V30 31 1 16 9
M  V30 32 1 1 29
M  V30 33 1 1 30
M  V30 34 1 1 31
M  V30 35 1 5 32
M  V30 36 1 5 33
M  V30 37 1 6 34
M  V30 38 1 6 35
M  V30 39 1 7 36
M  V30 40 1 8 37
M  V30 41 1 10 38
M  V30 42 1 11 39
M  V30 43 1 15 40
M  V30 44 1 16 41
M  V30 45 1 17 42
M  V30 46 1 17 43
M  V30 47 1 21 44
M  V30 48 1 22 45
M  V30 49 1 24 46
M  V30 50 1 26 47
M  V30 END BOND
M  V30 END CTAB
M  END
>  <Dataset>  (90) 
ChEMBL_Kinases

>  <Ligand_Instance>  (90) 
nan

>  <PDB_ID>  (90) 
nan

>  <Standardized_SMILES>  (90) 
Cn1c(N2CCNC(c3ccc(C#N)cc3)C2)nc(-c2ccncn2)cc1=O

>  <Name>  (90) 
nan

>  <Pocket>  (90) 
nan

>  <ATP_Site>  (90) 
nan

>  <Peripheral>  (90) 
nan

>  <Num_H_Atoms_ProtBoundConf>  (90) 
nan

>  <Num_Resolved_Atoms>  (90) 
nan

>  <Num_Not_Resolved_Atoms>  (90) 
nan

$$$$
CHEMBL4846647
     RDKit          3D

  0  0  0  0  0  0  0  0  0  0999 V3000
M  V30 BEGIN CTAB
M  V30 COUNTS 51 54 0 0 0
M  V30 BEGIN ATOM
M  V30 1 C 2.019460 -4.011477 2.664081 0
M  V30 2 C 2.770441 -2.850158 2.095703 0
M  V30 3 C 4.245235 -3.102729 2.320135 0
M  V30 4 C 2.357232 -1.496954 2.642128 0
M  V30 5 O 3.183377 -0.553402 1.986048 0
M  V30 6 C 2.751477 0.416938 1.119577 0
M  V30 7 O 3.623228 1.126016 0.537904 0
M  V30 8 N 1.373276 0.632640 0.871316 0
M  V30 9 C 1.020274 1.675894 -0.051669 0
M  V30 10 C 1.507875 1.476739 -1.447961 0
M  V30 11 C 2.108742 2.768659 -1.921184 0
M  V30 12 C 1.623841 3.792805 -0.932013 0
M  V30 13 C 1.418687 3.058330 0.379724 0
M  V30 14 C 0.460754 -0.208023 1.562187 0
M  V30 15 N -0.862608 0.023138 1.373045 0
M  V30 16 C -1.802295 -0.696108 2.027919 0
M  V30 17 N -3.148784 -0.349635 1.736016 0
M  V30 18 C -3.786770 -1.018418 0.663379 0
M  V30 19 C -5.072363 -0.774878 0.286869 0
M  V30 20 C -5.749488 -1.385661 -0.741056 0
M  V30 21 Cl -7.383486 -1.064270 -1.206334 0
M  V30 22 C -5.059559 -2.344552 -1.468654 0
M  V30 23 O -5.592531 -3.059275 -2.540400 0
M  V30 24 C -3.748570 -2.653560 -1.152775 0
M  V30 25 Cl -2.842720 -3.852475 -2.040691 0
M  V30 26 C -3.145989 -1.989122 -0.102314 0
M  V30 27 N -1.401589 -1.652669 2.877545 0
M  V30 28 C -0.072729 -1.863756 3.047804 0
M  V30 29 C 0.950380 -1.164497 2.407890 0
M  V30 30 H 1.020003 -4.182667 2.212106 0
M  V30 31 H 2.639387 -4.928011 2.400302 0
M  V30 32 H 2.019201 -4.029607 3.777260 0
M  V30 33 H 2.597100 -2.886940 0.980119 0
M  V30 34 H 4.846689 -2.170410 2.362917 0
M  V30 35 H 4.347599 -3.671152 3.268145 0
M  V30 36 H 4.591757 -3.787545 1.521209 0
M  V30 37 H 2.619026 -1.493985 3.716600 0
M  V30 38 H -0.107133 1.700206 -0.122237 0
M  V30 39 H 2.252672 0.633998 -1.492148 0
M  V30 40 H 0.691207 1.163305 -2.162142 0
M  V30 41 H 1.787575 2.969126 -2.958009 0
M  V30 42 H 3.221574 2.652232 -1.868879 0
M  V30 43 H 2.391796 4.558564 -0.793441 0
M  V30 44 H 0.665476 4.228765 -1.293159 0
M  V30 45 H 0.582890 3.604796 0.885430 0
M  V30 46 H 2.269871 3.113401 1.062548 0
M  V30 47 H -3.692268 0.353677 2.250346 0
M  V30 48 H -5.649587 -0.033319 0.827494 0
M  V30 49 H -6.575142 -2.901143 -2.736960 0
M  V30 50 H -2.111153 -2.247804 0.130511 0
M  V30 51 H 0.094363 -2.651732 3.762428 0
M  V30 END ATOM
M  V30 BEGIN BOND
M  V30 1 1 1 2
M  V30 2 1 2 3
M  V30 3 1 2 4
M  V30 4 1 4 5
M  V30 5 1 5 6
M  V30 6 2 6 7
M  V30 7 1 6 8
M  V30 8 1 8 9
M  V30 9 1 9 10
M  V30 10 1 10 11
M  V30 11 1 11 12
M  V30 12 1 12 13
M  V30 13 1 8 14
M  V30 14 2 14 15
M  V30 15 1 15 16
M  V30 16 1 16 17
M  V30 17 1 17 18
M  V30 18 2 18 19
M  V30 19 1 19 20
M  V30 20 1 20 21
M  V30 21 2 20 22
M  V30 22 1 22 23
M  V30 23 1 22 24
M  V30 24 1 24 25
M  V30 25 2 24 26
M  V30 26 2 16 27
M  V30 27 1 27 28
M  V30 28 2 28 29
M  V30 29 1 29 4
M  V30 30 1 13 9
M  V30 31 1 29 14
M  V30 32 1 26 18
M  V30 33 1 1 30
M  V30 34 1 1 31
M  V30 35 1 1 32
M  V30 36 1 2 33
M  V30 37 1 3 34
M  V30 38 1 3 35
M  V30 39 1 3 36
M  V30 40 1 4 37
M  V30 41 1 9 38
M  V30 42 1 10 39
M  V30 43 1 10 40
M  V30 44 1 11 41
M  V30 45 1 11 42
M  V30 46 1 12 43
M  V30 47 1 12 44
M  V30 48 1 13 45
M  V30 49 1 13 46
M  V30 50 1 17 47
M  V30 51 1 19 48
M  V30 52 1 23 49
M  V30 53 1 26 50
M  V30 54 1 28 51
M  V30 END BOND
M  V30 END CTAB
M  END
>  <Dataset>  (91) 
ChEMBL_Kinases

>  <Ligand_Instance>  (91) 
nan

>  <PDB_ID>  (91) 
nan

>  <Standardized_SMILES>  (91) 
CC(C)C1OC(=O)N(C2CCCC2)c2nc(Nc3cc(Cl)c(O)c(Cl)c3)ncc21

>  <Name>  (91) 
nan

>  <Pocket>  (91) 
nan

>  <ATP_Site>  (91) 
nan

>  <Peripheral>  (91) 
nan

>  <Num_H_Atoms_ProtBoundConf>  (91) 
nan

>  <Num_Resolved_Atoms>  (91) 
nan

>  <Num_Not_Resolved_Atoms>  (91) 
nan

$$$$
CHEMBL4846663
     RDKit          3D

  0  0  0  0  0  0  0  0  0  0999 V3000
M  V30 BEGIN CTAB
M  V30 COUNTS 54 56 0 0 0
M  V30 BEGIN ATOM
M  V30 1 C 6.938792 -2.336997 2.559203 0
M  V30 2 C 6.217230 -3.436547 1.809510 0
M  V30 3 C 5.885079 -4.528989 2.779427 0
M  V30 4 N 5.061706 -2.960422 1.081444 0
M  V30 5 C 4.900189 -3.031691 -0.309950 0
M  V30 6 O 5.780437 -3.533109 -1.055968 0
M  V30 7 C 3.700519 -2.528863 -0.983751 0
M  V30 8 C 2.632256 -1.949258 -0.333030 0
M  V30 9 C 1.553815 -1.514283 -1.099880 0
M  V30 10 C 0.397000 -0.889961 -0.415745 0
M  V30 11 C -0.852923 -1.062316 -0.992729 0
M  V30 12 C -1.932183 -0.468598 -0.335912 0
M  V30 13 C -1.782943 0.266955 0.845158 0
M  V30 14 N -2.989843 0.798873 1.374444 0
M  V30 15 C -3.751752 1.987378 1.253537 0
M  V30 16 O -3.116648 2.731510 0.429200 0
M  V30 17 C -5.007039 2.100880 2.038017 0 CFG=2
M  V30 18 O -5.206284 0.950478 2.807232 0
M  V30 19 C -6.135110 2.244293 1.083602 0
M  V30 20 C -6.154805 2.546379 -0.259238 0
M  V30 21 C -7.344142 2.626157 -0.943559 0
M  V30 22 F -7.208714 2.929542 -2.248455 0
M  V30 23 C -8.545596 2.403266 -0.291362 0
M  V30 24 C -8.564394 2.098608 1.052219 0
M  V30 25 F -9.769193 1.891730 1.633268 0
M  V30 26 C -7.360374 2.022506 1.724355 0
M  V30 27 C -0.513902 0.406171 1.375256 0
M  V30 28 C 0.577775 -0.169621 0.749364 0
M  V30 29 C 1.510415 -1.638498 -2.473990 0
M  V30 30 N 2.557910 -2.206074 -3.103970 0
M  V30 31 C 3.615398 -2.633166 -2.358606 0
M  V30 32 N 4.660171 -3.216866 -3.153376 0
M  V30 33 H 6.598824 -1.346626 2.192600 0
M  V30 34 H 6.679551 -2.340211 3.651617 0
M  V30 35 H 8.045960 -2.413331 2.475682 0
M  V30 36 H 6.963703 -3.870101 1.089057 0
M  V30 37 H 5.964596 -5.546424 2.333874 0
M  V30 38 H 4.896159 -4.373612 3.279315 0
M  V30 39 H 6.644119 -4.506887 3.588713 0
M  V30 40 H 4.326449 -2.541802 1.697334 0
M  V30 41 H 2.668652 -1.854371 0.729787 0
M  V30 42 H -1.029096 -1.620996 -1.905251 0
M  V30 43 H -2.906096 -0.612222 -0.799856 0
M  V30 44 H -3.234473 -0.037901 1.985889 0
M  V30 45 H -4.970872 2.975193 2.743578 0
M  V30 46 H -4.763496 1.065916 3.693002 0
M  V30 47 H -5.171220 2.696646 -0.652510 0
M  V30 48 H -9.438838 2.483464 -0.895118 0
M  V30 49 H -7.501939 1.774097 2.784624 0
M  V30 50 H -0.452522 0.983115 2.287847 0
M  V30 51 H 1.558180 -0.042859 1.188607 0
M  V30 52 H 0.673606 -1.300124 -3.060762 0
M  V30 53 H 5.551156 -2.926911 -3.642875 0
M  V30 54 H 5.035707 -4.066975 -3.592171 0
M  V30 END ATOM
M  V30 BEGIN BOND
M  V30 1 1 1 2
M  V30 2 1 2 3
M  V30 3 1 2 4
M  V30 4 1 4 5
M  V30 5 2 5 6
M  V30 6 1 5 7
M  V30 7 2 7 8
M  V30 8 1 8 9
M  V30 9 1 9 10
M  V30 10 2 10 11
M  V30 11 1 11 12
M  V30 12 2 12 13
M  V30 13 1 13 14
M  V30 14 1 14 15
M  V30 15 2 15 16
M  V30 16 1 15 17
M  V30 17 1 17 18
M  V30 18 1 17 19
M  V30 19 2 19 20
M  V30 20 1 20 21
M  V30 21 1 21 22
M  V30 22 2 21 23
M  V30 23 1 23 24
M  V30 24 1 24 25
M  V30 25 2 24 26
M  V30 26 1 13 27
M  V30 27 2 27 28
M  V30 28 2 9 29
M  V30 29 1 29 30
M  V30 30 2 30 31
M  V30 31 1 31 32
M  V30 32 1 31 7
M  V30 33 1 28 10
M  V30 34 1 26 19
M  V30 35 1 1 33
M  V30 36 1 1 34
M  V30 37 1 1 35
M  V30 38 1 2 36
M  V30 39 1 3 37
M  V30 40 1 3 38
M  V30 41 1 3 39
M  V30 42 1 4 40
M  V30 43 1 8 41
M  V30 44 1 11 42
M  V30 45 1 12 43
M  V30 46 1 14 44
M  V30 47 1 17 45 CFG=1
M  V30 48 1 18 46
M  V30 49 1 20 47
M  V30 50 1 23 48
M  V30 51 1 26 49
M  V30 52 1 27 50
M  V30 53 1 28 51
M  V30 54 1 29 52
M  V30 55 1 32 53
M  V30 56 1 32 54
M  V30 END BOND
M  V30 END CTAB
M  END
>  <Dataset>  (92) 
ChEMBL_Kinases

>  <Ligand_Instance>  (92) 
nan

>  <PDB_ID>  (92) 
nan

>  <Standardized_SMILES>  (92) 
CC(C)NC(=O)c1cc(-c2ccc(NC(=O)[C@H](O)c3cc(F)cc(F)c3)cc2)cnc1N

>  <Name>  (92) 
nan

>  <Pocket>  (92) 
nan

>  <ATP_Site>  (92) 
nan

>  <Peripheral>  (92) 
nan

>  <Num_H_Atoms_ProtBoundConf>  (92) 
nan

>  <Num_Resolved_Atoms>  (92) 
nan

>  <Num_Not_Resolved_Atoms>  (92) 
nan

$$$$
CHEMBL4089166
     RDKit          3D

  0  0  0  0  0  0  0  0  0  0999 V3000
M  V30 BEGIN CTAB
M  V30 COUNTS 42 45 0 0 0
M  V30 BEGIN ATOM
M  V30 1 N 0.988142 -3.006903 2.629395 0
M  V30 2 C 1.355149 -2.685030 1.292331 0
M  V30 3 O 0.333353 -2.819859 0.557843 0
M  V30 4 C 2.759125 -2.294495 1.099654 0
M  V30 5 N 3.097521 -1.969969 -0.271137 0
M  V30 6 N 3.497232 -2.871494 -1.159468 0
M  V30 7 C 3.752931 -2.320650 -2.356094 0
M  V30 8 C 3.504887 -0.969179 -2.245029 0
M  V30 9 N 3.592064 0.082670 -3.064118 0
M  V30 10 C 3.304376 1.335292 -2.687815 0
M  V30 11 C 2.902742 1.486048 -1.379024 0
M  V30 12 C 2.787820 0.427012 -0.465805 0
M  V30 13 N 2.365365 0.833521 0.823768 0
M  V30 14 C 1.258464 0.682380 1.705501 0
M  V30 15 C 1.381731 0.890624 3.054758 0
M  V30 16 C 0.227975 0.737914 3.782858 0
M  V30 17 N -0.956541 0.407609 3.239943 0
M  V30 18 C -1.129855 0.193217 1.925549 0
M  V30 19 C -2.455401 -0.156402 1.466644 0
M  V30 20 C -3.460568 -0.248590 2.402633 0
M  V30 21 C -4.759054 -0.574855 2.073857 0
M  V30 22 F -5.719482 -0.656357 3.017130 0
M  V30 23 C -5.115050 -0.826454 0.780056 0
M  V30 24 C -4.142788 -0.745302 -0.184829 0
M  V30 25 C -2.860278 -0.417128 0.183881 0
M  V30 26 F -1.960447 -0.355032 -0.805601 0
M  V30 27 C 0.021252 0.345925 1.201879 0
M  V30 28 C 3.109022 -0.816792 -0.956075 0
M  V30 29 H 1.259110 -3.826024 3.248269 0
M  V30 30 H 0.350518 -2.420585 3.211435 0
M  V30 31 H 3.441440 -3.159832 1.379476 0
M  V30 32 H 3.056790 -1.509413 1.825603 0
M  V30 33 H 4.092578 -2.847690 -3.244846 0
M  V30 34 H 3.380990 2.174824 -3.363172 0
M  V30 35 H 2.673497 2.527858 -1.099160 0
M  V30 36 H 3.148463 1.435130 1.226719 0
M  V30 37 H 2.348654 1.152788 3.442306 0
M  V30 38 H 0.284908 0.894819 4.858195 0
M  V30 39 H -3.288324 -0.066852 3.474183 0
M  V30 40 H -6.123935 -1.084804 0.488566 0
M  V30 41 H -4.403635 -0.940725 -1.214979 0
M  V30 42 H -0.035851 0.190237 0.136435 0
M  V30 END ATOM
M  V30 BEGIN BOND
M  V30 1 1 1 2
M  V30 2 2 2 3
M  V30 3 1 2 4
M  V30 4 1 4 5
M  V30 5 1 5 6
M  V30 6 2 6 7
M  V30 7 1 7 8
M  V30 8 2 8 9
M  V30 9 1 9 10
M  V30 10 2 10 11
M  V30 11 1 11 12
M  V30 12 1 12 13
M  V30 13 1 13 14
M  V30 14 2 14 15
M  V30 15 1 15 16
M  V30 16 2 16 17
M  V30 17 1 17 18
M  V30 18 1 18 19
M  V30 19 2 19 20
M  V30 20 1 20 21
M  V30 21 1 21 22
M  V30 22 2 21 23
M  V30 23 1 23 24
M  V30 24 2 24 25
M  V30 25 1 25 26
M  V30 26 2 18 27
M  V30 27 2 12 28
M  V30 28 1 28 5
M  V30 29 1 28 8
M  V30 30 1 27 14
M  V30 31 1 25 19
M  V30 32 1 1 29
M  V30 33 1 1 30
M  V30 34 1 4 31
M  V30 35 1 4 32
M  V30 36 1 7 33
M  V30 37 1 10 34
M  V30 38 1 11 35
M  V30 39 1 13 36
M  V30 40 1 15 37
M  V30 41 1 16 38
M  V30 42 1 20 39
M  V30 43 1 23 40
M  V30 44 1 24 41
M  V30 45 1 27 42
M  V30 END BOND
M  V30 END CTAB
M  END
>  <Dataset>  (93) 
ChEMBL_Kinases

>  <Ligand_Instance>  (93) 
nan

>  <PDB_ID>  (93) 
nan

>  <Standardized_SMILES>  (93) 
NC(=O)Cn1ncc2nccc(Nc3ccnc(-c4cc(F)ccc4F)c3)c21

>  <Name>  (93) 
nan

>  <Pocket>  (93) 
nan

>  <ATP_Site>  (93) 
nan

>  <Peripheral>  (93) 
nan

>  <Num_H_Atoms_ProtBoundConf>  (93) 
nan

>  <Num_Resolved_Atoms>  (93) 
nan

>  <Num_Not_Resolved_Atoms>  (93) 
nan

$$$$
CHEMBL4089699
     RDKit          3D

  0  0  0  0  0  0  0  0  0  0999 V3000
M  V30 BEGIN CTAB
M  V30 COUNTS 44 47 0 0 0
M  V30 BEGIN ATOM
M  V30 1 N 0.078642 -4.417613 4.267182 0
M  V30 2 C 0.730066 -3.251560 4.751543 0
M  V30 3 O 1.200657 -3.169080 5.907460 0
M  V30 4 C 0.884138 -2.085259 3.921521 0
M  V30 5 C 1.500871 -0.924339 4.319687 0
M  V30 6 N 1.540258 0.030226 3.411235 0
M  V30 7 C 1.074903 0.043004 2.168094 0
M  V30 8 O 1.319091 1.201954 1.583991 0
M  V30 9 C 1.184449 1.924721 0.461645 0 CFG=1
M  V30 10 C 0.560858 3.287045 0.851599 0
M  V30 11 C 1.128884 4.395272 -0.016506 0
M  V30 12 C 2.510252 4.683131 0.534591 0
M  V30 13 N 3.061998 3.397159 0.916482 0
M  V30 14 C 2.613364 2.341474 0.029962 0
M  V30 15 C 0.443706 -1.076486 1.687769 0
M  V30 16 C -0.110302 -1.317876 0.479950 0
M  V30 17 C -0.693012 -2.490337 0.183903 0
M  V30 18 C -1.353683 -3.056446 -0.961325 0
M  V30 19 C -1.841891 -4.342223 -0.887430 0
M  V30 20 C -2.469662 -4.811920 -2.048028 0
M  V30 21 C -2.607856 -4.055034 -3.216116 0
M  V30 22 C -2.085861 -2.776551 -3.192990 0
M  V30 23 C -1.453139 -2.252497 -2.076967 0
M  V30 24 S -0.505465 -3.448458 1.695758 0
M  V30 25 C 0.376109 -2.116583 2.612405 0
M  V30 26 H -0.954855 -4.496579 4.453482 0
M  V30 27 H 0.468209 -5.228295 3.743868 0
M  V30 28 H 1.867369 -0.959419 5.325279 0
M  V30 29 H 0.688186 1.521669 -0.421820 0
M  V30 30 H -0.521005 3.301908 0.720662 0
M  V30 31 H 0.872265 3.514218 1.906814 0
M  V30 32 H 0.436743 5.259070 0.083889 0
M  V30 33 H 1.127033 4.035581 -1.053049 0
M  V30 34 H 2.366394 5.299464 1.449259 0
M  V30 35 H 3.086597 5.210052 -0.227593 0
M  V30 36 H 4.079313 3.414162 1.085036 0
M  V30 37 H 3.322151 1.497057 0.187536 0
M  V30 38 H 2.650676 2.629553 -1.022367 0
M  V30 39 H -0.143615 -0.625414 -0.342600 0
M  V30 40 H -1.773517 -4.986860 -0.022914 0
M  V30 41 H -2.885668 -5.816120 -2.082056 0
M  V30 42 H -3.106483 -4.490796 -4.071467 0
M  V30 43 H -2.204606 -2.206272 -4.111734 0
M  V30 44 H -1.064676 -1.255524 -2.108054 0
M  V30 END ATOM
M  V30 BEGIN BOND
M  V30 1 1 1 2
M  V30 2 2 2 3
M  V30 3 1 2 4
M  V30 4 2 4 5
M  V30 5 1 5 6
M  V30 6 2 6 7
M  V30 7 1 7 8
M  V30 8 1 8 9
M  V30 9 1 9 10
M  V30 10 1 10 11
M  V30 11 1 11 12
M  V30 12 1 12 13
M  V30 13 1 13 14
M  V30 14 1 7 15
M  V30 15 1 15 16
M  V30 16 2 16 17
M  V30 17 1 17 18
M  V30 18 2 18 19
M  V30 19 1 19 20
M  V30 20 2 20 21
M  V30 21 1 21 22
M  V30 22 2 22 23
M  V30 23 1 17 24
M  V30 24 1 24 25
M  V30 25 1 25 4
M  V30 26 1 14 9
M  V30 27 2 25 15
M  V30 28 1 23 18
M  V30 29 1 1 26
M  V30 30 1 1 27
M  V30 31 1 5 28
M  V30 32 1 9 29 CFG=3
M  V30 33 1 10 30
M  V30 34 1 10 31
M  V30 35 1 11 32
M  V30 36 1 11 33
M  V30 37 1 12 34
M  V30 38 1 12 35
M  V30 39 1 13 36
M  V30 40 1 14 37
M  V30 41 1 14 38
M  V30 42 1 16 39
M  V30 43 1 19 40
M  V30 44 1 20 41
M  V30 45 1 21 42
M  V30 46 1 22 43
M  V30 47 1 23 44
M  V30 END BOND
M  V30 END CTAB
M  END
>  <Dataset>  (94) 
ChEMBL_Kinases

>  <Ligand_Instance>  (94) 
nan

>  <PDB_ID>  (94) 
nan

>  <Standardized_SMILES>  (94) 
NC(=O)c1cnc(O[C@H]2CCCNC2)c2cc(-c3ccccc3)sc12

>  <Name>  (94) 
nan

>  <Pocket>  (94) 
nan

>  <ATP_Site>  (94) 
nan

>  <Peripheral>  (94) 
nan

>  <Num_H_Atoms_ProtBoundConf>  (94) 
nan

>  <Num_Resolved_Atoms>  (94) 
nan

>  <Num_Not_Resolved_Atoms>  (94) 
nan

$$$$
CHEMBL4087672
     RDKit          3D

  0  0  0  0  0  0  0  0  0  0999 V3000
M  V30 BEGIN CTAB
M  V30 COUNTS 41 44 0 0 0
M  V30 BEGIN ATOM
M  V30 1 C 1.219426 -5.394628 5.422278 0
M  V30 2 C 0.893692 -4.430974 4.335845 0
M  V30 3 C -0.212020 -3.583361 4.267591 0
M  V30 4 C -0.153278 -2.846849 3.104026 0
M  V30 5 N -1.080628 -1.861346 2.636484 0
M  V30 6 C -0.859889 -1.191421 1.397585 0
M  V30 7 N -0.131829 -0.042366 1.505377 0
M  V30 8 C 0.133059 0.667585 0.389965 0
M  V30 9 C 0.911643 1.891401 0.525098 0
M  V30 10 O 1.287200 2.202943 1.694283 0
M  V30 11 N 1.235866 2.699223 -0.599515 0
M  V30 12 C 2.003503 3.889334 -0.400888 0
M  V30 13 C 1.492303 5.166050 -0.982242 0
M  V30 14 N 2.701969 5.211704 -1.815685 0
M  V30 15 C 3.257664 4.036362 -1.206318 0
M  V30 16 N -0.312707 0.254195 -0.823757 0
M  V30 17 C -1.034332 -0.872121 -0.980357 0
M  V30 18 C -1.492623 -1.302126 -2.208595 0
M  V30 19 C -2.226988 -2.470184 -2.281721 0
M  V30 20 C -2.489572 -3.190411 -1.110902 0
M  V30 21 Cl -3.425027 -4.660701 -1.273914 0
M  V30 22 C -2.039327 -2.775672 0.126306 0
M  V30 23 C -1.308936 -1.603892 0.159303 0
M  V30 24 N 0.971119 -3.247847 2.485051 0
M  V30 25 N 1.585405 -4.169731 3.196492 0
M  V30 26 H 0.339133 -6.023748 5.676351 0
M  V30 27 H 2.016990 -6.064695 5.079890 0
M  V30 28 H 1.481747 -4.858853 6.370651 0
M  V30 29 H -0.991536 -3.507703 4.998897 0
M  V30 30 H -1.911561 -1.658666 3.233158 0
M  V30 31 H 0.886680 2.369088 -1.526481 0
M  V30 32 H 2.246211 4.010579 0.675452 0
M  V30 33 H 0.561322 5.079893 -1.579587 0
M  V30 34 H 1.428074 6.039769 -0.280024 0
M  V30 35 H 2.478665 5.161895 -2.832374 0
M  V30 36 H 3.538778 3.199792 -1.872231 0
M  V30 37 H 4.165785 4.327269 -0.637074 0
M  V30 38 H -1.258236 -0.702202 -3.083667 0
M  V30 39 H -2.599807 -2.827453 -3.251407 0
M  V30 40 H -2.241764 -3.331986 1.033091 0
M  V30 41 H 2.486659 -4.684195 2.988645 0
M  V30 END ATOM
M  V30 BEGIN BOND
M  V30 1 1 1 2
M  V30 2 2 2 3
M  V30 3 1 3 4
M  V30 4 1 4 5
M  V30 5 1 5 6
M  V30 6 2 6 7
M  V30 7 1 7 8
M  V30 8 1 8 9
M  V30 9 2 9 10
M  V30 10 1 9 11
M  V30 11 1 11 12
M  V30 12 1 12 13
M  V30 13 1 13 14
M  V30 14 1 14 15
M  V30 15 2 8 16
M  V30 16 1 16 17
M  V30 17 2 17 18
M  V30 18 1 18 19
M  V30 19 2 19 20
M  V30 20 1 20 21
M  V30 21 1 20 22
M  V30 22 2 22 23
M  V30 23 2 4 24
M  V30 24 1 24 25
M  V30 25 1 25 2
M  V30 26 1 23 6
M  V30 27 1 15 12
M  V30 28 1 23 17
M  V30 29 1 1 26
M  V30 30 1 1 27
M  V30 31 1 1 28
M  V30 32 1 3 29
M  V30 33 1 5 30
M  V30 34 1 11 31
M  V30 35 1 12 32
M  V30 36 1 13 33
M  V30 37 1 13 34
M  V30 38 1 14 35
M  V30 39 1 15 36
M  V30 40 1 15 37
M  V30 41 1 18 38
M  V30 42 1 19 39
M  V30 43 1 22 40
M  V30 44 1 25 41
M  V30 END BOND
M  V30 END CTAB
M  END
>  <Dataset>  (95) 
ChEMBL_Kinases

>  <Ligand_Instance>  (95) 
nan

>  <PDB_ID>  (95) 
nan

>  <Standardized_SMILES>  (95) 
Cc1cc(Nc2nc(C(=O)NC3CNC3)nc3ccc(Cl)cc23)n[nH]1

>  <Name>  (95) 
nan

>  <Pocket>  (95) 
nan

>  <ATP_Site>  (95) 
nan

>  <Peripheral>  (95) 
nan

>  <Num_H_Atoms_ProtBoundConf>  (95) 
nan

>  <Num_Resolved_Atoms>  (95) 
nan

>  <Num_Not_Resolved_Atoms>  (95) 
nan

$$$$
CHEMBL4087666
     RDKit          3D

  0  0  0  0  0  0  0  0  0  0999 V3000
M  V30 BEGIN CTAB
M  V30 COUNTS 73 78 0 0 0
M  V30 BEGIN ATOM
M  V30 1 C 2.454736 -1.265323 3.546602 0
M  V30 2 C 2.937155 -0.369941 2.437245 0
M  V30 3 C 3.959832 0.518512 2.779400 0
M  V30 4 C 4.433764 1.363485 1.793530 0
M  V30 5 C 3.863010 1.280728 0.509864 0
M  V30 6 N 4.426868 2.202167 -0.407255 0
M  V30 7 C 5.507367 2.210005 -1.301444 0
M  V30 8 O 6.272928 1.212877 -1.448889 0
M  V30 9 C 5.774506 3.426710 -2.105005 0
M  V30 10 C 6.897902 3.356496 -2.903320 0
M  V30 11 C 7.190541 4.467367 -3.664972 0
M  V30 12 C 6.409507 5.611633 -3.646901 0
M  V30 13 C 5.303864 5.617173 -2.830267 0
M  V30 14 C 4.963225 4.526384 -2.043248 0
M  V30 15 O 4.472422 6.738666 -2.765077 0
M  V30 16 C 4.431344 7.720263 -3.784582 0
M  V30 17 C 5.575320 7.635992 -4.743229 0
M  V30 18 O 6.609194 6.771826 -4.363233 0
M  V30 19 C 2.855460 0.394740 0.200666 0
M  V30 20 C 2.376639 -0.444097 1.158613 0
M  V30 21 N 1.349466 -1.420750 1.035180 0
M  V30 22 C 1.255691 -2.770984 0.703386 0
M  V30 23 O 2.170439 -3.560141 0.404300 0
M  V30 24 C -0.093694 -3.312631 0.716747 0
M  V30 25 C -1.236534 -2.535463 0.546556 0
M  V30 26 C -2.545259 -2.968490 0.575955 0
M  V30 27 C -2.760440 -4.308687 0.797035 0
M  V30 28 N -4.044841 -4.704927 0.825159 0
M  V30 29 C -4.345474 -6.027103 1.046022 0
M  V30 30 O -5.467035 -6.761803 1.138782 0
M  V30 31 C -6.805291 -6.495332 1.035926 0
M  V30 32 C -7.411080 -5.500841 1.960903 0
M  V30 33 N -6.862396 -4.167779 1.855468 0
M  V30 34 C -7.543244 -3.235269 2.749743 0
M  V30 35 C -7.418447 -1.857785 2.123184 0
M  V30 36 C -6.675741 -2.149430 0.810917 0
M  V30 37 C -7.130205 -3.574067 0.555476 0
M  V30 38 C -3.243510 -6.870599 1.229361 0
M  V30 39 C -1.909816 -6.483709 1.203627 0
M  V30 40 C -1.666018 -5.127721 0.973650 0
M  V30 41 C -0.369884 -4.660493 0.936898 0
M  V30 42 H 1.480998 -0.786675 3.859536 0
M  V30 43 H 3.167460 -1.298421 4.363836 0
M  V30 44 H 2.197466 -2.251416 3.091769 0
M  V30 45 H 4.351270 0.522978 3.799555 0
M  V30 46 H 5.236856 2.063854 2.063722 0
M  V30 47 H 3.764825 2.989248 -0.250208 0
M  V30 48 H 7.567940 2.504266 -2.982786 0
M  V30 49 H 8.054305 4.520496 -4.331239 0
M  V30 50 H 4.101317 4.571207 -1.428318 0
M  V30 51 H 3.435510 7.609469 -4.271050 0
M  V30 52 H 4.434372 8.710058 -3.281428 0
M  V30 53 H 6.025303 8.665956 -4.875261 0
M  V30 54 H 5.240961 7.348496 -5.768696 0
M  V30 55 H 2.431943 0.342044 -0.780739 0
M  V30 56 H 0.573451 -0.774943 1.294101 0
M  V30 57 H -1.056049 -1.472733 0.368424 0
M  V30 58 H -3.305891 -2.241162 0.424822 0
M  V30 59 H -7.113450 -6.329859 -0.036838 0
M  V30 60 H -7.338914 -7.476600 1.270168 0
M  V30 61 H -7.270406 -5.831285 3.012328 0
M  V30 62 H -8.525275 -5.399789 1.813403 0
M  V30 63 H -8.630570 -3.510290 2.668293 0
M  V30 64 H -7.185393 -3.285721 3.783658 0
M  V30 65 H -6.818214 -1.161368 2.752184 0
M  V30 66 H -8.396659 -1.439115 1.809161 0
M  V30 67 H -5.596792 -2.182551 1.029238 0
M  V30 68 H -6.966447 -1.453612 -0.000072 0
M  V30 69 H -6.525841 -3.981944 -0.262218 0
M  V30 70 H -8.224082 -3.596420 0.353103 0
M  V30 71 H -3.265729 -7.961583 1.421507 0
M  V30 72 H -1.045886 -7.086837 1.335272 0
M  V30 73 H 0.480083 -5.313032 1.075129 0
M  V30 END ATOM
M  V30 BEGIN BOND
M  V30 1 1 1 2
M  V30 2 2 2 3
M  V30 3 1 3 4
M  V30 4 2 4 5
M  V30 5 1 5 6
M  V30 6 1 6 7
M  V30 7 2 7 8
M  V30 8 1 7 9
M  V30 9 2 9 10
M  V30 10 1 10 11
M  V30 11 2 11 12
M  V30 12 1 12 13
M  V30 13 2 13 14
M  V30 14 1 13 15
M  V30 15 1 15 16
M  V30 16 1 16 17
M  V30 17 1 17 18
M  V30 18 1 5 19
M  V30 19 2 19 20
M  V30 20 1 20 21
M  V30 21 1 21 22
M  V30 22 2 22 23
M  V30 23 1 22 24
M  V30 24 2 24 25
M  V30 25 1 25 26
M  V30 26 2 26 27
M  V30 27 1 27 28
M  V30 28 2 28 29
M  V30 29 1 29 30
M  V30 30 1 30 31
M  V30 31 1 31 32
M  V30 32 1 32 33
M  V30 33 1 33 34
M  V30 34 1 34 35
M  V30 35 1 35 36
M  V30 36 1 36 37
M  V30 37 1 29 38
M  V30 38 2 38 39
M  V30 39 1 39 40
M  V30 40 2 40 41
M  V30 41 1 20 2
M  V30 42 1 41 24
M  V30 43 1 14 9
M  V30 44 1 40 27
M  V30 45 1 18 12
M  V30 46 1 37 33
M  V30 47 1 1 42
M  V30 48 1 1 43
M  V30 49 1 1 44
M  V30 50 1 3 45
M  V30 51 1 4 46
M  V30 52 1 6 47
M  V30 53 1 10 48
M  V30 54 1 11 49
M  V30 55 1 14 50
M  V30 56 1 16 51
M  V30 57 1 16 52
M  V30 58 1 17 53
M  V30 59 1 17 54
M  V30 60 1 19 55
M  V30 61 1 21 56
M  V30 62 1 25 57
M  V30 63 1 26 58
M  V30 64 1 31 59
M  V30 65 1 31 60
M  V30 66 1 32 61
M  V30 67 1 32 62
M  V30 68 1 34 63
M  V30 69 1 34 64
M  V30 70 1 35 65
M  V30 71 1 35 66
M  V30 72 1 36 67
M  V30 73 1 36 68
M  V30 74 1 37 69
M  V30 75 1 37 70
M  V30 76 1 38 71
M  V30 77 1 39 72
M  V30 78 1 41 73
M  V30 END BOND
M  V30 END CTAB
M  END
>  <Dataset>  (96) 
ChEMBL_Kinases

>  <Ligand_Instance>  (96) 
nan

>  <PDB_ID>  (96) 
nan

>  <Standardized_SMILES>  (96) 
Cc1ccc(NC(=O)c2ccc3c(c2)OCCO3)cc1NC(=O)c1ccc2nc(OCCN3CCCC3)ccc2c1

>  <Name>  (96) 
nan

>  <Pocket>  (96) 
nan

>  <ATP_Site>  (96) 
nan

>  <Peripheral>  (96) 
nan

>  <Num_H_Atoms_ProtBoundConf>  (96) 
nan

>  <Num_Resolved_Atoms>  (96) 
nan

>  <Num_Not_Resolved_Atoms>  (96) 
nan

$$$$
CHEMBL4087659
     RDKit          3D

  0  0  0  0  0  0  0  0  0  0999 V3000
M  V30 BEGIN CTAB
M  V30 COUNTS 63 67 0 0 0
M  V30 BEGIN ATOM
M  V30 1 O 1.529723 0.086105 5.656971 0
M  V30 2 C 0.562596 0.604492 5.063737 0
M  V30 3 N 0.907438 0.840508 3.727280 0
M  V30 4 C 2.065776 0.623574 2.952181 0
M  V30 5 C 3.095429 1.533664 2.893824 0
M  V30 6 C 4.243866 1.363600 2.119869 0
M  V30 7 C 4.359279 0.213323 1.362666 0
M  V30 8 C 5.539975 -0.078935 0.477149 0
M  V30 9 N 5.248576 0.568972 -0.807358 0
M  V30 10 C 4.024398 0.136077 -1.465293 0
M  V30 11 N 2.970301 0.478475 -1.094079 0
M  V30 12 C 1.778011 0.187739 -1.577485 0
M  V30 13 C 0.535752 0.625658 -1.087697 0
M  V30 14 C -0.581182 0.204739 -1.737603 0
M  V30 15 C -0.649860 -0.610663 -2.831200 0
M  V30 16 O -1.669361 -1.103198 -3.565031 0
M  V30 17 C -3.050977 -0.940792 -3.424174 0
M  V30 18 C -3.669777 -1.464861 -2.182954 0
M  V30 19 N -3.562150 -2.858929 -1.931668 0
M  V30 20 C -4.319480 -3.689207 -2.827162 0
M  V30 21 C -3.475755 -4.367862 -3.877791 0
M  V30 22 O -2.484897 -5.087169 -3.208200 0
M  V30 23 C -1.595851 -4.238793 -2.552096 0
M  V30 24 C -2.323186 -3.400799 -1.537790 0
M  V30 25 C 0.592467 -1.045611 -3.315645 0
M  V30 26 C 1.768841 -0.631663 -2.671280 0
M  V30 27 S 3.500932 -0.939218 -2.940366 0
M  V30 28 C 3.323859 -0.714924 1.415382 0
M  V30 29 C 2.185934 -0.536868 2.188695 0
M  V30 30 C -0.747742 0.950345 5.573675 0
M  V30 31 C -1.034215 0.754344 6.915281 0
M  V30 32 C -2.302733 1.094485 7.372858 0
M  V30 33 C -3.262657 1.612574 6.539246 0
M  V30 34 Cl -4.829833 2.011994 7.197190 0
M  V30 35 C -2.973330 1.805692 5.205808 0
M  V30 36 C -1.718645 1.469444 4.752122 0
M  V30 37 H 0.266956 1.276667 3.003766 0
M  V30 38 H 2.992458 2.451699 3.497670 0
M  V30 39 H 5.049320 2.092274 2.078937 0
M  V30 40 H 5.660200 -1.168343 0.355910 0
M  V30 41 H 6.433054 0.377735 0.932701 0
M  V30 42 H 5.648838 1.280262 -1.450786 0
M  V30 43 H 0.419831 1.280575 -0.217415 0
M  V30 44 H -1.538796 0.544331 -1.373541 0
M  V30 45 H -3.595166 -1.228449 -4.350234 0
M  V30 46 H -3.200635 0.183880 -3.383618 0
M  V30 47 H -3.398282 -0.838645 -1.322911 0
M  V30 48 H -4.789765 -1.269795 -2.303636 0
M  V30 49 H -5.212412 -3.177670 -3.210290 0
M  V30 50 H -4.727023 -4.519802 -2.175934 0
M  V30 51 H -4.080556 -5.085581 -4.441956 0
M  V30 52 H -3.041973 -3.645736 -4.600943 0
M  V30 53 H -0.918560 -4.940549 -1.976965 0
M  V30 54 H -0.934154 -3.698509 -3.227377 0
M  V30 55 H -2.553923 -4.125094 -0.690264 0
M  V30 56 H -1.678447 -2.650126 -1.056519 0
M  V30 57 H 0.856690 -1.697286 -4.163405 0
M  V30 58 H 3.360133 -1.648816 0.833930 0
M  V30 59 H 1.406799 -1.304025 2.182825 0
M  V30 60 H -0.282746 0.343299 7.587950 0
M  V30 61 H -2.450892 0.915368 8.429386 0
M  V30 62 H -3.739504 2.210009 4.584978 0
M  V30 63 H -1.588434 1.653445 3.698974 0
M  V30 END ATOM
M  V30 BEGIN BOND
M  V30 1 2 1 2
M  V30 2 1 2 3
M  V30 3 1 3 4
M  V30 4 2 4 5
M  V30 5 1 5 6
M  V30 6 2 6 7
M  V30 7 1 7 8
M  V30 8 1 8 9
M  V30 9 1 9 10
M  V30 10 2 10 11
M  V30 11 1 11 12
M  V30 12 2 12 13
M  V30 13 1 13 14
M  V30 14 2 14 15
M  V30 15 1 15 16
M  V30 16 1 16 17
M  V30 17 1 17 18
M  V30 18 1 18 19
M  V30 19 1 19 20
M  V30 20 1 20 21
M  V30 21 1 21 22
M  V30 22 1 22 23
M  V30 23 1 23 24
M  V30 24 1 15 25
M  V30 25 2 25 26
M  V30 26 1 26 27
M  V30 27 1 7 28
M  V30 28 2 28 29
M  V30 29 1 2 30
M  V30 30 2 30 31
M  V30 31 1 31 32
M  V30 32 2 32 33
M  V30 33 1 33 34
M  V30 34 1 33 35
M  V30 35 2 35 36
M  V30 36 1 29 4
M  V30 37 1 36 30
M  V30 38 1 27 10
M  V30 39 1 26 12
M  V30 40 1 24 19
M  V30 41 1 3 37
M  V30 42 1 5 38
M  V30 43 1 6 39
M  V30 44 1 8 40
M  V30 45 1 8 41
M  V30 46 1 9 42
M  V30 47 1 13 43
M  V30 48 1 14 44
M  V30 49 1 17 45
M  V30 50 1 17 46
M  V30 51 1 18 47
M  V30 52 1 18 48
M  V30 53 1 20 49
M  V30 54 1 20 50
M  V30 55 1 21 51
M  V30 56 1 21 52
M  V30 57 1 23 53
M  V30 58 1 23 54
M  V30 59 1 24 55
M  V30 60 1 24 56
M  V30 61 1 25 57
M  V30 62 1 28 58
M  V30 63 1 29 59
M  V30 64 1 31 60
M  V30 65 1 32 61
M  V30 66 1 35 62
M  V30 67 1 36 63
M  V30 END BOND
M  V30 END CTAB
M  END
>  <Dataset>  (97) 
ChEMBL_Kinases

>  <Ligand_Instance>  (97) 
nan

>  <PDB_ID>  (97) 
nan

>  <Standardized_SMILES>  (97) 
O=C(Nc1ccc(CNc2nc3ccc(OCCN4CCOCC4)cc3s2)cc1)c1ccc(Cl)cc1

>  <Name>  (97) 
nan

>  <Pocket>  (97) 
nan

>  <ATP_Site>  (97) 
nan

>  <Peripheral>  (97) 
nan

>  <Num_H_Atoms_ProtBoundConf>  (97) 
nan

>  <Num_Resolved_Atoms>  (97) 
nan

>  <Num_Not_Resolved_Atoms>  (97) 
nan

$$$$
CHEMBL4087584
     RDKit          3D

  0  0  0  0  0  0  0  0  0  0999 V3000
M  V30 BEGIN CTAB
M  V30 COUNTS 73 75 0 0 0
M  V30 BEGIN ATOM
M  V30 1 C -4.455162 -6.072704 -0.319571 0
M  V30 2 C -3.753152 -6.551878 -1.583581 0
M  V30 3 C -3.740013 -5.393871 -2.558834 0
M  V30 4 C -3.065375 -5.729746 -3.846657 0
M  V30 5 C -3.040719 -4.538261 -4.812841 0
M  V30 6 C -2.318565 -3.377881 -4.235553 0
M  V30 7 C -2.202153 -2.161535 -5.138625 0
M  V30 8 C -1.454519 -1.132091 -4.274282 0
M  V30 9 C -1.209662 0.137984 -5.035235 0
M  V30 10 C -0.525771 1.089647 -4.081955 0
M  V30 11 C 0.773266 0.557864 -3.525764 0
M  V30 12 C 1.239286 1.666923 -2.603264 0
M  V30 13 O 0.885269 2.866813 -2.498914 0
M  V30 14 N 2.216467 1.135003 -1.775700 0
M  V30 15 N 3.061209 1.567064 -0.695207 0
M  V30 16 C 1.920190 1.652411 0.239246 0
M  V30 17 O 0.814937 1.315425 -0.383565 0
M  V30 18 C 1.594976 1.998898 1.653896 0
M  V30 19 C 0.314905 2.341304 1.929453 0
M  V30 20 O -0.679237 2.400700 0.957260 0
M  V30 21 C 0.027881 2.634929 3.245429 0
M  V30 22 C -1.272669 3.000267 3.497171 0
M  V30 23 C -1.635762 3.334136 4.775400 0
M  V30 24 C -0.654291 3.276409 5.733397 0
M  V30 25 Cl -1.157751 3.711092 7.369987 0
M  V30 26 C 0.675838 2.905316 5.505561 0
M  V30 27 C 1.019347 2.567648 4.182511 0
M  V30 28 N 2.325435 2.228899 3.969386 0
M  V30 29 C 3.311402 2.112647 4.965855 0
M  V30 30 C 3.365456 0.683509 5.413585 0
M  V30 31 C 4.324098 -0.167475 4.899015 0
M  V30 32 C 4.542291 -1.510100 5.164377 0
M  V30 33 C 3.645797 -2.050050 6.092096 0
M  V30 34 C 2.661866 -1.283483 6.656175 0
M  V30 35 C 2.522535 0.061297 6.323417 0
M  V30 36 C 2.534462 1.954816 2.641789 0
M  V30 37 O 3.731195 1.649281 2.421048 0
M  V30 38 H -5.440227 -5.699836 -0.587549 0
M  V30 39 H -4.626383 -6.982218 0.305300 0
M  V30 40 H -3.841764 -5.325967 0.209807 0
M  V30 41 H -4.276157 -7.439383 -1.946726 0
M  V30 42 H -2.715807 -6.870099 -1.310766 0
M  V30 43 H -4.815473 -5.138977 -2.746852 0
M  V30 44 H -3.293496 -4.525773 -2.048110 0
M  V30 45 H -2.029913 -6.082264 -3.716918 0
M  V30 46 H -3.639841 -6.546972 -4.348381 0
M  V30 47 H -4.084836 -4.239507 -5.064835 0
M  V30 48 H -2.575533 -4.835421 -5.775588 0
M  V30 49 H -1.251084 -3.667778 -4.016253 0
M  V30 50 H -2.750933 -3.072872 -3.266860 0
M  V30 51 H -3.163585 -1.717609 -5.397961 0
M  V30 52 H -1.597294 -2.346208 -6.040473 0
M  V30 53 H -2.043528 -0.924567 -3.376168 0
M  V30 54 H -0.460582 -1.620968 -4.065724 0
M  V30 55 H -2.171566 0.581250 -5.375167 0
M  V30 56 H -0.601416 -0.000597 -5.930175 0
M  V30 57 H -0.261775 2.032427 -4.613421 0
M  V30 58 H -1.224539 1.375989 -3.261005 0
M  V30 59 H 0.644489 -0.388990 -3.004572 0
M  V30 60 H 1.483904 0.437096 -4.374442 0
M  V30 61 H 2.639470 0.147968 -1.737157 0
M  V30 62 H 3.551657 1.882504 0.141091 0
M  V30 63 H -0.685857 3.131107 0.232076 0
M  V30 64 H -2.015735 3.041889 2.721016 0
M  V30 65 H -2.654343 3.629758 4.991779 0
M  V30 66 H 1.355883 2.913187 6.330917 0
M  V30 67 H 4.330742 2.291424 4.501193 0
M  V30 68 H 3.279465 2.714471 5.834904 0
M  V30 69 H 5.081053 0.172001 4.169014 0
M  V30 70 H 5.306969 -2.135371 4.735870 0
M  V30 71 H 3.732309 -3.095112 6.364808 0
M  V30 72 H 1.967063 -1.706509 7.369516 0
M  V30 73 H 1.746091 0.625094 6.794436 0
M  V30 END ATOM
M  V30 BEGIN BOND
M  V30 1 1 1 2
M  V30 2 1 2 3
M  V30 3 1 3 4
M  V30 4 1 4 5
M  V30 5 1 5 6
M  V30 6 1 6 7
M  V30 7 1 7 8
M  V30 8 1 8 9
M  V30 9 1 9 10
M  V30 10 1 10 11
M  V30 11 1 11 12
M  V30 12 2 12 13
M  V30 13 1 12 14
M  V30 14 1 14 15
M  V30 15 1 15 16
M  V30 16 2 16 17
M  V30 17 1 16 18
M  V30 18 2 18 19
M  V30 19 1 19 20
M  V30 20 1 19 21
M  V30 21 2 21 22
M  V30 22 1 22 23
M  V30 23 2 23 24
M  V30 24 1 24 25
M  V30 25 1 24 26
M  V30 26 2 26 27
M  V30 27 1 27 28
M  V30 28 1 28 29
M  V30 29 1 29 30
M  V30 30 2 30 31
M  V30 31 1 31 32
M  V30 32 2 32 33
M  V30 33 1 33 34
M  V30 34 2 34 35
M  V30 35 1 28 36
M  V30 36 2 36 37
M  V30 37 1 36 18
M  V30 38 1 27 21
M  V30 39 1 35 30
M  V30 40 1 1 38
M  V30 41 1 1 39
M  V30 42 1 1 40
M  V30 43 1 2 41
M  V30 44 1 2 42
M  V30 45 1 3 43
M  V30 46 1 3 44
M  V30 47 1 4 45
M  V30 48 1 4 46
M  V30 49 1 5 47
M  V30 50 1 5 48
M  V30 51 1 6 49
M  V30 52 1 6 50
M  V30 53 1 7 51
M  V30 54 1 7 52
M  V30 55 1 8 53
M  V30 56 1 8 54
M  V30 57 1 9 55
M  V30 58 1 9 56
M  V30 59 1 10 57
M  V30 60 1 10 58
M  V30 61 1 11 59
M  V30 62 1 11 60
M  V30 63 1 14 61
M  V30 64 1 15 62
M  V30 65 1 20 63
M  V30 66 1 22 64
M  V30 67 1 23 65
M  V30 68 1 26 66
M  V30 69 1 29 67
M  V30 70 1 29 68
M  V30 71 1 31 69
M  V30 72 1 32 70
M  V30 73 1 33 71
M  V30 74 1 34 72
M  V30 75 1 35 73
M  V30 END BOND
M  V30 END CTAB
M  END
>  <Dataset>  (98) 
ChEMBL_Kinases

>  <Ligand_Instance>  (98) 
nan

>  <PDB_ID>  (98) 
nan

>  <Standardized_SMILES>  (98) 
CCCCCCCCCCCC(=O)NNC(=O)c1c(O)c2ccc(Cl)cc2n(Cc2ccccc2)c1=O

>  <Name>  (98) 
nan

>  <Pocket>  (98) 
nan

>  <ATP_Site>  (98) 
nan

>  <Peripheral>  (98) 
nan

>  <Num_H_Atoms_ProtBoundConf>  (98) 
nan

>  <Num_Resolved_Atoms>  (98) 
nan

>  <Num_Not_Resolved_Atoms>  (98) 
nan

$$$$
CHEMBL4847460
     RDKit          3D

  0  0  0  0  0  0  0  0  0  0999 V3000
M  V30 BEGIN CTAB
M  V30 COUNTS 68 71 0 0 0
M  V30 BEGIN ATOM
M  V30 1 C 5.985073 -2.640710 6.222800 0
M  V30 2 N 5.607878 -1.294675 5.881303 0
M  V30 3 C 5.636565 -1.020162 4.484810 0
M  V30 4 O 5.985902 -1.977472 3.715545 0
M  V30 5 C 5.269686 0.323472 4.014872 0
M  V30 6 C 5.306487 0.551988 2.637389 0
M  V30 7 C 4.965489 1.808042 2.143604 0
M  V30 8 O 5.037116 1.925162 0.741021 0
M  V30 9 C 3.902856 1.614728 -0.036987 0
M  V30 10 C 3.693115 0.339224 -0.520663 0
M  V30 11 C 2.574689 0.055624 -1.280420 0
M  V30 12 C 1.691013 1.113575 -1.522592 0
M  V30 13 N 0.547365 0.722808 -2.320557 0
M  V30 14 C -0.435218 0.295598 -1.381321 0
M  V30 15 O 0.107405 0.436458 -0.232249 0
M  V30 16 C -1.758925 -0.188286 -1.731161 0
M  V30 17 N -2.087747 -0.298541 -3.036170 0
M  V30 18 C -3.334633 -0.779708 -3.119467 0
M  V30 19 S -4.232676 -1.107291 -4.633453 0
M  V30 20 C -3.228349 -0.698071 -6.064266 0
M  V30 21 N -3.774874 -0.966400 -1.876547 0
M  V30 22 C -5.080441 -1.431828 -1.567256 0
M  V30 23 C -5.320796 -2.898737 -1.646095 0
M  V30 24 N -4.518375 -3.765955 -0.871069 0
M  V30 25 C -3.144681 -3.889357 -1.298842 0
M  V30 26 C -5.101163 -5.089314 -0.823614 0
M  V30 27 C -2.824284 -0.608101 -0.956289 0
M  V30 28 C -2.826455 -0.549011 0.494772 0
M  V30 29 C -3.101521 -1.406622 1.501052 0
M  V30 30 C -3.062155 -1.109646 2.840795 0
M  V30 31 C -2.718600 0.158071 3.252231 0
M  V30 32 F -2.681821 0.443421 4.574196 0
M  V30 33 C -2.421250 1.102275 2.292633 0
M  V30 34 C -2.481671 0.732967 0.965822 0
M  V30 35 C 1.882612 2.404361 -1.046225 0
M  V30 36 C 3.015186 2.641134 -0.291194 0
M  V30 37 C 4.597827 2.803504 3.027171 0
M  V30 38 C 4.584942 2.508293 4.356621 0
M  V30 39 N 4.905793 1.311223 4.878300 0
M  V30 40 H 7.075080 -2.648690 6.391366 0
M  V30 41 H 5.509026 -2.873900 7.213354 0
M  V30 42 H 5.645370 -3.394175 5.483615 0
M  V30 43 H 5.340581 -0.600870 6.611388 0
M  V30 44 H 5.600103 -0.256969 1.988326 0
M  V30 45 H 4.409253 -0.462142 -0.308433 0
M  V30 46 H 2.417069 -0.932634 -1.652353 0
M  V30 47 H 0.301210 0.687350 -3.358645 0
M  V30 48 H -3.866278 -0.150792 -6.787664 0
M  V30 49 H -2.781898 -1.590359 -6.501846 0
M  V30 50 H -2.444275 0.009366 -5.728921 0
M  V30 51 H -5.427471 -1.062641 -0.570215 0
M  V30 52 H -5.794442 -0.968663 -2.316995 0
M  V30 53 H -6.406096 -3.035654 -1.333721 0
M  V30 54 H -5.331122 -3.268540 -2.703089 0
M  V30 55 H -2.392958 -3.441689 -0.664775 0
M  V30 56 H -3.107703 -3.552969 -2.356016 0
M  V30 57 H -2.857717 -4.984872 -1.362566 0
M  V30 58 H -5.523162 -5.272878 0.206218 0
M  V30 59 H -5.875677 -5.237698 -1.614536 0
M  V30 60 H -4.361453 -5.897705 -0.981267 0
M  V30 61 H -3.370399 -2.387682 1.177333 0
M  V30 62 H -3.308216 -1.903416 3.518755 0
M  V30 63 H -2.163678 2.060809 2.667286 0
M  V30 64 H -2.234333 1.600281 0.330096 0
M  V30 65 H 1.136908 3.146326 -1.293831 0
M  V30 66 H 3.184198 3.648232 0.092785 0
M  V30 67 H 4.353054 3.730909 2.572798 0
M  V30 68 H 4.296440 3.288763 5.047821 0
M  V30 END ATOM
M  V30 BEGIN BOND
M  V30 1 1 1 2
M  V30 2 1 2 3
M  V30 3 2 3 4
M  V30 4 1 3 5
M  V30 5 2 5 6
M  V30 6 1 6 7
M  V30 7 1 7 8
M  V30 8 1 8 9
M  V30 9 2 9 10
M  V30 10 1 10 11
M  V30 11 2 11 12
M  V30 12 1 12 13
M  V30 13 1 13 14
M  V30 14 2 14 15
M  V30 15 1 14 16
M  V30 16 1 16 17
M  V30 17 2 17 18
M  V30 18 1 18 19
M  V30 19 1 19 20
M  V30 20 1 18 21
M  V30 21 1 21 22
M  V30 22 1 22 23
M  V30 23 1 23 24
M  V30 24 1 24 25
M  V30 25 1 24 26
M  V30 26 1 21 27
M  V30 27 1 27 28
M  V30 28 2 28 29
M  V30 29 1 29 30
M  V30 30 2 30 31
M  V30 31 1 31 32
M  V30 32 1 31 33
M  V30 33 2 33 34
M  V30 34 1 12 35
M  V30 35 2 35 36
M  V30 36 2 7 37
M  V30 37 1 37 38
M  V30 38 2 38 39
M  V30 39 1 39 5
M  V30 40 1 36 9
M  V30 41 2 27 16
M  V30 42 1 34 28
M  V30 43 1 1 40
M  V30 44 1 1 41
M  V30 45 1 1 42
M  V30 46 1 2 43
M  V30 47 1 6 44
M  V30 48 1 10 45
M  V30 49 1 11 46
M  V30 50 1 13 47
M  V30 51 1 20 48
M  V30 52 1 20 49
M  V30 53 1 20 50
M  V30 54 1 22 51
M  V30 55 1 22 52
M  V30 56 1 23 53
M  V30 57 1 23 54
M  V30 58 1 25 55
M  V30 59 1 25 56
M  V30 60 1 25 57
M  V30 61 1 26 58
M  V30 62 1 26 59
M  V30 63 1 26 60
M  V30 64 1 29 61
M  V30 65 1 30 62
M  V30 66 1 33 63
M  V30 67 1 34 64
M  V30 68 1 35 65
M  V30 69 1 36 66
M  V30 70 1 37 67
M  V30 71 1 38 68
M  V30 END BOND
M  V30 END CTAB
M  END
>  <Dataset>  (99) 
ChEMBL_Kinases

>  <Ligand_Instance>  (99) 
nan

>  <PDB_ID>  (99) 
nan

>  <Standardized_SMILES>  (99) 
CNC(=O)c1cc(Oc2ccc(NC(=O)c3nc(SC)n(CCN(C)C)c3-c3ccc(F)cc3)cc2)ccn1

>  <Name>  (99) 
nan

>  <Pocket>  (99) 
nan

>  <ATP_Site>  (99) 
nan

>  <Peripheral>  (99) 
nan

>  <Num_H_Atoms_ProtBoundConf>  (99) 
nan

>  <Num_Resolved_Atoms>  (99) 
nan

>  <Num_Not_Resolved_Atoms>  (99) 
nan

$$$$
CHEMBL4087478
     RDKit          3D

  0  0  0  0  0  0  0  0  0  0999 V3000
M  V30 BEGIN CTAB
M  V30 COUNTS 83 86 0 0 0
M  V30 BEGIN ATOM
M  V30 1 C -1.575955 1.222067 4.930729 0
M  V30 2 C -1.808904 2.191470 3.816613 0
M  V30 3 C -0.735541 3.206015 3.713698 0
M  V30 4 O 0.313152 3.399017 4.426997 0
M  V30 5 N -0.707872 4.216684 2.702655 0
M  V30 6 C 0.470400 5.015797 2.910328 0
M  V30 7 C 1.653256 4.577182 2.314441 0
M  V30 8 C 2.865664 5.263042 2.438590 0
M  V30 9 N 4.073690 4.790444 1.852295 0
M  V30 10 C 3.897409 3.548303 1.185699 0
M  V30 11 N 3.644510 2.512519 2.011216 0
M  V30 12 C 3.447297 1.251938 1.588933 0
M  V30 13 C 3.501803 0.974846 0.242095 0
M  V30 14 C 3.289147 -0.390167 -0.214903 0
M  V30 15 O 3.352732 -0.887323 -1.364261 0
M  V30 16 N 2.946837 -1.396361 0.710098 0
M  V30 17 C 2.740784 -2.726843 0.249456 0
M  V30 18 C 1.457772 -3.063955 -0.203829 0
M  V30 19 C 1.038163 -4.303456 -0.688454 0
M  V30 20 N -0.307867 -4.401324 -1.095913 0
M  V30 21 C -1.583861 -4.700884 -0.597217 0
M  V30 22 O -1.828791 -5.018296 0.585837 0
M  V30 23 C -2.659412 -4.618682 -1.567402 0
M  V30 24 C -3.941484 -4.878656 -1.077374 0
M  V30 25 C -5.042860 -4.823002 -1.903527 0
M  V30 26 O -6.356289 -5.060134 -1.531446 0
M  V30 27 C -6.743708 -5.401925 -0.216523 0
M  V30 28 C -4.906092 -4.507844 -3.241053 0
M  V30 29 O -5.975152 -4.429093 -4.156970 0
M  V30 30 C -6.289244 -5.625169 -4.841369 0
M  V30 31 C -3.669623 -4.244169 -3.771261 0
M  V30 32 O -3.405035 -3.912960 -5.117729 0
M  V30 33 C -2.074185 -3.667434 -5.538648 0
M  V30 34 C -2.607932 -4.314265 -2.900848 0
M  V30 35 C 2.023306 -5.277624 -0.707885 0
M  V30 36 C 3.315780 -5.014952 -0.274276 0
M  V30 37 C 3.633111 -3.755615 0.188568 0
M  V30 38 C 5.012212 -3.438556 0.667644 0
M  V30 39 C 3.760743 2.031626 -0.599677 0
M  V30 40 N 3.843164 1.864246 -1.991414 0
M  V30 41 C 4.112409 2.934503 -2.902510 0
M  V30 42 N 3.949689 3.272798 -0.125729 0
M  V30 43 C 2.805164 6.427952 3.206395 0
M  V30 44 C 1.653335 6.887050 3.807097 0
M  V30 45 C 0.470395 6.171933 3.657961 0
M  V30 46 C -0.811080 6.599053 4.283222 0
M  V30 47 H -2.422892 1.080613 5.618737 0
M  V30 48 H -1.261363 0.224553 4.499319 0
M  V30 49 H -0.675830 1.569080 5.495013 0
M  V30 50 H -2.768043 2.739628 3.961940 0
M  V30 51 H -1.906202 1.708481 2.810614 0
M  V30 52 H -1.489078 4.259302 1.977634 0
M  V30 53 H 1.607738 3.678713 1.742307 0
M  V30 54 H 4.909879 5.396748 1.982298 0
M  V30 55 H 3.257708 0.536937 2.373608 0
M  V30 56 H 2.818604 -1.289287 1.737272 0
M  V30 57 H 0.710210 -2.250576 -0.166794 0
M  V30 58 H -0.059983 -4.135990 -2.080007 0
M  V30 59 H -4.113637 -5.127930 -0.042486 0
M  V30 60 H -7.840033 -5.611091 -0.254835 0
M  V30 61 H -6.476227 -4.576530 0.460763 0
M  V30 62 H -6.269401 -6.353551 0.141765 0
M  V30 63 H -5.386309 -6.109372 -5.273667 0
M  V30 64 H -6.932860 -5.385965 -5.713628 0
M  V30 65 H -6.804811 -6.375284 -4.223683 0
M  V30 66 H -1.632667 -2.754690 -5.073820 0
M  V30 67 H -1.414857 -4.533422 -5.335349 0
M  V30 68 H -2.073808 -3.502269 -6.631141 0
M  V30 69 H -1.626616 -4.112586 -3.294507 0
M  V30 70 H 1.684196 -6.244951 -1.088592 0
M  V30 71 H 4.049906 -5.798951 -0.307170 0
M  V30 72 H 5.253872 -4.243516 1.421524 0
M  V30 73 H 5.043380 -2.502593 1.263746 0
M  V30 74 H 5.782423 -3.523824 -0.106334 0
M  V30 75 H 3.741273 1.024745 -2.577009 0
M  V30 76 H 4.133344 3.871218 -2.297583 0
M  V30 77 H 5.077606 2.768566 -3.438861 0
M  V30 78 H 3.341492 3.024245 -3.678865 0
M  V30 79 H 3.725854 7.008883 3.336777 0
M  V30 80 H 1.620475 7.793881 4.399812 0
M  V30 81 H -1.695020 6.434294 3.659520 0
M  V30 82 H -0.733095 7.694959 4.463262 0
M  V30 83 H -0.939807 6.099066 5.287474 0
M  V30 END ATOM
M  V30 BEGIN BOND
M  V30 1 1 1 2
M  V30 2 1 2 3
M  V30 3 2 3 4
M  V30 4 1 3 5
M  V30 5 1 5 6
M  V30 6 2 6 7
M  V30 7 1 7 8
M  V30 8 1 8 9
M  V30 9 1 9 10
M  V30 10 2 10 11
M  V30 11 1 11 12
M  V30 12 2 12 13
M  V30 13 1 13 14
M  V30 14 2 14 15
M  V30 15 1 14 16
M  V30 16 1 16 17
M  V30 17 2 17 18
M  V30 18 1 18 19
M  V30 19 1 19 20
M  V30 20 1 20 21
M  V30 21 2 21 22
M  V30 22 1 21 23
M  V30 23 2 23 24
M  V30 24 1 24 25
M  V30 25 1 25 26
M  V30 26 1 26 27
M  V30 27 2 25 28
M  V30 28 1 28 29
M  V30 29 1 29 30
M  V30 30 1 28 31
M  V30 31 1 31 32
M  V30 32 1 32 33
M  V30 33 2 31 34
M  V30 34 2 19 35
M  V30 35 1 35 36
M  V30 36 2 36 37
M  V30 37 1 37 38
M  V30 38 1 13 39
M  V30 39 1 39 40
M  V30 40 1 40 41
M  V30 41 2 39 42
M  V30 42 2 8 43
M  V30 43 1 43 44
M  V30 44 2 44 45
M  V30 45 1 45 46
M  V30 46 1 45 6
M  V30 47 1 42 10
M  V30 48 1 37 17
M  V30 49 1 34 23
M  V30 50 1 1 47
M  V30 51 1 1 48
M  V30 52 1 1 49
M  V30 53 1 2 50
M  V30 54 1 2 51
M  V30 55 1 5 52
M  V30 56 1 7 53
M  V30 57 1 9 54
M  V30 58 1 12 55
M  V30 59 1 16 56
M  V30 60 1 18 57
M  V30 61 1 20 58
M  V30 62 1 24 59
M  V30 63 1 27 60
M  V30 64 1 27 61
M  V30 65 1 27 62
M  V30 66 1 30 63
M  V30 67 1 30 64
M  V30 68 1 30 65
M  V30 69 1 33 66
M  V30 70 1 33 67
M  V30 71 1 33 68
M  V30 72 1 34 69
M  V30 73 1 35 70
M  V30 74 1 36 71
M  V30 75 1 38 72
M  V30 76 1 38 73
M  V30 77 1 38 74
M  V30 78 1 40 75
M  V30 79 1 41 76
M  V30 80 1 41 77
M  V30 81 1 41 78
M  V30 82 1 43 79
M  V30 83 1 44 80
M  V30 84 1 46 81
M  V30 85 1 46 82
M  V30 86 1 46 83
M  V30 END BOND
M  V30 END CTAB
M  END
>  <Dataset>  (100) 
ChEMBL_Kinases

>  <Ligand_Instance>  (100) 
nan

>  <PDB_ID>  (100) 
nan

>  <Standardized_SMILES>  (100) 
CCC(=O)Nc1cc(Nc2ncc(C(=O)Nc3cc(NC(=O)c4cc(OC)c(OC)c(OC)c4)ccc3C)c(NC)n2)ccc1C

>  <Name>  (100) 
nan

>  <Pocket>  (100) 
nan

>  <ATP_Site>  (100) 
nan

>  <Peripheral>  (100) 
nan

>  <Num_H_Atoms_ProtBoundConf>  (100) 
nan

>  <Num_Resolved_Atoms>  (100) 
nan

>  <Num_Not_Resolved_Atoms>  (100) 
nan

$$$$
CHEMBL4847466
     RDKit          3D

  0  0  0  0  0  0  0  0  0  0999 V3000
M  V30 BEGIN CTAB
M  V30 COUNTS 54 57 0 0 0
M  V30 BEGIN ATOM
M  V30 1 C 6.114543 -0.403342 -1.748736 0
M  V30 2 C 5.749086 -1.561749 -0.861191 0
M  V30 3 N 5.861505 -1.147253 0.518015 0
M  V30 4 N 6.964318 -1.239783 1.205855 0
M  V30 5 C 6.786966 -0.780779 2.455901 0
M  V30 6 C 5.467745 -0.393580 2.480438 0
M  V30 7 C 4.876523 -0.630664 1.233519 0
M  V30 8 C 3.479456 -0.324965 0.971587 0
M  V30 9 C 2.925475 0.320121 -0.108744 0
M  V30 10 C 1.572251 0.536530 -0.225249 0
M  V30 11 C 0.674731 0.107409 0.760367 0
M  V30 12 C -0.709892 0.427430 0.458179 0
M  V30 13 O -1.094431 1.039342 -0.596114 0
M  V30 14 N -1.847390 0.128197 1.252840 0
M  V30 15 C -3.198726 0.451161 0.938247 0 CFG=2
M  V30 16 C -3.862511 1.306648 2.001676 0
M  V30 17 N -5.093432 1.814969 1.431195 0
M  V30 18 C -5.992752 0.765780 1.031196 0
M  V30 19 C -5.350094 -0.231013 0.094547 0
M  V30 20 C -4.104037 -0.777662 0.803404 0 CFG=1
M  V30 21 C -3.485111 -1.862557 0.035091 0
M  V30 22 C -2.960622 -1.805180 -1.234977 0
M  V30 23 C -2.399050 -2.894231 -1.865881 0
M  V30 24 C -2.358096 -4.110191 -1.191765 0
M  V30 25 F -1.814354 -5.239284 -1.755399 0
M  V30 26 C -2.864215 -4.242032 0.082273 0
M  V30 27 F -2.839688 -5.408525 0.763682 0
M  V30 28 C -3.419392 -3.107581 0.669370 0
M  V30 29 C 1.241518 -0.536182 1.835483 0
M  V30 30 F 0.349354 -0.936110 2.765959 0
M  V30 31 C 2.593666 -0.753465 1.953716 0
M  V30 32 H 5.487045 -0.381795 -2.672159 0
M  V30 33 H 5.972932 0.571811 -1.249740 0
M  V30 34 H 7.206269 -0.431407 -2.022643 0
M  V30 35 H 6.476953 -2.383704 -1.074999 0
M  V30 36 H 4.704243 -1.871279 -1.087837 0
M  V30 37 H 7.462654 -0.698604 3.302660 0
M  V30 38 H 4.968704 0.036293 3.357941 0
M  V30 39 H 3.602991 0.647420 -0.853439 0
M  V30 40 H 1.256069 1.061848 -1.133672 0
M  V30 41 H -1.714012 -0.370569 2.150020 0
M  V30 42 H -3.225029 0.979177 -0.035413 0
M  V30 43 H -4.062528 0.691941 2.888170 0
M  V30 44 H -3.253365 2.178970 2.292907 0
M  V30 45 H -5.571181 2.366951 2.174788 0
M  V30 46 H -6.823640 1.244823 0.471565 0
M  V30 47 H -6.447132 0.231937 1.884407 0
M  V30 48 H -4.957635 0.345511 -0.762039 0
M  V30 49 H -6.074617 -1.001834 -0.160784 0
M  V30 50 H -4.453460 -1.077035 1.817308 0
M  V30 51 H -3.016742 -0.844516 -1.711663 0
M  V30 52 H -1.996172 -2.818892 -2.861267 0
M  V30 53 H -3.815678 -3.237298 1.683719 0
M  V30 54 H 2.900950 -1.274659 2.856387 0
M  V30 END ATOM
M  V30 BEGIN BOND
M  V30 1 1 1 2
M  V30 2 1 2 3
M  V30 3 1 3 4
M  V30 4 2 4 5
M  V30 5 1 5 6
M  V30 6 2 6 7
M  V30 7 1 7 8
M  V30 8 2 8 9
M  V30 9 1 9 10
M  V30 10 2 10 11
M  V30 11 1 11 12
M  V30 12 2 12 13
M  V30 13 1 12 14
M  V30 14 1 14 15
M  V30 15 1 15 16
M  V30 16 1 16 17
M  V30 17 1 17 18
M  V30 18 1 18 19
M  V30 19 1 19 20
M  V30 20 1 20 21
M  V30 21 2 21 22
M  V30 22 1 22 23
M  V30 23 2 23 24
M  V30 24 1 24 25
M  V30 25 1 24 26
M  V30 26 1 26 27
M  V30 27 2 26 28
M  V30 28 1 11 29
M  V30 29 1 29 30
M  V30 30 2 29 31
M  V30 31 1 7 3
M  V30 32 1 31 8
M  V30 33 1 20 15
M  V30 34 1 28 21
M  V30 35 1 1 32
M  V30 36 1 1 33
M  V30 37 1 1 34
M  V30 38 1 2 35
M  V30 39 1 2 36
M  V30 40 1 5 37
M  V30 41 1 6 38
M  V30 42 1 9 39
M  V30 43 1 10 40
M  V30 44 1 14 41
M  V30 45 1 15 42 CFG=3
M  V30 46 1 16 43
M  V30 47 1 16 44
M  V30 48 1 17 45
M  V30 49 1 18 46
M  V30 50 1 18 47
M  V30 51 1 19 48
M  V30 52 1 19 49
M  V30 53 1 20 50 CFG=1
M  V30 54 1 22 51
M  V30 55 1 23 52
M  V30 56 1 28 53
M  V30 57 1 31 54
M  V30 END BOND
M  V30 END CTAB
M  END
>  <Dataset>  (101) 
ChEMBL_Kinases

>  <Ligand_Instance>  (101) 
nan

>  <PDB_ID>  (101) 
nan

>  <Standardized_SMILES>  (101) 
CCn1nccc1-c1ccc(C(=O)N[C@@H]2CNCC[C@H]2c2ccc(F)c(F)c2)c(F)c1

>  <Name>  (101) 
nan

>  <Pocket>  (101) 
nan

>  <ATP_Site>  (101) 
nan

>  <Peripheral>  (101) 
nan

>  <Num_H_Atoms_ProtBoundConf>  (101) 
nan

>  <Num_Resolved_Atoms>  (101) 
nan

>  <Num_Not_Resolved_Atoms>  (101) 
nan

$$$$
CHEMBL4847468
     RDKit          3D

  0  0  0  0  0  0  0  0  0  0999 V3000
M  V30 BEGIN CTAB
M  V30 COUNTS 68 73 0 0 0
M  V30 BEGIN ATOM
M  V30 1 O 1.902797 -4.336672 4.458197 0
M  V30 2 C 1.837047 -3.425744 3.561385 0
M  V30 3 C 2.239350 -4.008854 2.288227 0
M  V30 4 N 2.221437 -3.131052 1.152520 0
M  V30 5 C 3.380668 -2.343566 0.773880 0
M  V30 6 C 2.892795 -1.630226 -0.435425 0
M  V30 7 C 3.594052 -0.731719 -1.231331 0
M  V30 8 C 3.029605 -0.126585 -2.335335 0
M  V30 9 C 1.724814 -0.398088 -2.693781 0
M  V30 10 C 0.988144 0.158565 -3.829163 0
M  V30 11 N -0.271001 0.610819 -3.746921 0
M  V30 12 C -0.956806 1.125608 -4.782508 0
M  V30 13 N -2.287223 1.583770 -4.636205 0
M  V30 14 C -2.994019 1.523195 -3.389891 0
M  V30 15 C -2.220745 2.317209 -2.364211 0
M  V30 16 C -2.066215 1.490217 -1.132686 0
M  V30 17 O -3.346630 1.129090 -0.694275 0
M  V30 18 C -3.768007 0.076260 -1.502724 0
M  V30 19 C -3.134426 0.111480 -2.866972 0
M  V30 20 N -0.315986 1.174156 -5.945490 0
M  V30 21 C 0.946448 0.744633 -6.124551 0
M  V30 22 C 1.629706 0.221179 -5.050951 0
M  V30 23 Cl 3.269440 -0.325231 -5.336007 0
M  V30 24 C 1.031792 -1.303925 -1.883677 0
M  V30 25 C 1.588307 -1.906954 -0.786702 0
M  V30 26 C 1.158656 -2.864599 0.227223 0
M  V30 27 O 0.010115 -3.384702 0.279905 0
M  V30 28 N 1.402052 -2.283767 4.247851 0
M  V30 29 C 1.193003 -2.519045 5.661938 0
M  V30 30 C -0.297728 -2.741713 5.916477 0
M  V30 31 C -1.009585 -1.439066 6.090215 0
M  V30 32 C -1.173962 -0.702371 4.824319 0
M  V30 33 C -2.440861 -0.157511 4.735746 0
M  V30 34 C -2.785590 0.582686 3.602605 0
M  V30 35 C -1.856163 0.742606 2.619478 0
M  V30 36 C -0.596716 0.187682 2.732368 0
M  V30 37 C -0.214971 -0.558918 3.850016 0
M  V30 38 C 1.178184 -0.990480 3.636360 0
M  V30 39 H 3.229356 -4.499521 2.400961 0
M  V30 40 H 1.520056 -4.846458 2.052257 0
M  V30 41 H 4.191862 -3.014145 0.453715 0
M  V30 42 H 3.688712 -1.641467 1.574241 0
M  V30 43 H 4.622988 -0.453145 -1.033686 0
M  V30 44 H 3.550333 0.580027 -2.976048 0
M  V30 45 H -2.768023 1.984225 -5.487512 0
M  V30 46 H -4.041365 1.925814 -3.524040 0
M  V30 47 H -1.262328 2.700063 -2.766832 0
M  V30 48 H -2.870190 3.194831 -2.087375 0
M  V30 49 H -1.523183 0.552301 -1.251876 0
M  V30 50 H -1.501867 2.085196 -0.385886 0
M  V30 51 H -4.864423 0.150295 -1.621416 0
M  V30 52 H -3.428059 -0.850333 -0.997633 0
M  V30 53 H -3.862044 -0.381682 -3.568265 0
M  V30 54 H -2.215864 -0.495087 -2.959572 0
M  V30 55 H 1.333771 0.845540 -7.117179 0
M  V30 56 H 0.004469 -1.553811 -2.118383 0
M  V30 57 H 1.441863 -1.610190 6.267356 0
M  V30 58 H 1.768877 -3.355124 6.077737 0
M  V30 59 H -0.424083 -3.357566 6.816045 0
M  V30 60 H -0.655783 -3.317720 5.056426 0
M  V30 61 H -2.010344 -1.654885 6.516944 0
M  V30 62 H -0.434219 -0.833662 6.828033 0
M  V30 63 H -3.170546 -0.291585 5.523018 0
M  V30 64 H -3.795590 0.990016 3.582136 0
M  V30 65 H -2.180498 1.315787 1.786090 0
M  V30 66 H 0.071719 0.375423 1.889602 0
M  V30 67 H 1.818671 -0.214349 4.149321 0
M  V30 68 H 1.466731 -0.978015 2.566685 0
M  V30 END ATOM
M  V30 BEGIN BOND
M  V30 1 2 1 2
M  V30 2 1 2 3
M  V30 3 1 3 4
M  V30 4 1 4 5
M  V30 5 1 5 6
M  V30 6 2 6 7
M  V30 7 1 7 8
M  V30 8 2 8 9
M  V30 9 1 9 10
M  V30 10 2 10 11
M  V30 11 1 11 12
M  V30 12 1 12 13
M  V30 13 1 13 14
M  V30 14 1 14 15
M  V30 15 1 15 16
M  V30 16 1 16 17
M  V30 17 1 17 18
M  V30 18 1 18 19
M  V30 19 2 12 20
M  V30 20 1 20 21
M  V30 21 2 21 22
M  V30 22 1 22 23
M  V30 23 1 9 24
M  V30 24 2 24 25
M  V30 25 1 25 26
M  V30 26 2 26 27
M  V30 27 1 2 28
M  V30 28 1 28 29
M  V30 29 1 29 30
M  V30 30 1 30 31
M  V30 31 1 31 32
M  V30 32 2 32 33
M  V30 33 1 33 34
M  V30 34 2 34 35
M  V30 35 1 35 36
M  V30 36 2 36 37
M  V30 37 1 37 38
M  V30 38 1 26 4
M  V30 39 1 38 28
M  V30 40 1 25 6
M  V30 41 1 37 32
M  V30 42 1 22 10
M  V30 43 1 19 14
M  V30 44 1 3 39
M  V30 45 1 3 40
M  V30 46 1 5 41
M  V30 47 1 5 42
M  V30 48 1 7 43
M  V30 49 1 8 44
M  V30 50 1 13 45
M  V30 51 1 14 46
M  V30 52 1 15 47
M  V30 53 1 15 48
M  V30 54 1 16 49
M  V30 55 1 16 50
M  V30 56 1 18 51
M  V30 57 1 18 52
M  V30 58 1 19 53
M  V30 59 1 19 54
M  V30 60 1 21 55
M  V30 61 1 24 56
M  V30 62 1 29 57
M  V30 63 1 29 58
M  V30 64 1 30 59
M  V30 65 1 30 60
M  V30 66 1 31 61
M  V30 67 1 31 62
M  V30 68 1 33 63
M  V30 69 1 34 64
M  V30 70 1 35 65
M  V30 71 1 36 66
M  V30 72 1 38 67
M  V30 73 1 38 68
M  V30 END BOND
M  V30 END CTAB
M  END
>  <Dataset>  (102) 
ChEMBL_Kinases

>  <Ligand_Instance>  (102) 
nan

>  <PDB_ID>  (102) 
nan

>  <Standardized_SMILES>  (102) 
O=C(CN1Cc2ccc(-c3nc(NC4CCOCC4)ncc3Cl)cc2C1=O)N1CCCc2ccccc2C1

>  <Name>  (102) 
nan

>  <Pocket>  (102) 
nan

>  <ATP_Site>  (102) 
nan

>  <Peripheral>  (102) 
nan

>  <Num_H_Atoms_ProtBoundConf>  (102) 
nan

>  <Num_Resolved_Atoms>  (102) 
nan

>  <Num_Not_Resolved_Atoms>  (102) 
nan

$$$$
CHEMBL4847469
     RDKit          3D

  0  0  0  0  0  0  0  0  0  0999 V3000
M  V30 BEGIN CTAB
M  V30 COUNTS 54 57 0 0 0
M  V30 BEGIN ATOM
M  V30 1 C -4.274033 -2.062360 -2.176634 0
M  V30 2 C -4.463256 -0.698636 -2.758049 0
M  V30 3 C -4.197511 -0.742436 -4.232870 0
M  V30 4 C -3.703992 0.391355 -2.021388 0
M  V30 5 O -4.145113 0.454974 -0.676518 0
M  V30 6 C -3.391164 0.175744 0.440707 0
M  V30 7 O -3.985248 0.159845 1.568328 0
M  V30 8 N -2.001597 -0.081993 0.313341 0
M  V30 9 C -1.233372 -0.367163 1.498868 0
M  V30 10 C -0.762061 -1.803587 1.334103 0
M  V30 11 C -0.195288 -2.334628 2.639374 0
M  V30 12 C 0.501929 -1.201591 3.387340 0
M  V30 13 C 1.077659 -0.280758 2.302456 0
M  V30 14 C -0.074975 0.493967 1.739833 0
M  V30 15 C -1.453840 -0.039595 -0.996456 0
M  V30 16 N -0.129402 -0.220348 -1.074885 0
M  V30 17 C 0.539403 -0.146684 -2.239805 0
M  V30 18 N 1.945061 -0.352261 -2.233004 0
M  V30 19 C 2.827455 0.747735 -2.052737 0
M  V30 20 C 4.197019 0.562108 -2.037657 0
M  V30 21 C 5.034958 1.643960 -1.860938 0
M  V30 22 F 6.385783 1.565092 -1.831423 0
M  V30 23 C 4.512928 2.910347 -1.699129 0
M  V30 24 O 5.226674 4.088827 -1.512518 0
M  V30 25 C 3.136977 3.124129 -1.710473 0
M  V30 26 F 2.517178 4.314552 -1.562430 0
M  V30 27 C 2.302440 2.028678 -1.889021 0
M  V30 28 N -0.191145 0.124096 -3.361022 0
M  V30 29 C -1.535884 0.302320 -3.251183 0
M  V30 30 C -2.237487 0.230419 -2.077719 0
M  V30 31 H -3.205452 -2.261236 -1.935893 0
M  V30 32 H -4.588344 -2.804362 -2.936658 0
M  V30 33 H -4.862707 -2.271512 -1.266811 0
M  V30 34 H -5.545384 -0.413092 -2.640534 0
M  V30 35 H -4.235030 0.229297 -4.745145 0
M  V30 36 H -3.334554 -1.370232 -4.530075 0
M  V30 37 H -5.084440 -1.309482 -4.672913 0
M  V30 38 H -3.963524 1.352913 -2.500597 0
M  V30 39 H -1.927512 -0.329799 2.377315 0
M  V30 40 H 0.027065 -1.920320 0.574342 0
M  V30 41 H -1.601724 -2.471875 1.078698 0
M  V30 42 H 0.597184 -3.052740 2.368686 0
M  V30 43 H -0.929603 -2.878703 3.255194 0
M  V30 44 H 1.271328 -1.532764 4.080073 0
M  V30 45 H -0.261144 -0.599992 3.920815 0
M  V30 46 H 1.863765 0.376519 2.735642 0
M  V30 47 H 1.516506 -0.947986 1.532231 0
M  V30 48 H -0.392352 1.276078 2.503198 0
M  V30 49 H 0.224839 1.146095 0.887628 0
M  V30 50 H 2.349187 -1.306599 -2.359419 0
M  V30 51 H 4.634702 -0.416452 -2.161546 0
M  V30 52 H 6.136434 3.985853 -1.081588 0
M  V30 53 H 1.213376 2.137660 -1.906421 0
M  V30 54 H -1.961225 0.515378 -4.204298 0
M  V30 END ATOM
M  V30 BEGIN BOND
M  V30 1 1 1 2
M  V30 2 1 2 3
M  V30 3 1 2 4
M  V30 4 1 4 5
M  V30 5 1 5 6
M  V30 6 2 6 7
M  V30 7 1 6 8
M  V30 8 1 8 9
M  V30 9 1 9 10
M  V30 10 1 10 11
M  V30 11 1 11 12
M  V30 12 1 12 13
M  V30 13 1 13 14
M  V30 14 1 8 15
M  V30 15 2 15 16
M  V30 16 1 16 17
M  V30 17 1 17 18
M  V30 18 1 18 19
M  V30 19 2 19 20
M  V30 20 1 20 21
M  V30 21 1 21 22
M  V30 22 2 21 23
M  V30 23 1 23 24
M  V30 24 1 23 25
M  V30 25 1 25 26
M  V30 26 2 25 27
M  V30 27 2 17 28
M  V30 28 1 28 29
M  V30 29 2 29 30
M  V30 30 1 30 4
M  V30 31 1 14 9
M  V30 32 1 30 15
M  V30 33 1 27 19
M  V30 34 1 1 31
M  V30 35 1 1 32
M  V30 36 1 1 33
M  V30 37 1 2 34
M  V30 38 1 3 35
M  V30 39 1 3 36
M  V30 40 1 3 37
M  V30 41 1 4 38
M  V30 42 1 9 39
M  V30 43 1 10 40
M  V30 44 1 10 41
M  V30 45 1 11 42
M  V30 46 1 11 43
M  V30 47 1 12 44
M  V30 48 1 12 45
M  V30 49 1 13 46
M  V30 50 1 13 47
M  V30 51 1 14 48
M  V30 52 1 14 49
M  V30 53 1 18 50
M  V30 54 1 20 51
M  V30 55 1 24 52
M  V30 56 1 27 53
M  V30 57 1 29 54
M  V30 END BOND
M  V30 END CTAB
M  END
>  <Dataset>  (103) 
ChEMBL_Kinases

>  <Ligand_Instance>  (103) 
nan

>  <PDB_ID>  (103) 
nan

>  <Standardized_SMILES>  (103) 
CC(C)C1OC(=O)N(C2CCCCC2)c2nc(Nc3cc(F)c(O)c(F)c3)ncc21

>  <Name>  (103) 
nan

>  <Pocket>  (103) 
nan

>  <ATP_Site>  (103) 
nan

>  <Peripheral>  (103) 
nan

>  <Num_H_Atoms_ProtBoundConf>  (103) 
nan

>  <Num_Resolved_Atoms>  (103) 
nan

>  <Num_Not_Resolved_Atoms>  (103) 
nan

$$$$
CHEMBL4847483
     RDKit          3D

  0  0  0  0  0  0  0  0  0  0999 V3000
M  V30 BEGIN CTAB
M  V30 COUNTS 57 62 0 0 0
M  V30 BEGIN ATOM
M  V30 1 C 1.624865 -4.698516 3.821189 0
M  V30 2 C 2.335038 -4.588216 2.457182 0
M  V30 3 C 1.746097 -5.618863 1.582424 0
M  V30 4 N 2.330374 -3.242031 1.983950 0
M  V30 5 C 2.939600 -2.370396 2.849740 0
M  V30 6 O 3.526551 -2.425792 3.971624 0
M  V30 7 C 2.825608 -1.124139 2.235073 0
M  V30 8 C 3.222345 0.173703 2.585891 0
M  V30 9 N 2.956355 1.213240 1.770037 0
M  V30 10 C 2.308252 1.057100 0.598662 0
M  V30 11 N 2.123916 2.278027 -0.092642 0
M  V30 12 C 0.879357 2.938834 -0.296993 0
M  V30 13 C 0.747741 4.217812 -0.795460 0
M  V30 14 C -0.505876 4.789125 -0.990968 0
M  V30 15 C -1.646687 4.090607 -0.691100 0
M  V30 16 C -1.512728 2.794502 -0.186232 0
M  V30 17 C -0.270167 2.233142 0.006078 0
M  V30 18 C -2.695771 1.948303 0.158137 0
M  V30 19 C -4.001218 2.544650 -0.279973 0
M  V30 20 N -3.888398 3.588195 -1.256734 0
M  V30 21 C -2.992805 4.660889 -0.883902 0
M  V30 22 N 1.904378 -0.195461 0.220665 0
M  V30 23 C 2.168029 -1.253450 1.039227 0
M  V30 24 N 1.896688 -2.563368 0.950150 0
M  V30 25 C 1.193254 -3.236222 -0.121615 0
M  V30 26 C 1.698669 -4.014727 -1.179377 0
M  V30 27 S 0.249950 -4.495677 -2.081287 0
M  V30 28 C -0.898738 -3.557872 -0.882857 0
M  V30 29 C -2.437055 -3.421493 -0.897255 0
M  V30 30 C -2.960628 -3.097336 -2.265776 0
M  V30 31 C -3.207105 -4.434038 -1.615767 0
M  V30 32 N -0.109022 -3.144681 -0.172525 0
M  V30 33 H 2.337617 -4.338988 4.594852 0
M  V30 34 H 1.387975 -5.744496 4.053509 0
M  V30 35 H 0.759472 -4.002293 3.860684 0
M  V30 36 H 3.387361 -4.916091 2.684266 0
M  V30 37 H 2.479072 -6.009172 0.827048 0
M  V30 38 H 0.758309 -5.434799 1.167289 0
M  V30 39 H 1.594527 -6.525432 2.249101 0
M  V30 40 H 3.749716 0.341324 3.526335 0
M  V30 41 H 2.963123 2.753545 -0.495415 0
M  V30 42 H 1.683912 4.728454 -1.015594 0
M  V30 43 H -0.572555 5.794707 -1.384621 0
M  V30 44 H -0.182469 1.211439 0.404890 0
M  V30 45 H -2.761956 1.702063 1.226555 0
M  V30 46 H -2.563250 1.024134 -0.471514 0
M  V30 47 H -4.588428 2.922332 0.594545 0
M  V30 48 H -4.681824 1.767035 -0.739711 0
M  V30 49 H -3.640737 3.145980 -2.172639 0
M  V30 50 H -3.384768 5.050768 0.094580 0
M  V30 51 H -3.059412 5.432096 -1.666293 0
M  V30 52 H 2.776145 -4.134447 -1.199898 0
M  V30 53 H -2.863034 -2.831151 -0.088784 0
M  V30 54 H -2.294515 -3.160910 -3.151784 0
M  V30 55 H -3.806790 -2.374792 -2.380409 0
M  V30 56 H -2.716707 -5.350761 -2.053161 0
M  V30 57 H -4.249635 -4.610150 -1.312305 0
M  V30 END ATOM
M  V30 BEGIN BOND
M  V30 1 1 1 2
M  V30 2 1 2 3
M  V30 3 1 2 4
M  V30 4 1 4 5
M  V30 5 2 5 6
M  V30 6 1 5 7
M  V30 7 2 7 8
M  V30 8 1 8 9
M  V30 9 2 9 10
M  V30 10 1 10 11
M  V30 11 1 11 12
M  V30 12 2 12 13
M  V30 13 1 13 14
M  V30 14 2 14 15
M  V30 15 1 15 16
M  V30 16 2 16 17
M  V30 17 1 16 18
M  V30 18 1 18 19
M  V30 19 1 19 20
M  V30 20 1 20 21
M  V30 21 1 10 22
M  V30 22 2 22 23
M  V30 23 1 23 24
M  V30 24 1 24 25
M  V30 25 2 25 26
M  V30 26 1 26 27
M  V30 27 1 27 28
M  V30 28 1 28 29
M  V30 29 1 29 30
M  V30 30 1 30 31
M  V30 31 2 28 32
M  V30 32 1 24 4
M  V30 33 1 32 25
M  V30 34 1 23 7
M  V30 35 1 31 29
M  V30 36 1 17 12
M  V30 37 1 21 15
M  V30 38 1 1 33
M  V30 39 1 1 34
M  V30 40 1 1 35
M  V30 41 1 2 36
M  V30 42 1 3 37
M  V30 43 1 3 38
M  V30 44 1 3 39
M  V30 45 1 8 40
M  V30 46 1 11 41
M  V30 47 1 13 42
M  V30 48 1 14 43
M  V30 49 1 17 44
M  V30 50 1 18 45
M  V30 51 1 18 46
M  V30 52 1 19 47
M  V30 53 1 19 48
M  V30 54 1 20 49
M  V30 55 1 21 50
M  V30 56 1 21 51
M  V30 57 1 26 52
M  V30 58 1 29 53
M  V30 59 1 30 54
M  V30 60 1 30 55
M  V30 61 1 31 56
M  V30 62 1 31 57
M  V30 END BOND
M  V30 END CTAB
M  END
>  <Dataset>  (104) 
ChEMBL_Kinases

>  <Ligand_Instance>  (104) 
nan

>  <PDB_ID>  (104) 
nan

>  <Standardized_SMILES>  (104) 
CC(C)n1c(=O)c2cnc(Nc3ccc4c(c3)CCNC4)nc2n1-c1csc(C2CC2)n1

>  <Name>  (104) 
nan

>  <Pocket>  (104) 
nan

>  <ATP_Site>  (104) 
nan

>  <Peripheral>  (104) 
nan

>  <Num_H_Atoms_ProtBoundConf>  (104) 
nan

>  <Num_Resolved_Atoms>  (104) 
nan

>  <Num_Not_Resolved_Atoms>  (104) 
nan

$$$$
CHEMBL4847507
     RDKit          3D

  0  0  0  0  0  0  0  0  0  0999 V3000
M  V30 BEGIN CTAB
M  V30 COUNTS 21 23 0 0 0
M  V30 BEGIN ATOM
M  V30 1 Br -0.537435 -3.312099 3.315132 0
M  V30 2 C 0.573255 -1.819564 2.888877 0
M  V30 3 C 1.662580 -1.467355 3.666915 0
M  V30 4 N 2.432658 -0.396459 3.332612 0
M  V30 5 C 2.121797 0.326479 2.224609 0
M  V30 6 N 2.720240 1.419658 1.684072 0
M  V30 7 N 2.038029 1.762032 0.591128 0
M  V30 8 C 1.005816 0.924822 0.395558 0
M  V30 9 C 0.031008 0.971893 -0.690405 0
M  V30 10 C -0.415463 -0.089702 -1.436176 0
M  V30 11 C -1.313625 0.070509 -2.409839 0
M  V30 12 S -1.693935 1.823543 -2.435554 0
M  V30 13 C -0.515418 2.250323 -1.011857 0
M  V30 14 C 1.040564 -0.001823 1.429449 0
M  V30 15 C 0.250671 -1.086358 1.757375 0
M  V30 16 H 1.844970 -2.102595 4.544126 0
M  V30 17 H 3.568207 1.860673 2.110227 0
M  V30 18 H -0.043525 -1.086414 -1.246398 0
M  V30 19 H -1.779247 -0.599953 -3.087442 0
M  V30 20 H -0.331447 3.196060 -0.587933 0
M  V30 21 H -0.611859 -1.358506 1.134080 0
M  V30 END ATOM
M  V30 BEGIN BOND
M  V30 1 1 1 2
M  V30 2 2 2 3
M  V30 3 1 3 4
M  V30 4 2 4 5
M  V30 5 1 5 6
M  V30 6 1 6 7
M  V30 7 2 7 8
M  V30 8 1 8 9
M  V30 9 1 9 10
M  V30 10 2 10 11
M  V30 11 1 11 12
M  V30 12 1 12 13
M  V30 13 1 8 14
M  V30 14 2 14 15
M  V30 15 1 15 2
M  V30 16 1 14 5
M  V30 17 2 13 9
M  V30 18 1 3 16
M  V30 19 1 6 17
M  V30 20 1 10 18
M  V30 21 1 11 19
M  V30 22 1 13 20
M  V30 23 1 15 21
M  V30 END BOND
M  V30 END CTAB
M  END
>  <Dataset>  (105) 
ChEMBL_Kinases

>  <Ligand_Instance>  (105) 
nan

>  <PDB_ID>  (105) 
nan

>  <Standardized_SMILES>  (105) 
Brc1cnc2[nH]nc(-c3ccsc3)c2c1

>  <Name>  (105) 
nan

>  <Pocket>  (105) 
nan

>  <ATP_Site>  (105) 
nan

>  <Peripheral>  (105) 
nan

>  <Num_H_Atoms_ProtBoundConf>  (105) 
nan

>  <Num_Resolved_Atoms>  (105) 
nan

>  <Num_Not_Resolved_Atoms>  (105) 
nan

$$$$
CHEMBL4847017
     RDKit          3D

  0  0  0  0  0  0  0  0  0  0999 V3000
M  V30 BEGIN CTAB
M  V30 COUNTS 46 49 0 0 0
M  V30 BEGIN ATOM
M  V30 1 C 2.497608 -5.951683 -2.279225 0
M  V30 2 O 2.638301 -4.817860 -1.439811 0
M  V30 3 C 2.750662 -3.553997 -1.992809 0
M  V30 4 C 2.729975 -3.355350 -3.355967 0
M  V30 5 C 2.848962 -2.056430 -3.800276 0
M  V30 6 C 2.984554 -0.974383 -2.960462 0
M  V30 7 C 3.008598 -1.138774 -1.594877 0
M  V30 8 C 3.138981 -0.117102 -0.523325 0
M  V30 9 N 1.901885 0.380785 -0.020008 0
M  V30 10 C 1.036045 1.322019 -0.605612 0
M  V30 11 O 1.595020 1.654615 -1.708637 0
M  V30 12 C -0.216620 1.949782 -0.295619 0
M  V30 13 C -0.700683 2.870957 -1.198467 0
M  V30 14 N -1.887422 3.333637 -0.704703 0
M  V30 15 C -2.175589 2.748622 0.466199 0
M  V30 16 C -3.203145 2.825512 1.380181 0
M  V30 17 C -3.199397 2.061032 2.527310 0
M  V30 18 C -2.122746 1.207656 2.733178 0
M  V30 19 C -2.067290 0.373500 3.931908 0
M  V30 20 C -1.453217 -0.862243 3.913838 0
M  V30 21 N -1.571608 -1.371231 5.157698 0
M  V30 22 N -2.233146 -0.492177 5.927376 0
M  V30 23 C -2.586081 -0.632550 7.349225 0
M  V30 24 C -2.553691 0.594237 5.204289 0
M  V30 25 C -1.128911 1.178869 1.780542 0
M  V30 26 N -1.140169 1.923951 0.670062 0
M  V30 27 C 2.887340 -2.461769 -1.147864 0
M  V30 28 H 2.397033 -6.885304 -1.704128 0
M  V30 29 H 3.356583 -6.069886 -2.955462 0
M  V30 30 H 1.613497 -5.764116 -2.941962 0
M  V30 31 H 2.625599 -4.180570 -4.033320 0
M  V30 32 H 2.836933 -1.859319 -4.875869 0
M  V30 33 H 3.082092 0.034700 -3.295221 0
M  V30 34 H 3.702840 -0.568416 0.336718 0
M  V30 35 H 3.805429 0.712575 -0.864657 0
M  V30 36 H 1.547972 0.036702 0.893391 0
M  V30 37 H -0.451472 3.341449 -2.157746 0
M  V30 38 H -4.015862 3.514514 1.157884 0
M  V30 39 H -4.021560 2.139188 3.233605 0
M  V30 40 H -0.937204 -1.438597 3.132323 0
M  V30 41 H -2.207788 -1.603738 7.740489 0
M  V30 42 H -2.022995 0.165613 7.877008 0
M  V30 43 H -3.682301 -0.585025 7.503140 0
M  V30 44 H -3.086978 1.496439 5.503600 0
M  V30 45 H -0.329580 0.505514 1.990795 0
M  V30 46 H 2.897842 -2.677818 -0.066834 0
M  V30 END ATOM
M  V30 BEGIN BOND
M  V30 1 1 1 2
M  V30 2 1 2 3
M  V30 3 2 3 4
M  V30 4 1 4 5
M  V30 5 2 5 6
M  V30 6 1 6 7
M  V30 7 1 7 8
M  V30 8 1 8 9
M  V30 9 1 9 10
M  V30 10 2 10 11
M  V30 11 1 10 12
M  V30 12 2 12 13
M  V30 13 1 13 14
M  V30 14 2 14 15
M  V30 15 1 15 16
M  V30 16 2 16 17
M  V30 17 1 17 18
M  V30 18 1 18 19
M  V30 19 1 19 20
M  V30 20 2 20 21
M  V30 21 1 21 22
M  V30 22 1 22 23
M  V30 23 1 22 24
M  V30 24 2 18 25
M  V30 25 1 25 26
M  V30 26 2 7 27
M  V30 27 1 27 3
M  V30 28 1 26 12
M  V30 29 1 26 15
M  V30 30 2 24 19
M  V30 31 1 1 28
M  V30 32 1 1 29
M  V30 33 1 1 30
M  V30 34 1 4 31
M  V30 35 1 5 32
M  V30 36 1 6 33
M  V30 37 1 8 34
M  V30 38 1 8 35
M  V30 39 1 9 36
M  V30 40 1 13 37
M  V30 41 1 16 38
M  V30 42 1 17 39
M  V30 43 1 20 40
M  V30 44 1 23 41
M  V30 45 1 23 42
M  V30 46 1 23 43
M  V30 47 1 24 44
M  V30 48 1 25 45
M  V30 49 1 27 46
M  V30 END BOND
M  V30 END CTAB
M  END
>  <Dataset>  (106) 
ChEMBL_Kinases

>  <Ligand_Instance>  (106) 
nan

>  <PDB_ID>  (106) 
nan

>  <Standardized_SMILES>  (106) 
COc1cccc(CNC(=O)c2cnc3ccc(-c4cnn(C)c4)cn23)c1

>  <Name>  (106) 
nan

>  <Pocket>  (106) 
nan

>  <ATP_Site>  (106) 
nan

>  <Peripheral>  (106) 
nan

>  <Num_H_Atoms_ProtBoundConf>  (106) 
nan

>  <Num_Resolved_Atoms>  (106) 
nan

>  <Num_Not_Resolved_Atoms>  (106) 
nan

$$$$
CHEMBL4847705
     RDKit          3D

  0  0  0  0  0  0  0  0  0  0999 V3000
M  V30 BEGIN CTAB
M  V30 COUNTS 73 78 0 0 0
M  V30 BEGIN ATOM
M  V30 1 C 1.832665 -1.875434 5.475431 0
M  V30 2 C 2.040198 -2.994898 4.755217 0
M  V30 3 C 0.907215 -3.529427 3.968222 0
M  V30 4 N 1.165513 -3.587751 2.543408 0
M  V30 5 C 1.685364 -4.583616 1.802565 0
M  V30 6 O 2.068773 -5.706208 2.208718 0
M  V30 7 C 1.750738 -4.201615 0.472277 0
M  V30 8 C 2.152374 -4.689089 -0.732233 0
M  V30 9 N 2.050385 -3.958749 -1.852661 0
M  V30 10 C 1.554183 -2.716708 -1.874674 0
M  V30 11 N 1.423448 -1.792210 -2.939751 0
M  V30 12 C 0.483616 -0.697764 -2.849727 0
M  V30 13 C 0.662592 0.563904 -3.356320 0
M  V30 14 C -0.378651 1.453023 -3.223014 0
M  V30 15 C -1.556730 1.104522 -2.609263 0
M  V30 16 C -1.776608 -0.149229 -2.089087 0
M  V30 17 N -3.003093 -0.538293 -1.482429 0
M  V30 18 C -3.321948 -1.853043 -0.925025 0
M  V30 19 C -4.365468 -2.444663 -1.850724 0
M  V30 20 N -4.845291 -1.533477 -2.825700 0
M  V30 21 C -4.240822 -1.636079 -4.116106 0
M  V30 22 C -5.147760 -0.219068 -2.392235 0
M  V30 23 C -4.155727 0.331595 -1.354873 0
M  V30 24 C -0.715995 -1.018445 -2.235916 0
M  V30 25 N 1.167158 -2.259890 -0.677676 0
M  V30 26 C 1.238424 -2.925115 0.481157 0
M  V30 27 N 0.886953 -2.563016 1.750430 0
M  V30 28 C 0.356785 -1.240780 2.015556 0
M  V30 29 C -0.899212 -0.770835 2.309741 0
M  V30 30 C -1.021343 0.586334 2.503492 0
M  V30 31 C 0.088848 1.378394 2.395059 0
M  V30 32 C 1.363912 0.926942 2.099338 0
M  V30 33 N 1.404928 -0.384021 1.927031 0
M  V30 34 C 2.336023 2.052239 2.056630 0 CFG=1
M  V30 35 O 2.998247 2.146167 3.259261 0
M  V30 36 C 3.300246 1.927887 0.899985 0
M  V30 37 C 4.129086 0.684452 0.919662 0
M  V30 38 C 1.438279 3.238680 1.812506 0
M  V30 39 C 0.181790 2.866532 2.564688 0
M  V30 40 H 0.788235 -1.718811 5.210493 0
M  V30 41 H 2.647881 -1.438050 6.080433 0
M  V30 42 H 2.924363 -3.616827 4.634381 0
M  V30 43 H 0.730495 -4.577394 4.324579 0
M  V30 44 H -0.001388 -2.906549 4.144558 0
M  V30 45 H 2.556673 -5.687838 -0.744010 0
M  V30 46 H 1.955458 -1.795861 -3.851553 0
M  V30 47 H 1.616627 0.766018 -3.824266 0
M  V30 48 H -0.247497 2.450114 -3.619558 0
M  V30 49 H -2.309000 1.872624 -2.556463 0
M  V30 50 H -2.462296 -2.498590 -0.782014 0
M  V30 51 H -3.768866 -1.675560 0.077256 0
M  V30 52 H -3.889142 -3.303627 -2.362979 0
M  V30 53 H -5.218654 -2.840480 -1.267691 0
M  V30 54 H -3.130671 -1.706605 -4.111589 0
M  V30 55 H -4.596852 -0.810602 -4.734289 0
M  V30 56 H -4.577270 -2.596613 -4.574893 0
M  V30 57 H -5.098997 0.480670 -3.251666 0
M  V30 58 H -6.201699 -0.170179 -2.012733 0
M  V30 59 H -3.927852 1.380526 -1.513061 0
M  V30 60 H -4.598427 0.208763 -0.323216 0
M  V30 61 H -0.861151 -2.020351 -1.837634 0
M  V30 62 H -1.602239 -1.581349 2.339093 0
M  V30 63 H -2.016892 0.904310 2.729006 0
M  V30 64 H 2.778754 2.974205 3.782883 0
M  V30 65 H 3.917633 2.842443 0.841272 0
M  V30 66 H 2.709558 1.924964 -0.056455 0
M  V30 67 H 4.387258 0.334800 1.949149 0
M  V30 68 H 5.118604 0.965630 0.453554 0
M  V30 69 H 3.628661 -0.098891 0.317604 0
M  V30 70 H 1.945483 4.123333 2.227419 0
M  V30 71 H 1.259939 3.388821 0.741961 0
M  V30 72 H -0.680933 3.369079 2.086368 0
M  V30 73 H 0.225848 3.161004 3.614229 0
M  V30 END ATOM
M  V30 BEGIN BOND
M  V30 1 2 1 2
M  V30 2 1 2 3
M  V30 3 1 3 4
M  V30 4 1 4 5
M  V30 5 2 5 6
M  V30 6 1 5 7
M  V30 7 2 7 8
M  V30 8 1 8 9
M  V30 9 2 9 10
M  V30 10 1 10 11
M  V30 11 1 11 12
M  V30 12 2 12 13
M  V30 13 1 13 14
M  V30 14 2 14 15
M  V30 15 1 15 16
M  V30 16 1 16 17
M  V30 17 1 17 18
M  V30 18 1 18 19
M  V30 19 1 19 20
M  V30 20 1 20 21
M  V30 21 1 20 22
M  V30 22 1 22 23
M  V30 23 2 16 24
M  V30 24 1 10 25
M  V30 25 2 25 26
M  V30 26 1 26 27
M  V30 27 1 27 28
M  V30 28 2 28 29
M  V30 29 1 29 30
M  V30 30 2 30 31
M  V30 31 1 31 32
M  V30 32 2 32 33
M  V30 33 1 32 34
M  V30 34 1 34 35 CFG=1
M  V30 35 1 34 36
M  V30 36 1 36 37
M  V30 37 1 34 38
M  V30 38 1 38 39
M  V30 39 1 27 4
M  V30 40 1 33 28
M  V30 41 1 26 7
M  V30 42 1 39 31
M  V30 43 1 24 12
M  V30 44 1 23 17
M  V30 45 1 1 40
M  V30 46 1 1 41
M  V30 47 1 2 42
M  V30 48 1 3 43
M  V30 49 1 3 44
M  V30 50 1 8 45
M  V30 51 1 11 46
M  V30 52 1 13 47
M  V30 53 1 14 48
M  V30 54 1 15 49
M  V30 55 1 18 50
M  V30 56 1 18 51
M  V30 57 1 19 52
M  V30 58 1 19 53
M  V30 59 1 21 54
M  V30 60 1 21 55
M  V30 61 1 21 56
M  V30 62 1 22 57
M  V30 63 1 22 58
M  V30 64 1 23 59
M  V30 65 1 23 60
M  V30 66 1 24 61
M  V30 67 1 29 62
M  V30 68 1 30 63
M  V30 69 1 35 64
M  V30 70 1 36 65
M  V30 71 1 36 66
M  V30 72 1 37 67
M  V30 73 1 37 68
M  V30 74 1 37 69
M  V30 75 1 38 70
M  V30 76 1 38 71
M  V30 77 1 39 72
M  V30 78 1 39 73
M  V30 END BOND
M  V30 END CTAB
M  END
>  <Dataset>  (107) 
ChEMBL_Kinases

>  <Ligand_Instance>  (107) 
nan

>  <PDB_ID>  (107) 
nan

>  <Standardized_SMILES>  (107) 
C=CCn1c(=O)c2cnc(Nc3cccc(N4CCN(C)CC4)c3)nc2n1-c1ccc2c(n1)[C@@](O)(CC)CC2

>  <Name>  (107) 
nan

>  <Pocket>  (107) 
nan

>  <ATP_Site>  (107) 
nan

>  <Peripheral>  (107) 
nan

>  <Num_H_Atoms_ProtBoundConf>  (107) 
nan

>  <Num_Resolved_Atoms>  (107) 
nan

>  <Num_Not_Resolved_Atoms>  (107) 
nan

$$$$
CHEMBL4847762
     RDKit          3D

  0  0  0  0  0  0  0  0  0  0999 V3000
M  V30 BEGIN CTAB
M  V30 COUNTS 51 54 0 0 0
M  V30 BEGIN ATOM
M  V30 1 C 2.029382 -3.547236 3.741536 0
M  V30 2 C 2.913180 -2.429393 3.281910 0
M  V30 3 C 3.211640 -2.690508 1.815028 0
M  V30 4 C 2.343025 -1.037704 3.479617 0
M  V30 5 O 3.287520 -0.072289 3.007098 0
M  V30 6 C 3.055937 0.731450 1.914949 0
M  V30 7 O 4.031192 1.451511 1.514577 0
M  V30 8 N 1.812926 0.792248 1.233514 0
M  V30 9 C 1.682782 1.661539 0.120059 0
M  V30 10 C 1.321308 0.980275 -1.170677 0
M  V30 11 C 1.165844 2.202699 -2.078525 0
M  V30 12 C 0.588963 3.282915 -1.166918 0
M  V30 13 C 0.642146 2.727978 0.242061 0
M  V30 14 C 0.777087 -0.034924 1.727854 0
M  V30 15 N -0.410573 0.086361 1.125917 0
M  V30 16 C -1.465644 -0.594856 1.564072 0
M  V30 17 N -2.706345 -0.464034 0.926990 0
M  V30 18 C -3.265651 -1.217350 -0.141520 0
M  V30 19 C -4.515522 -0.814282 -0.560888 0
M  V30 20 C -5.088140 -1.541487 -1.609760 0
M  V30 21 F -6.316751 -1.215949 -2.088669 0
M  V30 22 C -4.387165 -2.602981 -2.159350 0
M  V30 23 O -4.988583 -3.315905 -3.212961 0
M  V30 24 C -3.124797 -2.970217 -1.698326 0
M  V30 25 F -2.444720 -4.021196 -2.251167 0
M  V30 26 C -2.542292 -2.267680 -0.666360 0
M  V30 27 N -1.271471 -1.402888 2.634976 0
M  V30 28 C -0.084479 -1.524190 3.235125 0
M  V30 29 C 1.035800 -0.840626 2.815683 0
M  V30 30 H 1.706437 -3.477592 4.801148 0
M  V30 31 H 1.240780 -3.806080 3.023460 0
M  V30 32 H 2.702316 -4.468073 3.733240 0
M  V30 33 H 3.854436 -2.494145 3.843016 0
M  V30 34 H 4.148671 -3.238817 1.702195 0
M  V30 35 H 2.401151 -3.309706 1.336802 0
M  V30 36 H 3.231166 -1.737165 1.234399 0
M  V30 37 H 2.216082 -0.841582 4.562349 0
M  V30 38 H 2.647313 2.188104 -0.043279 0
M  V30 39 H 2.102245 0.287106 -1.535235 0
M  V30 40 H 0.313251 0.525029 -1.102519 0
M  V30 41 H 2.206290 2.497304 -2.340346 0
M  V30 42 H 0.530520 2.002052 -2.956279 0
M  V30 43 H 1.222882 4.204958 -1.179558 0
M  V30 44 H -0.441501 3.559956 -1.471187 0
M  V30 45 H -0.373314 2.379428 0.468718 0
M  V30 46 H 0.941325 3.537923 0.965704 0
M  V30 47 H -3.155402 0.320805 1.406226 0
M  V30 48 H -5.035210 0.020547 -0.108550 0
M  V30 49 H -5.821463 -3.877043 -2.985747 0
M  V30 50 H -1.554542 -2.518800 -0.271538 0
M  V30 51 H -0.122328 -2.192199 4.065795 0
M  V30 END ATOM
M  V30 BEGIN BOND
M  V30 1 1 1 2
M  V30 2 1 2 3
M  V30 3 1 2 4
M  V30 4 1 4 5
M  V30 5 1 5 6
M  V30 6 2 6 7
M  V30 7 1 6 8
M  V30 8 1 8 9
M  V30 9 1 9 10
M  V30 10 1 10 11
M  V30 11 1 11 12
M  V30 12 1 12 13
M  V30 13 1 8 14
M  V30 14 2 14 15
M  V30 15 1 15 16
M  V30 16 1 16 17
M  V30 17 1 17 18
M  V30 18 2 18 19
M  V30 19 1 19 20
M  V30 20 1 20 21
M  V30 21 2 20 22
M  V30 22 1 22 23
M  V30 23 1 22 24
M  V30 24 1 24 25
M  V30 25 2 24 26
M  V30 26 2 16 27
M  V30 27 1 27 28
M  V30 28 2 28 29
M  V30 29 1 29 4
M  V30 30 1 13 9
M  V30 31 1 29 14
M  V30 32 1 26 18
M  V30 33 1 1 30
M  V30 34 1 1 31
M  V30 35 1 1 32
M  V30 36 1 2 33
M  V30 37 1 3 34
M  V30 38 1 3 35
M  V30 39 1 3 36
M  V30 40 1 4 37
M  V30 41 1 9 38
M  V30 42 1 10 39
M  V30 43 1 10 40
M  V30 44 1 11 41
M  V30 45 1 11 42
M  V30 46 1 12 43
M  V30 47 1 12 44
M  V30 48 1 13 45
M  V30 49 1 13 46
M  V30 50 1 17 47
M  V30 51 1 19 48
M  V30 52 1 23 49
M  V30 53 1 26 50
M  V30 54 1 28 51
M  V30 END BOND
M  V30 END CTAB
M  END
>  <Dataset>  (108) 
ChEMBL_Kinases

>  <Ligand_Instance>  (108) 
nan

>  <PDB_ID>  (108) 
nan

>  <Standardized_SMILES>  (108) 
CC(C)C1OC(=O)N(C2CCCC2)c2nc(Nc3cc(F)c(O)c(F)c3)ncc21

>  <Name>  (108) 
nan

>  <Pocket>  (108) 
nan

>  <ATP_Site>  (108) 
nan

>  <Peripheral>  (108) 
nan

>  <Num_H_Atoms_ProtBoundConf>  (108) 
nan

>  <Num_Resolved_Atoms>  (108) 
nan

>  <Num_Not_Resolved_Atoms>  (108) 
nan

$$$$
CHEMBL4847775
     RDKit          3D

  0  0  0  0  0  0  0  0  0  0999 V3000
M  V30 BEGIN CTAB
M  V30 COUNTS 47 49 0 0 0
M  V30 BEGIN ATOM
M  V30 1 C 1.086928 -4.364136 -0.367519 0
M  V30 2 N 0.527883 -4.213226 0.957112 0
M  V30 3 C 0.747852 -3.272781 1.991763 0
M  V30 4 N 1.639253 -2.291270 1.780636 0
M  V30 5 C 1.926662 -1.349546 2.682690 0
M  V30 6 N 2.814675 -0.263773 2.646389 0
M  V30 7 C 2.398174 1.000323 2.142729 0
M  V30 8 C 3.232902 2.097771 2.113264 0
M  V30 9 N 2.794906 3.271487 1.624999 0
M  V30 10 C 1.554626 3.441148 1.149961 0
M  V30 11 C 1.191347 4.746759 0.649431 0
M  V30 12 N 0.900590 5.772498 0.246696 0
M  V30 13 C 0.631107 2.388684 1.135664 0
M  V30 14 N -0.683847 2.579924 0.653075 0
M  V30 15 C -1.857288 1.804675 0.463128 0
M  V30 16 C -1.895303 0.860110 -0.669281 0 CFG=2
M  V30 17 C -0.881634 -0.225535 -0.726834 0
M  V30 18 C -1.180418 -0.769675 -2.140004 0
M  V30 19 N -1.723176 0.350311 -2.881186 0
M  V30 20 C -1.587983 1.534397 -2.018051 0
M  V30 21 C 1.130483 1.214226 1.645888 0
M  V30 22 N 1.253095 -1.436669 3.857743 0
M  V30 23 C 0.354496 -2.391935 4.123938 0
M  V30 24 C 0.077063 -3.346639 3.182414 0
M  V30 25 C -0.919044 -4.423211 3.450857 0
M  V30 26 F -1.952980 -4.371791 2.529108 0
M  V30 27 F -0.302396 -5.657372 3.409300 0
M  V30 28 F -1.498637 -4.179190 4.699175 0
M  V30 29 H 0.318014 -4.250215 -1.160644 0
M  V30 30 H 1.865391 -3.605663 -0.584026 0
M  V30 31 H 1.516181 -5.372905 -0.504828 0
M  V30 32 H -0.153647 -4.971675 1.105221 0
M  V30 33 H 3.775525 -0.359960 2.980305 0
M  V30 34 H 4.239300 2.026219 2.479525 0
M  V30 35 H -0.876077 3.580022 0.329801 0
M  V30 36 H -2.797076 2.402783 0.513954 0
M  V30 37 H -1.939157 1.157835 1.403680 0
M  V30 38 H -2.902950 0.383037 -0.807146 0
M  V30 39 H 0.159155 0.194389 -0.847416 0
M  V30 40 H -0.954018 -1.017761 0.012853 0
M  V30 41 H -1.911350 -1.589762 -1.986781 0
M  V30 42 H -0.274188 -1.198645 -2.606083 0
M  V30 43 H -2.750672 0.173682 -2.956638 0
M  V30 44 H -0.522084 1.795251 -2.053069 0
M  V30 45 H -2.297287 2.311875 -2.280197 0
M  V30 46 H 0.492111 0.344877 1.688106 0
M  V30 47 H -0.176421 -2.453220 5.061898 0
M  V30 END ATOM
M  V30 BEGIN BOND
M  V30 1 1 1 2
M  V30 2 1 2 3
M  V30 3 2 3 4
M  V30 4 1 4 5
M  V30 5 1 5 6
M  V30 6 1 6 7
M  V30 7 2 7 8
M  V30 8 1 8 9
M  V30 9 2 9 10
M  V30 10 1 10 11
M  V30 11 3 11 12
M  V30 12 1 10 13
M  V30 13 1 13 14
M  V30 14 1 14 15
M  V30 15 1 15 16
M  V30 16 1 16 17
M  V30 17 1 17 18
M  V30 18 1 18 19
M  V30 19 1 19 20
M  V30 20 2 13 21
M  V30 21 2 5 22
M  V30 22 1 22 23
M  V30 23 2 23 24
M  V30 24 1 24 25
M  V30 25 1 25 26
M  V30 26 1 25 27
M  V30 27 1 25 28
M  V30 28 1 24 3
M  V30 29 1 21 7
M  V30 30 1 20 16
M  V30 31 1 1 29
M  V30 32 1 1 30
M  V30 33 1 1 31
M  V30 34 1 2 32
M  V30 35 1 6 33
M  V30 36 1 8 34
M  V30 37 1 14 35
M  V30 38 1 15 36
M  V30 39 1 15 37
M  V30 40 1 16 38 CFG=3
M  V30 41 1 17 39
M  V30 42 1 17 40
M  V30 43 1 18 41
M  V30 44 1 18 42
M  V30 45 1 19 43
M  V30 46 1 20 44
M  V30 47 1 20 45
M  V30 48 1 21 46
M  V30 49 1 23 47
M  V30 END BOND
M  V30 END CTAB
M  END
>  <Dataset>  (109) 
ChEMBL_Kinases

>  <Ligand_Instance>  (109) 
nan

>  <PDB_ID>  (109) 
nan

>  <Standardized_SMILES>  (109) 
CNc1nc(Nc2cnc(C#N)c(NC[C@@H]3CCNC3)c2)ncc1C(F)(F)F

>  <Name>  (109) 
nan

>  <Pocket>  (109) 
nan

>  <ATP_Site>  (109) 
nan

>  <Peripheral>  (109) 
nan

>  <Num_H_Atoms_ProtBoundConf>  (109) 
nan

>  <Num_Resolved_Atoms>  (109) 
nan

>  <Num_Not_Resolved_Atoms>  (109) 
nan

$$$$
CHEMBL4847776
     RDKit          3D

  0  0  0  0  0  0  0  0  0  0999 V3000
M  V30 BEGIN CTAB
M  V30 COUNTS 34 36 0 0 0
M  V30 BEGIN ATOM
M  V30 1 C -0.012538 -2.261915 4.550390 0
M  V30 2 N -0.529429 -2.742907 3.277680 0
M  V30 3 C -1.855338 -3.378188 3.273829 0
M  V30 4 C 0.027833 -2.735787 1.974393 0
M  V30 5 N 0.588132 -3.828753 1.455262 0
M  V30 6 C 1.095461 -3.719917 0.206211 0
M  V30 7 C 1.094773 -2.575477 -0.602048 0
M  V30 8 C 0.481990 -1.487597 0.046443 0
M  V30 9 C 0.454087 -0.244393 -0.716613 0
M  V30 10 C 0.881551 0.027313 -2.026899 0
M  V30 11 N 0.699867 1.306064 -2.337330 0
M  V30 12 C 1.045812 1.932581 -3.614308 0
M  V30 13 C 0.148035 1.964753 -1.276680 0
M  V30 14 N -0.232181 3.206633 -1.012156 0
M  V30 15 C -0.749022 3.669093 0.107032 0
M  V30 16 C -0.908141 2.702678 1.127654 0
M  V30 17 C -0.530883 1.376334 0.921825 0
M  V30 18 C 0.012958 1.011651 -0.321365 0
M  V30 19 N -0.033137 -1.560481 1.286663 0
M  V30 20 H 1.078718 -2.138625 4.554066 0
M  V30 21 H -0.426444 -1.208453 4.618001 0
M  V30 22 H -0.417922 -2.839590 5.377671 0
M  V30 23 H -2.203254 -3.622694 4.295471 0
M  V30 24 H -2.566884 -2.736484 2.722597 0
M  V30 25 H -1.805470 -4.349197 2.705243 0
M  V30 26 H 1.531759 -4.664063 -0.135120 0
M  V30 27 H 1.520247 -2.598100 -1.577065 0
M  V30 28 H 1.297475 -0.796277 -2.629962 0
M  V30 29 H 0.276375 1.677640 -4.365163 0
M  V30 30 H 1.109246 3.031367 -3.499207 0
M  V30 31 H 1.999798 1.517229 -4.013431 0
M  V30 32 H -1.045519 4.710460 0.276221 0
M  V30 33 H -1.337609 3.083164 2.060183 0
M  V30 34 H -0.691952 0.728454 1.748755 0
M  V30 END ATOM
M  V30 BEGIN BOND
M  V30 1 1 1 2
M  V30 2 1 2 3
M  V30 3 1 2 4
M  V30 4 2 4 5
M  V30 5 1 5 6
M  V30 6 2 6 7
M  V30 7 1 7 8
M  V30 8 1 8 9
M  V30 9 2 9 10
M  V30 10 1 10 11
M  V30 11 1 11 12
M  V30 12 1 11 13
M  V30 13 2 13 14
M  V30 14 1 14 15
M  V30 15 2 15 16
M  V30 16 1 16 17
M  V30 17 2 17 18
M  V30 18 2 8 19
M  V30 19 1 19 4
M  V30 20 1 18 9
M  V30 21 1 18 13
M  V30 22 1 1 20
M  V30 23 1 1 21
M  V30 24 1 1 22
M  V30 25 1 3 23
M  V30 26 1 3 24
M  V30 27 1 3 25
M  V30 28 1 6 26
M  V30 29 1 7 27
M  V30 30 1 10 28
M  V30 31 1 12 29
M  V30 32 1 12 30
M  V30 33 1 12 31
M  V30 34 1 15 32
M  V30 35 1 16 33
M  V30 36 1 17 34
M  V30 END BOND
M  V30 END CTAB
M  END
>  <Dataset>  (110) 
ChEMBL_Kinases

>  <Ligand_Instance>  (110) 
nan

>  <PDB_ID>  (110) 
nan

>  <Standardized_SMILES>  (110) 
CN(C)c1nccc(-c2cn(C)c3ncccc23)n1

>  <Name>  (110) 
nan

>  <Pocket>  (110) 
nan

>  <ATP_Site>  (110) 
nan

>  <Peripheral>  (110) 
nan

>  <Num_H_Atoms_ProtBoundConf>  (110) 
nan

>  <Num_Resolved_Atoms>  (110) 
nan

>  <Num_Not_Resolved_Atoms>  (110) 
nan

$$$$
CHEMBL4087445
     RDKit          3D

  0  0  0  0  0  0  0  0  0  0999 V3000
M  V30 BEGIN CTAB
M  V30 COUNTS 53 58 0 0 0
M  V30 BEGIN ATOM
M  V30 1 Cl 0.147022 -6.614028 1.480856 0
M  V30 2 C 0.805626 -4.998552 1.339004 0
M  V30 3 C 2.178292 -4.888144 1.150578 0
M  V30 4 C 2.672156 -3.610819 1.037756 0
M  V30 5 C 1.946050 -2.416888 1.091421 0
M  V30 6 N 2.419282 -1.175761 0.965236 0
M  V30 7 C 1.605290 -0.113117 1.014921 0
M  V30 8 N 2.074178 1.215885 0.868276 0
M  V30 9 C 2.223509 2.370194 1.710984 0
M  V30 10 C 1.789507 2.350533 3.021069 0
M  V30 11 C 2.009950 3.556419 3.621195 0
M  V30 12 Cl 1.484909 3.694697 5.315196 0
M  V30 13 C 2.568012 4.697826 3.127854 0
M  V30 14 N 2.882511 5.937019 3.482592 0
M  V30 15 N 3.437128 6.591685 2.483732 0
M  V30 16 C 3.517529 5.791449 1.387052 0
M  V30 17 C 2.962623 4.595759 1.810376 0
M  V30 18 C 2.814345 3.439778 1.034397 0
M  V30 19 N 0.270118 -0.356698 1.201745 0
M  V30 20 C -0.225594 -1.602060 1.330951 0
M  V30 21 N -1.614709 -1.488979 1.488521 0
M  V30 22 C -2.948975 -1.077730 1.633266 0
M  V30 23 C -3.608352 -0.658025 0.307593 0
M  V30 24 C -3.628176 -1.763044 -0.662615 0
M  V30 25 C -4.710323 -2.614473 -0.793030 0
M  V30 26 N -4.451669 -3.592567 -1.718209 0
M  V30 27 C -3.187736 -3.385952 -2.205889 0
M  V30 28 C -2.460419 -4.087270 -3.149632 0
M  V30 29 C -1.169486 -3.572787 -3.404782 0
M  V30 30 C -0.732100 -2.473131 -2.745473 0
M  V30 31 C -1.428782 -1.740009 -1.790558 0
M  V30 32 C -2.702525 -2.286346 -1.568205 0
M  V30 33 C 0.619757 -2.679308 1.277730 0
M  V30 34 C 0.002144 -3.886994 1.405706 0
M  V30 35 H 2.835839 -5.733580 1.095636 0
M  V30 36 H 3.759424 -3.502308 0.888979 0
M  V30 37 H 2.338938 1.198290 -0.153398 0
M  V30 38 H 1.343815 1.491876 3.462095 0
M  V30 39 H 2.696960 6.316443 4.439378 0
M  V30 40 H 3.930734 6.042062 0.399098 0
M  V30 41 H 3.137291 3.398200 0.007187 0
M  V30 42 H -1.931231 -2.485862 1.474989 0
M  V30 43 H -3.622930 -1.618208 2.296366 0
M  V30 44 H -2.874397 -0.045507 2.165845 0
M  V30 45 H -4.633504 -0.287314 0.455698 0
M  V30 46 H -3.025228 0.195065 -0.140321 0
M  V30 47 H -5.689719 -2.611459 -0.284901 0
M  V30 48 H -5.068260 -4.379756 -2.029765 0
M  V30 49 H -2.822399 -4.961121 -3.659520 0
M  V30 50 H -0.536286 -4.084517 -4.148815 0
M  V30 51 H 0.266045 -2.152710 -3.007192 0
M  V30 52 H -1.054283 -0.863318 -1.296763 0
M  V30 53 H -1.025839 -4.088820 1.553396 0
M  V30 END ATOM
M  V30 BEGIN BOND
M  V30 1 1 1 2
M  V30 2 2 2 3
M  V30 3 1 3 4
M  V30 4 2 4 5
M  V30 5 1 5 6
M  V30 6 2 6 7
M  V30 7 1 7 8
M  V30 8 1 8 9
M  V30 9 2 9 10
M  V30 10 1 10 11
M  V30 11 1 11 12
M  V30 12 2 11 13
M  V30 13 1 13 14
M  V30 14 1 14 15
M  V30 15 2 15 16
M  V30 16 1 16 17
M  V30 17 2 17 18
M  V30 18 1 7 19
M  V30 19 2 19 20
M  V30 20 1 20 21
M  V30 21 1 21 22
M  V30 22 1 22 23
M  V30 23 1 23 24
M  V30 24 2 24 25
M  V30 25 1 25 26
M  V30 26 1 26 27
M  V30 27 2 27 28
M  V30 28 1 28 29
M  V30 29 2 29 30
M  V30 30 1 30 31
M  V30 31 2 31 32
M  V30 32 1 20 33
M  V30 33 2 33 34
M  V30 34 1 34 2
M  V30 35 1 33 5
M  V30 36 1 18 9
M  V30 37 1 32 24
M  V30 38 1 17 13
M  V30 39 1 32 27
M  V30 40 1 3 35
M  V30 41 1 4 36
M  V30 42 1 8 37
M  V30 43 1 10 38
M  V30 44 1 14 39
M  V30 45 1 16 40
M  V30 46 1 18 41
M  V30 47 1 21 42
M  V30 48 1 22 43
M  V30 49 1 22 44
M  V30 50 1 23 45
M  V30 51 1 23 46
M  V30 52 1 25 47
M  V30 53 1 26 48
M  V30 54 1 28 49
M  V30 55 1 29 50
M  V30 56 1 30 51
M  V30 57 1 31 52
M  V30 58 1 34 53
M  V30 END BOND
M  V30 END CTAB
M  END
>  <Dataset>  (111) 
ChEMBL_Kinases

>  <Ligand_Instance>  (111) 
nan

>  <PDB_ID>  (111) 
nan

>  <Standardized_SMILES>  (111) 
Clc1ccc2nc(Nc3cc(Cl)c4[nH]ncc4c3)nc(NCCc3c[nH]c4ccccc34)c2c1

>  <Name>  (111) 
nan

>  <Pocket>  (111) 
nan

>  <ATP_Site>  (111) 
nan

>  <Peripheral>  (111) 
nan

>  <Num_H_Atoms_ProtBoundConf>  (111) 
nan

>  <Num_Resolved_Atoms>  (111) 
nan

>  <Num_Not_Resolved_Atoms>  (111) 
nan

$$$$
CHEMBL4847826
     RDKit          3D

  0  0  0  0  0  0  0  0  0  0999 V3000
M  V30 BEGIN CTAB
M  V30 COUNTS 52 54 0 0 0
M  V30 BEGIN ATOM
M  V30 1 C 2.487591 -3.932445 1.612193 0
M  V30 2 C 3.039066 -3.477033 2.947138 0 CFG=1
M  V30 3 O 4.132647 -4.209646 3.331383 0
M  V30 4 C 3.364388 -2.015301 2.987883 0
M  V30 5 N 4.433567 -1.586211 2.160372 0
M  V30 6 C 4.883087 -1.565879 0.825654 0
M  V30 7 C 4.161407 -0.778991 -0.042821 0
M  V30 8 C 4.393239 -0.573895 -1.384534 0
M  V30 9 O 3.610367 0.240315 -2.188816 0
M  V30 10 C 2.485683 0.851837 -1.600393 0
M  V30 11 C 1.383900 -0.006189 -1.772693 0
M  V30 12 C 0.167952 0.419936 -1.256437 0
M  V30 13 C -0.062522 1.596041 -0.594291 0
M  V30 14 N -1.267276 2.092325 -0.041647 0
M  V30 15 C -2.533728 1.489079 -0.006784 0
M  V30 16 O -2.676659 0.349173 -0.513738 0
M  V30 17 N -3.702493 2.019809 0.544484 0
M  V30 18 C -4.779450 1.065175 0.374763 0
M  V30 19 C -5.562743 1.035594 -0.759181 0
M  V30 20 C -6.555931 0.065539 -0.772492 0
M  V30 21 C -6.785661 -0.828565 0.248008 0
M  V30 22 C -5.998697 -0.792431 1.378540 0
M  V30 23 C -6.283099 -1.766660 2.451709 0
M  V30 24 F -5.155985 -2.007005 3.231513 0
M  V30 25 F -7.255615 -1.260122 3.273392 0
M  V30 26 F -6.699057 -2.973103 1.912698 0
M  V30 27 C -4.997439 0.171759 1.412109 0
M  V30 28 C 1.056345 2.381262 -0.463415 0
M  V30 29 C 2.294113 2.042667 -0.940560 0
M  V30 30 N 5.486035 -1.264992 -1.837112 0
M  V30 31 C 6.219145 -2.045465 -1.024056 0
M  V30 32 N 5.948347 -2.217884 0.302055 0
M  V30 33 H 1.461939 -3.471831 1.489731 0
M  V30 34 H 2.339985 -5.009532 1.564105 0
M  V30 35 H 3.152848 -3.551640 0.814408 0
M  V30 36 H 2.196879 -3.620033 3.684884 0
M  V30 37 H 3.927144 -4.772276 4.146491 0
M  V30 38 H 2.404832 -1.447412 2.786647 0
M  V30 39 H 3.571980 -1.776521 4.063068 0
M  V30 40 H 5.254206 -1.076200 2.606302 0
M  V30 41 H 3.279919 -0.217758 0.312570 0
M  V30 42 H 1.379802 -0.986636 -2.276284 0
M  V30 43 H -0.699461 -0.239874 -1.386390 0
M  V30 44 H -1.288311 3.019228 0.415680 0
M  V30 45 H -3.651566 2.988053 0.982956 0
M  V30 46 H -5.369503 1.736313 -1.537988 0
M  V30 47 H -7.181785 0.041467 -1.679085 0
M  V30 48 H -7.589294 -1.577876 0.179954 0
M  V30 49 H -4.397446 0.177804 2.311136 0
M  V30 50 H 1.041536 3.353519 0.038836 0
M  V30 51 H 3.216052 2.588775 -0.882888 0
M  V30 52 H 7.084059 -2.572807 -1.445366 0
M  V30 END ATOM
M  V30 BEGIN BOND
M  V30 1 1 1 2
M  V30 2 1 2 3
M  V30 3 1 2 4
M  V30 4 1 4 5
M  V30 5 1 5 6
M  V30 6 2 6 7
M  V30 7 1 7 8
M  V30 8 1 8 9
M  V30 9 1 9 10
M  V30 10 2 10 11
M  V30 11 1 11 12
M  V30 12 2 12 13
M  V30 13 1 13 14
M  V30 14 1 14 15
M  V30 15 2 15 16
M  V30 16 1 15 17
M  V30 17 1 17 18
M  V30 18 2 18 19
M  V30 19 1 19 20
M  V30 20 2 20 21
M  V30 21 1 21 22
M  V30 22 1 22 23
M  V30 23 1 23 24
M  V30 24 1 23 25
M  V30 25 1 23 26
M  V30 26 2 22 27
M  V30 27 1 13 28
M  V30 28 2 28 29
M  V30 29 2 8 30
M  V30 30 1 30 31
M  V30 31 2 31 32
M  V30 32 1 32 6
M  V30 33 1 29 10
M  V30 34 1 27 18
M  V30 35 1 1 33
M  V30 36 1 1 34
M  V30 37 1 1 35
M  V30 38 1 2 36 CFG=1
M  V30 39 1 3 37
M  V30 40 1 4 38
M  V30 41 1 4 39
M  V30 42 1 5 40
M  V30 43 1 7 41
M  V30 44 1 11 42
M  V30 45 1 12 43
M  V30 46 1 14 44
M  V30 47 1 17 45
M  V30 48 1 19 46
M  V30 49 1 20 47
M  V30 50 1 21 48
M  V30 51 1 27 49
M  V30 52 1 28 50
M  V30 53 1 29 51
M  V30 54 1 31 52
M  V30 END BOND
M  V30 END CTAB
M  END
>  <Dataset>  (112) 
ChEMBL_Kinases

>  <Ligand_Instance>  (112) 
nan

>  <PDB_ID>  (112) 
nan

>  <Standardized_SMILES>  (112) 
C[C@@H](O)CNc1cc(Oc2ccc(NC(=O)Nc3cccc(C(F)(F)F)c3)cc2)ncn1

>  <Name>  (112) 
nan

>  <Pocket>  (112) 
nan

>  <ATP_Site>  (112) 
nan

>  <Peripheral>  (112) 
nan

>  <Num_H_Atoms_ProtBoundConf>  (112) 
nan

>  <Num_Resolved_Atoms>  (112) 
nan

>  <Num_Not_Resolved_Atoms>  (112) 
nan

$$$$
CHEMBL4847864
     RDKit          3D

  0  0  0  0  0  0  0  0  0  0999 V3000
M  V30 BEGIN CTAB
M  V30 COUNTS 28 31 0 0 0
M  V30 BEGIN ATOM
M  V30 1 Br -0.965168 -3.381185 5.039281 0
M  V30 2 C 0.354535 -3.270971 3.664603 0
M  V30 3 C 1.448608 -4.142054 3.639363 0
M  V30 4 N 2.417220 -4.125328 2.704693 0
M  V30 5 C 2.386485 -3.231622 1.698923 0
M  V30 6 N 3.132085 -2.915361 0.628160 0
M  V30 7 N 2.605343 -1.901289 -0.048267 0
M  V30 8 C 1.462871 -1.501261 0.568142 0
M  V30 9 C 0.628849 -0.401262 0.082588 0
M  V30 10 C 0.393025 -0.415597 -1.297296 0
M  V30 11 C -0.368666 0.536992 -1.939337 0
M  V30 12 C -0.915132 1.542851 -1.168556 0
M  V30 13 C -1.708592 2.618472 -1.519235 0
M  V30 14 C -1.948025 3.283373 -0.325319 0
M  V30 15 N -1.332924 2.647014 0.700716 0
M  V30 16 C -0.689074 1.568206 0.198528 0
M  V30 17 C 0.071994 0.613820 0.830211 0
M  V30 18 C 1.317017 -2.329585 1.665074 0
M  V30 19 C 0.329502 -2.355325 2.628043 0
M  V30 20 H 1.460174 -4.866735 4.467551 0
M  V30 21 H 4.013598 -3.427762 0.388456 0
M  V30 22 H 0.810821 -1.198565 -1.939823 0
M  V30 23 H -0.523480 0.481700 -3.020500 0
M  V30 24 H -2.080626 2.913541 -2.482845 0
M  V30 25 H -2.542922 4.174014 -0.266622 0
M  V30 26 H -1.328086 2.905869 1.716498 0
M  V30 27 H 0.284171 0.577547 1.883938 0
M  V30 28 H -0.508000 -1.652485 2.605640 0
M  V30 END ATOM
M  V30 BEGIN BOND
M  V30 1 1 1 2
M  V30 2 2 2 3
M  V30 3 1 3 4
M  V30 4 2 4 5
M  V30 5 1 5 6
M  V30 6 1 6 7
M  V30 7 2 7 8
M  V30 8 1 8 9
M  V30 9 2 9 10
M  V30 10 1 10 11
M  V30 11 2 11 12
M  V30 12 1 12 13
M  V30 13 2 13 14
M  V30 14 1 14 15
M  V30 15 1 15 16
M  V30 16 2 16 17
M  V30 17 1 8 18
M  V30 18 2 18 19
M  V30 19 1 19 2
M  V30 20 1 18 5
M  V30 21 1 17 9
M  V30 22 1 16 12
M  V30 23 1 3 20
M  V30 24 1 6 21
M  V30 25 1 10 22
M  V30 26 1 11 23
M  V30 27 1 13 24
M  V30 28 1 14 25
M  V30 29 1 15 26
M  V30 30 1 17 27
M  V30 31 1 19 28
M  V30 END BOND
M  V30 END CTAB
M  END
>  <Dataset>  (113) 
ChEMBL_Kinases

>  <Ligand_Instance>  (113) 
nan

>  <PDB_ID>  (113) 
nan

>  <Standardized_SMILES>  (113) 
Brc1cnc2[nH]nc(-c3ccc4cc[nH]c4c3)c2c1

>  <Name>  (113) 
nan

>  <Pocket>  (113) 
nan

>  <ATP_Site>  (113) 
nan

>  <Peripheral>  (113) 
nan

>  <Num_H_Atoms_ProtBoundConf>  (113) 
nan

>  <Num_Resolved_Atoms>  (113) 
nan

>  <Num_Not_Resolved_Atoms>  (113) 
nan

$$$$
CHEMBL4847875
     RDKit          3D

  0  0  0  0  0  0  0  0  0  0999 V3000
M  V30 BEGIN CTAB
M  V30 COUNTS 56 59 0 0 0
M  V30 BEGIN ATOM
M  V30 1 C 6.285639 -0.558977 1.446031 0
M  V30 2 N 4.878744 -0.668569 1.083732 0
M  V30 3 C 4.279762 -2.008562 1.075874 0
M  V30 4 C 4.013074 0.420703 0.731607 0
M  V30 5 C 2.674868 0.216169 0.394742 0
M  V30 6 C 1.891173 1.297779 0.066246 0
M  V30 7 C 2.427313 2.560958 0.072256 0
M  V30 8 C 1.495920 3.508133 -0.281071 0
M  V30 9 O 0.196065 3.528100 -0.632972 0
M  V30 10 C -0.792982 2.656617 -0.808127 0
M  V30 11 C -1.724654 2.182165 0.126038 0
M  V30 12 C -2.721499 1.271071 -0.158575 0
M  V30 13 C -2.799041 0.796776 -1.465467 0
M  V30 14 N -3.880722 -0.147395 -1.628227 0
M  V30 15 C -3.404740 -1.470136 -1.359528 0
M  V30 16 O -2.189895 -1.510026 -1.052291 0
M  V30 17 N -4.226203 -2.613243 -1.434754 0
M  V30 18 C -3.807449 -3.975712 -1.175025 0
M  V30 19 C -3.654907 -4.271319 0.264498 0
M  V30 20 C -2.468685 -4.103421 0.963785 0
M  V30 21 C -2.356523 -4.386167 2.308288 0
M  V30 22 C -3.422801 -4.848980 3.015392 0
M  V30 23 C -3.260186 -5.140082 4.462832 0
M  V30 24 F -2.538330 -6.302551 4.642838 0
M  V30 25 F -2.590483 -4.130942 5.117989 0
M  V30 26 F -4.519212 -5.272084 5.050563 0
M  V30 27 N -4.604778 -5.028142 2.368495 0
M  V30 28 C -4.695837 -4.747545 1.058167 0
M  V30 29 C -1.915426 1.220544 -2.436118 0
M  V30 30 C -0.938234 2.132056 -2.097688 0
M  V30 31 N 1.985751 4.789488 -0.288700 0
M  V30 32 C 3.280387 5.053854 0.030205 0
M  V30 33 N 4.140892 4.089393 0.366100 0
M  V30 34 C 3.738684 2.817308 0.396526 0
M  V30 35 C 4.508417 1.718170 0.723203 0
M  V30 36 H 6.773879 -1.484495 1.016019 0
M  V30 37 H 6.429299 -0.590499 2.545419 0
M  V30 38 H 6.725183 0.309725 0.947374 0
M  V30 39 H 3.475733 -2.113706 1.828810 0
M  V30 40 H 3.813031 -2.140151 0.069120 0
M  V30 41 H 5.053244 -2.773660 1.202222 0
M  V30 42 H 2.281286 -0.811368 0.401432 0
M  V30 43 H 0.876231 1.047576 -0.178023 0
M  V30 44 H -1.594023 2.604291 1.127805 0
M  V30 45 H -3.374055 0.985122 0.644936 0
M  V30 46 H -4.874737 0.002285 -1.893471 0
M  V30 47 H -5.221316 -2.443670 -1.703075 0
M  V30 48 H -2.790314 -4.130243 -1.626343 0
M  V30 49 H -4.469327 -4.666494 -1.714661 0
M  V30 50 H -1.599340 -3.739092 0.440958 0
M  V30 51 H -1.404568 -4.242661 2.831895 0
M  V30 52 H -5.662645 -4.901110 0.556336 0
M  V30 53 H -2.063501 0.795037 -3.402359 0
M  V30 54 H -0.288535 2.405540 -2.932397 0
M  V30 55 H 3.713581 6.046847 0.038707 0
M  V30 56 H 5.540296 1.959428 0.975281 0
M  V30 END ATOM
M  V30 BEGIN BOND
M  V30 1 1 1 2
M  V30 2 1 2 3
M  V30 3 1 2 4
M  V30 4 2 4 5
M  V30 5 1 5 6
M  V30 6 2 6 7
M  V30 7 1 7 8
M  V30 8 1 8 9
M  V30 9 1 9 10
M  V30 10 2 10 11
M  V30 11 1 11 12
M  V30 12 2 12 13
M  V30 13 1 13 14
M  V30 14 1 14 15
M  V30 15 2 15 16
M  V30 16 1 15 17
M  V30 17 1 17 18
M  V30 18 1 18 19
M  V30 19 2 19 20
M  V30 20 1 20 21
M  V30 21 2 21 22
M  V30 22 1 22 23
M  V30 23 1 23 24
M  V30 24 1 23 25
M  V30 25 1 23 26
M  V30 26 1 22 27
M  V30 27 2 27 28
M  V30 28 1 13 29
M  V30 29 2 29 30
M  V30 30 2 8 31
M  V30 31 1 31 32
M  V30 32 2 32 33
M  V30 33 1 33 34
M  V30 34 2 34 35
M  V30 35 1 35 4
M  V30 36 1 34 7
M  V30 37 1 30 10
M  V30 38 1 28 19
M  V30 39 1 1 36
M  V30 40 1 1 37
M  V30 41 1 1 38
M  V30 42 1 3 39
M  V30 43 1 3 40
M  V30 44 1 3 41
M  V30 45 1 5 42
M  V30 46 1 6 43
M  V30 47 1 11 44
M  V30 48 1 12 45
M  V30 49 1 14 46
M  V30 50 1 17 47
M  V30 51 1 18 48
M  V30 52 1 18 49
M  V30 53 1 20 50
M  V30 54 1 21 51
M  V30 55 1 28 52
M  V30 56 1 29 53
M  V30 57 1 30 54
M  V30 58 1 32 55
M  V30 59 1 35 56
M  V30 END BOND
M  V30 END CTAB
M  END
>  <Dataset>  (114) 
ChEMBL_Kinases

>  <Ligand_Instance>  (114) 
nan

>  <PDB_ID>  (114) 
nan

>  <Standardized_SMILES>  (114) 
CN(C)c1ccc2c(Oc3ccc(NC(=O)NCc4ccc(C(F)(F)F)nc4)cc3)ncnc2c1

>  <Name>  (114) 
nan

>  <Pocket>  (114) 
nan

>  <ATP_Site>  (114) 
nan

>  <Peripheral>  (114) 
nan

>  <Num_H_Atoms_ProtBoundConf>  (114) 
nan

>  <Num_Resolved_Atoms>  (114) 
nan

>  <Num_Not_Resolved_Atoms>  (114) 
nan

$$$$
CHEMBL4087408
     RDKit          3D

  0  0  0  0  0  0  0  0  0  0999 V3000
M  V30 BEGIN CTAB
M  V30 COUNTS 77 82 0 0 0
M  V30 BEGIN ATOM
M  V30 1 O 5.955404 0.712335 5.240798 0
M  V30 2 C 5.402150 0.185040 4.242409 0
M  V30 3 N 5.890698 -1.063663 3.775078 0
M  V30 4 C 6.993532 -1.822425 4.342631 0
M  V30 5 C 7.153509 -3.080909 3.514666 0
M  V30 6 N 5.964815 -3.890517 3.522857 0
M  V30 7 C 5.650779 -4.512284 4.767709 0
M  V30 8 C 4.817342 -5.779515 4.570655 0
M  V30 9 O 3.973826 -5.547427 3.482743 0
M  V30 10 C 4.731046 -5.628208 2.326050 0
M  V30 11 C 6.015052 -4.812098 2.412860 0
M  V30 12 C 4.290768 0.915339 3.644832 0
M  V30 13 C 3.931784 2.125972 4.212266 0
M  V30 14 C 2.864807 2.848999 3.662553 0
M  V30 15 C 2.131205 2.415273 2.561197 0
M  V30 16 C 2.510952 1.205093 2.015583 0
M  V30 17 C 3.559758 0.494111 2.555341 0
M  V30 18 C 1.908419 0.537000 0.866648 0
M  V30 19 O 2.426906 -0.561636 0.497392 0
M  V30 20 C 0.763948 0.983015 0.076819 0
M  V30 21 C 0.175505 -0.049864 -0.616274 0
M  V30 22 C -0.923369 0.221561 -1.404462 0
M  V30 23 C -1.427453 1.514380 -1.497728 0
M  V30 24 N -2.560292 1.776500 -2.313710 0
M  V30 25 C -3.091726 0.725366 -3.110868 0
M  V30 26 C -4.371996 0.370612 -2.838324 0
M  V30 27 C -4.953757 -0.640561 -3.576863 0
M  V30 28 N -6.316044 -1.031670 -3.300039 0
M  V30 29 C -7.137017 -0.205950 -4.145430 0
M  V30 30 O -6.438848 0.574086 -4.841292 0
M  V30 31 C -8.613923 -0.283256 -4.175484 0
M  V30 32 C -9.394458 -1.119911 -3.424629 0
M  V30 33 C -10.769407 -1.073077 -3.567224 0
M  V30 34 C -11.381303 -0.193181 -4.459380 0
M  V30 35 C -10.575277 0.650199 -5.215925 0
M  V30 36 C -9.206301 0.591055 -5.061321 0
M  V30 37 C -4.210616 -1.250726 -4.562900 0
M  V30 38 F -4.766437 -2.253005 -5.305096 0
M  V30 39 C -2.907107 -0.930417 -4.882467 0
M  V30 40 C -2.372789 0.097361 -4.103862 0
M  V30 41 F -1.089568 0.479697 -4.357999 0
M  V30 42 C -0.792607 2.504858 -0.778712 0
M  V30 43 C 0.309309 2.286771 0.024223 0
M  V30 44 C 0.837195 3.494380 0.707235 0
M  V30 45 C 1.057934 3.347008 2.172438 0
M  V30 46 H 5.361009 -1.415921 2.936960 0
M  V30 47 H 7.906382 -1.201381 4.192749 0
M  V30 48 H 6.869557 -2.036568 5.405197 0
M  V30 49 H 8.056446 -3.635889 3.859135 0
M  V30 50 H 7.365752 -2.832337 2.453527 0
M  V30 51 H 6.621760 -4.792158 5.273871 0
M  V30 52 H 5.062310 -3.825820 5.403095 0
M  V30 53 H 5.505913 -6.633720 4.352929 0
M  V30 54 H 4.195869 -6.009656 5.464087 0
M  V30 55 H 4.121981 -5.188537 1.502690 0
M  V30 56 H 4.933531 -6.690777 2.094120 0
M  V30 57 H 6.917379 -5.461739 2.543144 0
M  V30 58 H 6.164803 -4.217696 1.493166 0
M  V30 59 H 4.406248 2.588507 5.066175 0
M  V30 60 H 2.539845 3.804296 4.065112 0
M  V30 61 H 3.808940 -0.445246 2.086069 0
M  V30 62 H 0.616407 -1.020123 -0.497841 0
M  V30 63 H -1.345795 -0.623583 -1.925406 0
M  V30 64 H -2.966744 2.738937 -2.299887 0
M  V30 65 H -4.982629 0.827340 -2.072882 0
M  V30 66 H -6.806808 -1.727103 -2.671685 0
M  V30 67 H -8.860011 -1.771158 -2.756953 0
M  V30 68 H -11.364290 -1.752333 -2.953512 0
M  V30 69 H -12.470571 -0.167625 -4.561713 0
M  V30 70 H -11.057187 1.335765 -5.910525 0
M  V30 71 H -8.641050 1.287308 -5.696741 0
M  V30 72 H -2.348650 -1.427379 -5.663018 0
M  V30 73 H -1.191510 3.500099 -0.857981 0
M  V30 74 H 0.123497 4.346270 0.576491 0
M  V30 75 H 1.823996 3.761722 0.259373 0
M  V30 76 H 0.157321 3.069167 2.741766 0
M  V30 77 H 1.321691 4.378639 2.549170 0
M  V30 END ATOM
M  V30 BEGIN BOND
M  V30 1 2 1 2
M  V30 2 1 2 3
M  V30 3 1 3 4
M  V30 4 1 4 5
M  V30 5 1 5 6
M  V30 6 1 6 7
M  V30 7 1 7 8
M  V30 8 1 8 9
M  V30 9 1 9 10
M  V30 10 1 10 11
M  V30 11 1 2 12
M  V30 12 2 12 13
M  V30 13 1 13 14
M  V30 14 2 14 15
M  V30 15 1 15 16
M  V30 16 2 16 17
M  V30 17 1 16 18
M  V30 18 2 18 19
M  V30 19 1 18 20
M  V30 20 2 20 21
M  V30 21 1 21 22
M  V30 22 2 22 23
M  V30 23 1 23 24
M  V30 24 1 24 25
M  V30 25 2 25 26
M  V30 26 1 26 27
M  V30 27 1 27 28
M  V30 28 1 28 29
M  V30 29 2 29 30
M  V30 30 1 29 31
M  V30 31 2 31 32
M  V30 32 1 32 33
M  V30 33 2 33 34
M  V30 34 1 34 35
M  V30 35 2 35 36
M  V30 36 2 27 37
M  V30 37 1 37 38
M  V30 38 1 37 39
M  V30 39 2 39 40
M  V30 40 1 40 41
M  V30 41 1 23 42
M  V30 42 2 42 43
M  V30 43 1 43 44
M  V30 44 1 44 45
M  V30 45 1 11 6
M  V30 46 1 17 12
M  V30 47 1 43 20
M  V30 48 1 45 15
M  V30 49 1 40 25
M  V30 50 1 36 31
M  V30 51 1 3 46
M  V30 52 1 4 47
M  V30 53 1 4 48
M  V30 54 1 5 49
M  V30 55 1 5 50
M  V30 56 1 7 51
M  V30 57 1 7 52
M  V30 58 1 8 53
M  V30 59 1 8 54
M  V30 60 1 10 55
M  V30 61 1 10 56
M  V30 62 1 11 57
M  V30 63 1 11 58
M  V30 64 1 13 59
M  V30 65 1 14 60
M  V30 66 1 17 61
M  V30 67 1 21 62
M  V30 68 1 22 63
M  V30 69 1 24 64
M  V30 70 1 26 65
M  V30 71 1 28 66
M  V30 72 1 32 67
M  V30 73 1 33 68
M  V30 74 1 34 69
M  V30 75 1 35 70
M  V30 76 1 36 71
M  V30 77 1 39 72
M  V30 78 1 42 73
M  V30 79 1 44 74
M  V30 80 1 44 75
M  V30 81 1 45 76
M  V30 82 1 45 77
M  V30 END BOND
M  V30 END CTAB
M  END
>  <Dataset>  (115) 
ChEMBL_Kinases

>  <Ligand_Instance>  (115) 
nan

>  <PDB_ID>  (115) 
nan

>  <Standardized_SMILES>  (115) 
O=C(NCCN1CCOCC1)c1ccc2c(c1)C(=O)c1ccc(Nc3cc(NC(=O)c4ccccc4)c(F)cc3F)cc1CC2

>  <Name>  (115) 
nan

>  <Pocket>  (115) 
nan

>  <ATP_Site>  (115) 
nan

>  <Peripheral>  (115) 
nan

>  <Num_H_Atoms_ProtBoundConf>  (115) 
nan

>  <Num_Resolved_Atoms>  (115) 
nan

>  <Num_Not_Resolved_Atoms>  (115) 
nan

$$$$
CHEMBL4087402
     RDKit          3D

  0  0  0  0  0  0  0  0  0  0999 V3000
M  V30 BEGIN CTAB
M  V30 COUNTS 51 54 0 0 0
M  V30 BEGIN ATOM
M  V30 1 C 1.750416 -4.819967 -2.281783 0
M  V30 2 O 1.465128 -4.056070 -1.150521 0
M  V30 3 C 2.348924 -3.391199 -0.344860 0
M  V30 4 C 3.691608 -3.398727 -0.568486 0
M  V30 5 C 4.583927 -2.735356 0.234913 0
M  V30 6 F 5.920832 -2.731331 0.030116 0
M  V30 7 C 4.098583 -2.033016 1.312209 0
M  V30 8 C 2.733791 -2.031101 1.531190 0
M  V30 9 C 1.795719 -2.696073 0.732665 0
M  V30 10 C 0.353952 -2.602206 1.084140 0
M  V30 11 C -0.172570 -1.339938 0.479758 0
M  V30 12 N -1.581971 -1.108164 0.729077 0
M  V30 13 C -2.016472 0.198477 1.066691 0
M  V30 14 N -1.026373 1.119003 1.085437 0
M  V30 15 C -1.241468 2.416174 1.385525 0
M  V30 16 C -0.102845 3.327530 1.379905 0
M  V30 17 C 1.141754 2.823845 1.068353 0
M  V30 18 C 2.288288 3.601921 1.034295 0
M  V30 19 N 2.176783 4.914261 1.320303 0
M  V30 20 C 0.960736 5.416598 1.626772 0
M  V30 21 C -0.197813 4.669189 1.669067 0
M  V30 22 C -2.525695 2.800326 1.681893 0
M  V30 23 C -3.550601 1.894585 1.672109 0
M  V30 24 O -4.739109 2.197254 1.935497 0
M  V30 25 N -3.252826 0.620482 1.362827 0
M  V30 26 C -4.299689 -0.346755 1.352019 0
M  V30 27 C -2.249228 -2.371102 0.554319 0
M  V30 28 C -1.393638 -3.353200 -0.259136 0
M  V30 29 N -0.323323 -3.780840 0.614726 0
M  V30 30 H 0.963300 -4.670742 -3.051487 0
M  V30 31 H 2.742697 -4.661201 -2.724202 0
M  V30 32 H 1.716835 -5.908427 -1.985491 0
M  V30 33 H 4.112546 -3.937289 -1.401970 0
M  V30 34 H 4.759925 -1.495785 1.972346 0
M  V30 35 H 2.394833 -1.467318 2.386323 0
M  V30 36 H 0.311377 -2.488264 2.187838 0
M  V30 37 H -0.037740 -1.285692 -0.617535 0
M  V30 38 H 0.399717 -0.449438 0.870446 0
M  V30 39 H 1.322451 1.788495 0.827530 0
M  V30 40 H 3.276875 3.227360 0.791848 0
M  V30 41 H 0.913465 6.491046 1.853902 0
M  V30 42 H -1.157341 5.069737 1.911679 0
M  V30 43 H -2.748476 3.824416 1.927949 0
M  V30 44 H -5.207878 0.090431 1.877868 0
M  V30 45 H -4.655577 -0.490162 0.313982 0
M  V30 46 H -4.108359 -1.274683 1.907048 0
M  V30 47 H -3.202249 -2.319804 -0.000322 0
M  V30 48 H -2.419714 -2.908727 1.509391 0
M  V30 49 H -2.028833 -4.257912 -0.416723 0
M  V30 50 H -1.028216 -2.927063 -1.197165 0
M  V30 51 H -0.708753 -4.280283 1.442386 0
M  V30 END ATOM
M  V30 BEGIN BOND
M  V30 1 1 1 2
M  V30 2 1 2 3
M  V30 3 2 3 4
M  V30 4 1 4 5
M  V30 5 1 5 6
M  V30 6 2 5 7
M  V30 7 1 7 8
M  V30 8 2 8 9
M  V30 9 1 9 10
M  V30 10 1 10 11
M  V30 11 1 11 12
M  V30 12 1 12 13
M  V30 13 2 13 14
M  V30 14 1 14 15
M  V30 15 1 15 16
M  V30 16 2 16 17
M  V30 17 1 17 18
M  V30 18 2 18 19
M  V30 19 1 19 20
M  V30 20 2 20 21
M  V30 21 2 15 22
M  V30 22 1 22 23
M  V30 23 2 23 24
M  V30 24 1 23 25
M  V30 25 1 25 26
M  V30 26 1 12 27
M  V30 27 1 27 28
M  V30 28 1 28 29
M  V30 29 1 9 3
M  V30 30 1 29 10
M  V30 31 1 25 13
M  V30 32 1 21 16
M  V30 33 1 1 30
M  V30 34 1 1 31
M  V30 35 1 1 32
M  V30 36 1 4 33
M  V30 37 1 7 34
M  V30 38 1 8 35
M  V30 39 1 10 36
M  V30 40 1 11 37
M  V30 41 1 11 38
M  V30 42 1 17 39
M  V30 43 1 18 40
M  V30 44 1 20 41
M  V30 45 1 21 42
M  V30 46 1 22 43
M  V30 47 1 26 44
M  V30 48 1 26 45
M  V30 49 1 26 46
M  V30 50 1 27 47
M  V30 51 1 27 48
M  V30 52 1 28 49
M  V30 53 1 28 50
M  V30 54 1 29 51
M  V30 END BOND
M  V30 END CTAB
M  END
>  <Dataset>  (116) 
ChEMBL_Kinases

>  <Ligand_Instance>  (116) 
nan

>  <PDB_ID>  (116) 
nan

>  <Standardized_SMILES>  (116) 
COc1cc(F)ccc1C1CN(c2nc(-c3ccncc3)cc(=O)n2C)CCN1

>  <Name>  (116) 
nan

>  <Pocket>  (116) 
nan

>  <ATP_Site>  (116) 
nan

>  <Peripheral>  (116) 
nan

>  <Num_H_Atoms_ProtBoundConf>  (116) 
nan

>  <Num_Resolved_Atoms>  (116) 
nan

>  <Num_Not_Resolved_Atoms>  (116) 
nan

$$$$
CHEMBL4847890
     RDKit          3D

  0  0  0  0  0  0  0  0  0  0999 V3000
M  V30 BEGIN CTAB
M  V30 COUNTS 31 33 0 0 0
M  V30 BEGIN ATOM
M  V30 1 C -2.863012 -2.246458 2.432960 0
M  V30 2 N -1.506157 -2.706039 2.124419 0
M  V30 3 C -0.760457 -3.378376 3.164432 0
M  V30 4 C -0.664620 -2.687680 0.989301 0
M  V30 5 N -0.392782 -3.774440 0.218284 0
M  V30 6 C 0.453460 -3.612538 -0.831069 0
M  V30 7 C 1.031233 -2.375020 -1.116776 0
M  V30 8 C 0.723878 -1.278226 -0.297158 0
M  V30 9 C 1.333040 0.014263 -0.613905 0
M  V30 10 C 2.278533 0.354598 -1.559700 0
M  V30 11 N 2.544200 1.674992 -1.492047 0
M  V30 12 C 1.764810 2.177545 -0.499062 0
M  V30 13 C 1.613500 3.462036 0.010004 0
M  V30 14 N 0.767366 3.760799 1.013347 0
M  V30 15 C -0.005344 2.797843 1.597217 0
M  V30 16 C 0.156402 1.538175 1.081719 0
M  V30 17 C 0.994664 1.167712 0.070266 0
M  V30 18 N -0.128819 -1.472283 0.746346 0
M  V30 19 H -2.918308 -1.156841 2.585322 0
M  V30 20 H -3.178564 -2.702996 3.417528 0
M  V30 21 H -3.509473 -2.509159 1.596394 0
M  V30 22 H 0.314736 -3.193618 3.184192 0
M  V30 23 H -1.055615 -4.454088 3.096854 0
M  V30 24 H -1.160403 -3.020829 4.155140 0
M  V30 25 H 0.624154 -4.518267 -1.397622 0
M  V30 26 H 1.697090 -2.307755 -1.962801 0
M  V30 27 H 2.718838 -0.375305 -2.239971 0
M  V30 28 H 3.232001 2.204419 -2.098643 0
M  V30 29 H 2.202407 4.295371 -0.407798 0
M  V30 30 H -0.698616 3.023261 2.411735 0
M  V30 31 H -0.453505 0.774590 1.536558 0
M  V30 END ATOM
M  V30 BEGIN BOND
M  V30 1 1 1 2
M  V30 2 1 2 3
M  V30 3 1 2 4
M  V30 4 2 4 5
M  V30 5 1 5 6
M  V30 6 2 6 7
M  V30 7 1 7 8
M  V30 8 1 8 9
M  V30 9 2 9 10
M  V30 10 1 10 11
M  V30 11 1 11 12
M  V30 12 2 12 13
M  V30 13 1 13 14
M  V30 14 2 14 15
M  V30 15 1 15 16
M  V30 16 2 16 17
M  V30 17 2 8 18
M  V30 18 1 18 4
M  V30 19 1 17 9
M  V30 20 1 17 12
M  V30 21 1 1 19
M  V30 22 1 1 20
M  V30 23 1 1 21
M  V30 24 1 3 22
M  V30 25 1 3 23
M  V30 26 1 3 24
M  V30 27 1 6 25
M  V30 28 1 7 26
M  V30 29 1 10 27
M  V30 30 1 11 28
M  V30 31 1 13 29
M  V30 32 1 15 30
M  V30 33 1 16 31
M  V30 END BOND
M  V30 END CTAB
M  END
>  <Dataset>  (117) 
ChEMBL_Kinases

>  <Ligand_Instance>  (117) 
nan

>  <PDB_ID>  (117) 
nan

>  <Standardized_SMILES>  (117) 
CN(C)c1nccc(-c2c[nH]c3cnccc23)n1

>  <Name>  (117) 
nan

>  <Pocket>  (117) 
nan

>  <ATP_Site>  (117) 
nan

>  <Peripheral>  (117) 
nan

>  <Num_H_Atoms_ProtBoundConf>  (117) 
nan

>  <Num_Resolved_Atoms>  (117) 
nan

>  <Num_Not_Resolved_Atoms>  (117) 
nan

$$$$
CHEMBL4847905
     RDKit          3D

  0  0  0  0  0  0  0  0  0  0999 V3000
M  V30 BEGIN CTAB
M  V30 COUNTS 65 70 0 0 0
M  V30 BEGIN ATOM
M  V30 1 C 3.871152 -0.361105 3.456903 0
M  V30 2 C 4.576002 -1.112085 2.341141 0
M  V30 3 C 4.509296 -2.596689 2.702615 0
M  V30 4 N 5.954243 -0.683972 2.338642 0
M  V30 5 C 6.997619 -1.246919 2.985683 0
M  V30 6 N 8.125941 -0.555213 2.734000 0
M  V30 7 N 7.773986 0.438861 1.927499 0
M  V30 8 C 6.459727 0.378305 1.675455 0
M  V30 9 C 5.717166 1.305756 0.829236 0
M  V30 10 C 6.385984 2.159206 -0.024135 0
M  V30 11 C 5.662890 3.026932 -0.815402 0
M  V30 12 C 4.286205 3.080948 -0.792103 0
M  V30 13 C 3.641943 2.202403 0.083981 0
M  V30 14 N 2.249175 2.057185 0.295614 0
M  V30 15 C 1.372569 2.701210 1.198401 0
M  V30 16 O 1.654598 3.583994 2.047695 0
M  V30 17 C -0.034337 2.287089 1.133637 0
M  V30 18 C -1.052389 2.792829 1.917628 0
M  V30 19 C -2.261326 2.199435 1.619371 0
M  V30 20 C -3.578900 2.261529 2.024630 0
M  V30 21 C -4.557546 1.465443 1.458749 0
M  V30 22 C -4.225248 0.575889 0.457030 0
M  V30 23 C -5.167571 -0.318369 -0.218140 0
M  V30 24 C -6.525529 -0.112252 -0.495922 0
M  V30 25 N -6.990646 -1.215516 -1.135862 0
M  V30 26 N -6.013788 -2.091353 -1.273707 0
M  V30 27 C -5.926353 -3.413447 -1.863186 0
M  V30 28 C -5.014718 -3.423526 -3.059788 0
M  V30 29 C -3.871158 -4.402107 -2.855398 0
M  V30 30 O -4.312253 -5.685393 -2.567104 0
M  V30 31 C -5.098007 -5.719023 -1.432592 0
M  V30 32 C -5.327672 -4.364232 -0.832317 0
M  V30 33 C -4.872416 -1.581812 -0.723339 0
M  V30 34 C -2.897167 0.489299 0.023671 0
M  V30 35 C -1.943987 1.300060 0.611293 0
M  V30 36 N -0.627313 1.365692 0.338289 0
M  V30 37 N 4.351765 1.341653 0.869211 0
M  V30 38 H 2.858825 -0.018454 3.179980 0
M  V30 39 H 3.736879 -1.013483 4.360186 0
M  V30 40 H 4.495699 0.506693 3.812034 0
M  V30 41 H 4.034941 -0.953656 1.405961 0
M  V30 42 H 3.474848 -2.974093 2.567151 0
M  V30 43 H 4.831605 -2.801166 3.725647 0
M  V30 44 H 5.134294 -3.209331 1.994382 0
M  V30 45 H 6.893510 -2.135798 3.612504 0
M  V30 46 H 7.472320 2.163838 -0.087493 0
M  V30 47 H 6.140254 3.720040 -1.504654 0
M  V30 48 H 3.623749 3.706726 -1.355393 0
M  V30 49 H 1.909568 1.332739 -0.374123 0
M  V30 50 H -0.957532 3.559555 2.682475 0
M  V30 51 H -3.813493 2.960262 2.804639 0
M  V30 52 H -5.592302 1.505195 1.768015 0
M  V30 53 H -7.074938 0.780354 -0.232925 0
M  V30 54 H -6.917406 -3.789206 -2.132171 0
M  V30 55 H -4.557050 -2.440071 -3.279786 0
M  V30 56 H -5.532098 -3.722110 -3.993414 0
M  V30 57 H -3.260098 -4.445942 -3.781806 0
M  V30 58 H -3.167472 -4.043826 -2.057363 0
M  V30 59 H -4.607762 -6.333141 -0.640756 0
M  V30 60 H -6.071955 -6.217189 -1.657819 0
M  V30 61 H -4.391098 -3.957520 -0.425342 0
M  V30 62 H -6.055001 -4.522391 0.012880 0
M  V30 63 H -3.868647 -1.997445 -0.640262 0
M  V30 64 H -2.612540 -0.208999 -0.768674 0
M  V30 65 H -0.100102 0.809906 -0.370461 0
M  V30 END ATOM
M  V30 BEGIN BOND
M  V30 1 1 1 2
M  V30 2 1 2 3
M  V30 3 1 2 4
M  V30 4 1 4 5
M  V30 5 2 5 6
M  V30 6 1 6 7
M  V30 7 2 7 8
M  V30 8 1 8 9
M  V30 9 2 9 10
M  V30 10 1 10 11
M  V30 11 2 11 12
M  V30 12 1 12 13
M  V30 13 1 13 14
M  V30 14 1 14 15
M  V30 15 2 15 16
M  V30 16 1 15 17
M  V30 17 2 17 18
M  V30 18 1 18 19
M  V30 19 2 19 20
M  V30 20 1 20 21
M  V30 21 2 21 22
M  V30 22 1 22 23
M  V30 23 1 23 24
M  V30 24 2 24 25
M  V30 25 1 25 26
M  V30 26 1 26 27
M  V30 27 1 27 28
M  V30 28 1 28 29
M  V30 29 1 29 30
M  V30 30 1 30 31
M  V30 31 1 31 32
M  V30 32 1 26 33
M  V30 33 1 22 34
M  V30 34 2 34 35
M  V30 35 1 35 36
M  V30 36 2 13 37
M  V30 37 1 8 4
M  V30 38 1 37 9
M  V30 39 1 36 17
M  V30 40 1 35 19
M  V30 41 2 33 23
M  V30 42 1 32 27
M  V30 43 1 1 38
M  V30 44 1 1 39
M  V30 45 1 1 40
M  V30 46 1 2 41
M  V30 47 1 3 42
M  V30 48 1 3 43
M  V30 49 1 3 44
M  V30 50 1 5 45
M  V30 51 1 10 46
M  V30 52 1 11 47
M  V30 53 1 12 48
M  V30 54 1 14 49
M  V30 55 1 18 50
M  V30 56 1 20 51
M  V30 57 1 21 52
M  V30 58 1 24 53
M  V30 59 1 27 54
M  V30 60 1 28 55
M  V30 61 1 28 56
M  V30 62 1 29 57
M  V30 63 1 29 58
M  V30 64 1 31 59
M  V30 65 1 31 60
M  V30 66 1 32 61
M  V30 67 1 32 62
M  V30 68 1 33 63
M  V30 69 1 34 64
M  V30 70 1 36 65
M  V30 END BOND
M  V30 END CTAB
M  END
>  <Dataset>  (118) 
ChEMBL_Kinases

>  <Ligand_Instance>  (118) 
nan

>  <PDB_ID>  (118) 
nan

>  <Standardized_SMILES>  (118) 
CC(C)n1cnnc1-c1cccc(NC(=O)c2cc3ccc(-c4cnn(C5CCOCC5)c4)cc3[nH]2)n1

>  <Name>  (118) 
nan

>  <Pocket>  (118) 
nan

>  <ATP_Site>  (118) 
nan

>  <Peripheral>  (118) 
nan

>  <Num_H_Atoms_ProtBoundConf>  (118) 
nan

>  <Num_Resolved_Atoms>  (118) 
nan

>  <Num_Not_Resolved_Atoms>  (118) 
nan

$$$$
CHEMBL4847680
     RDKit          3D

  0  0  0  0  0  0  0  0  0  0999 V3000
M  V30 BEGIN CTAB
M  V30 COUNTS 42 46 0 0 0
M  V30 BEGIN ATOM
M  V30 1 C -0.043285 -8.315159 -2.278535 0
M  V30 2 N 0.901663 -7.280053 -1.878144 0
M  V30 3 C 0.497680 -6.101244 -1.326218 0
M  V30 4 C 1.627866 -5.323371 -1.052220 0
M  V30 5 C 1.532761 -3.997461 -0.454516 0
M  V30 6 C 0.447967 -3.183360 -0.707037 0
M  V30 7 C 0.389755 -1.936634 -0.125805 0
M  V30 8 N 1.328505 -1.438527 0.687309 0
M  V30 9 C 1.378505 -0.269093 1.295750 0
M  V30 10 C 0.525798 0.893892 1.355703 0
M  V30 11 C -0.634236 1.274122 0.842276 0
M  V30 12 C -1.179951 2.491114 1.114133 0
M  V30 13 C -0.444783 3.323760 1.970445 0
M  V30 14 C -0.642480 4.694235 2.528251 0
M  V30 15 C 0.362401 5.137312 3.355110 0
M  V30 16 C 0.145089 6.424135 3.859065 0
M  V30 17 C -0.992445 7.148007 3.528151 0
M  V30 18 C -1.939971 6.590842 2.679655 0
M  V30 19 Cl -3.383137 7.512375 2.261320 0
M  V30 20 C -1.784371 5.308629 2.140678 0
M  V30 21 S 1.001094 2.284564 2.330845 0
M  V30 22 C 2.595754 -0.359672 1.986025 0
M  V30 23 N 3.174811 -1.549776 1.747231 0
M  V30 24 C 2.375581 -2.243950 0.921373 0
M  V30 25 C 2.512063 -3.503380 0.381106 0
M  V30 26 C 2.691743 -6.097240 -1.466162 0
M  V30 27 N 2.222051 -7.267442 -1.957832 0
M  V30 28 H -0.313831 -8.994025 -1.430129 0
M  V30 29 H 0.350881 -8.923894 -3.138130 0
M  V30 30 H -0.952817 -7.800758 -2.677383 0
M  V30 31 H -0.531791 -5.813732 -1.131504 0
M  V30 32 H -0.301938 -3.590338 -1.361085 0
M  V30 33 H -0.497023 -1.399164 -0.395565 0
M  V30 34 H -1.236371 0.675300 0.181935 0
M  V30 35 H -2.086114 2.978129 0.806867 0
M  V30 36 H 1.244738 4.568139 3.607886 0
M  V30 37 H 0.921626 6.819602 4.524188 0
M  V30 38 H -1.127597 8.145738 3.939002 0
M  V30 39 H -2.503405 4.854647 1.481435 0
M  V30 40 H 3.138790 0.300694 2.640473 0
M  V30 41 H 3.385429 -4.100583 0.613218 0
M  V30 42 H 3.707886 -5.728925 -1.367454 0
M  V30 END ATOM
M  V30 BEGIN BOND
M  V30 1 1 1 2
M  V30 2 1 2 3
M  V30 3 2 3 4
M  V30 4 1 4 5
M  V30 5 1 5 6
M  V30 6 2 6 7
M  V30 7 1 7 8
M  V30 8 1 8 9
M  V30 9 1 9 10
M  V30 10 2 10 11
M  V30 11 1 11 12
M  V30 12 2 12 13
M  V30 13 1 13 14
M  V30 14 2 14 15
M  V30 15 1 15 16
M  V30 16 2 16 17
M  V30 17 1 17 18
M  V30 18 1 18 19
M  V30 19 2 18 20
M  V30 20 1 13 21
M  V30 21 2 9 22
M  V30 22 1 22 23
M  V30 23 2 23 24
M  V30 24 1 24 25
M  V30 25 1 4 26
M  V30 26 2 26 27
M  V30 27 1 27 2
M  V30 28 2 25 5
M  V30 29 1 24 8
M  V30 30 1 21 10
M  V30 31 1 20 14
M  V30 32 1 1 28
M  V30 33 1 1 29
M  V30 34 1 1 30
M  V30 35 1 3 31
M  V30 36 1 6 32
M  V30 37 1 7 33
M  V30 38 1 11 34
M  V30 39 1 12 35
M  V30 40 1 15 36
M  V30 41 1 16 37
M  V30 42 1 17 38
M  V30 43 1 20 39
M  V30 44 1 22 40
M  V30 45 1 25 41
M  V30 46 1 26 42
M  V30 END BOND
M  V30 END CTAB
M  END
>  <Dataset>  (119) 
ChEMBL_Kinases

>  <Ligand_Instance>  (119) 
nan

>  <PDB_ID>  (119) 
nan

>  <Standardized_SMILES>  (119) 
Cn1cc(-c2ccn3c(-c4ccc(-c5cccc(Cl)c5)s4)cnc3c2)cn1

>  <Name>  (119) 
nan

>  <Pocket>  (119) 
nan

>  <ATP_Site>  (119) 
nan

>  <Peripheral>  (119) 
nan

>  <Num_H_Atoms_ProtBoundConf>  (119) 
nan

>  <Num_Resolved_Atoms>  (119) 
nan

>  <Num_Not_Resolved_Atoms>  (119) 
nan

$$$$
CHEMBL4088336
     RDKit          3D

  0  0  0  0  0  0  0  0  0  0999 V3000
M  V30 BEGIN CTAB
M  V30 COUNTS 39 41 0 0 0
M  V30 BEGIN ATOM
M  V30 1 O 2.981832 0.219575 -1.552257 0
M  V30 2 C 1.967021 -0.127886 -0.902125 0
M  V30 3 N 2.305843 -1.133881 0.002246 0
M  V30 4 C 3.435007 -1.880762 0.409084 0
M  V30 5 C 3.765207 -3.081440 -0.218497 0
M  V30 6 C 4.863247 -3.838389 0.158325 0
M  V30 7 C 5.637559 -3.358774 1.195684 0
M  V30 8 N 5.349720 -2.188208 1.837160 0
M  V30 9 C 4.263878 -1.462337 1.447128 0
M  V30 10 C 0.641329 0.430414 -1.064930 0
M  V30 11 C 0.614731 1.426300 -2.055201 0
M  V30 12 C -0.555918 2.084326 -2.368292 0
M  V30 13 Br -0.596273 3.436787 -3.709835 0
M  V30 14 C -1.739473 1.798302 -1.730255 0
M  V30 15 C -1.711482 0.823004 -0.761010 0
M  V30 16 C -0.553287 0.158023 -0.437973 0
M  V30 17 O -0.470704 -0.809641 0.508125 0
M  V30 18 C -1.461446 -1.331694 1.330561 0
M  V30 19 C -2.116271 -0.399558 2.248076 0
M  V30 20 C -1.903236 0.923310 2.552362 0
M  V30 21 C -2.658133 1.602038 3.471746 0
M  V30 22 C -3.690149 0.985722 4.154024 0
M  V30 23 C -3.927284 -0.334421 3.872149 0
M  V30 24 C -3.162290 -1.022419 2.939916 0
M  V30 25 Cl -3.648975 -2.702983 2.742865 0
M  V30 26 H 1.621635 -1.571149 0.646587 0
M  V30 27 H 3.170969 -3.459731 -1.021767 0
M  V30 28 H 5.155200 -4.773136 -0.299501 0
M  V30 29 H 6.530407 -3.843998 1.601632 0
M  V30 30 H 3.977432 -0.514548 1.920890 0
M  V30 31 H 1.492292 1.747976 -2.637252 0
M  V30 32 H -2.669041 2.301136 -1.958185 0
M  V30 33 H -2.612498 0.555673 -0.227855 0
M  V30 34 H -0.970842 -2.121109 1.976263 0
M  V30 35 H -2.234784 -1.908742 0.752805 0
M  V30 36 H -1.076640 1.338545 1.984955 0
M  V30 37 H -2.417510 2.631338 3.640106 0
M  V30 38 H -4.266405 1.533777 4.869027 0
M  V30 39 H -4.743700 -0.772247 4.429332 0
M  V30 END ATOM
M  V30 BEGIN BOND
M  V30 1 2 1 2
M  V30 2 1 2 3
M  V30 3 1 3 4
M  V30 4 2 4 5
M  V30 5 1 5 6
M  V30 6 2 6 7
M  V30 7 1 7 8
M  V30 8 2 8 9
M  V30 9 1 2 10
M  V30 10 2 10 11
M  V30 11 1 11 12
M  V30 12 1 12 13
M  V30 13 2 12 14
M  V30 14 1 14 15
M  V30 15 2 15 16
M  V30 16 1 16 17
M  V30 17 1 17 18
M  V30 18 1 18 19
M  V30 19 2 19 20
M  V30 20 1 20 21
M  V30 21 2 21 22
M  V30 22 1 22 23
M  V30 23 2 23 24
M  V30 24 1 24 25
M  V30 25 1 9 4
M  V30 26 1 16 10
M  V30 27 1 24 19
M  V30 28 1 3 26
M  V30 29 1 5 27
M  V30 30 1 6 28
M  V30 31 1 7 29
M  V30 32 1 9 30
M  V30 33 1 11 31
M  V30 34 1 14 32
M  V30 35 1 15 33
M  V30 36 1 18 34
M  V30 37 1 18 35
M  V30 38 1 20 36
M  V30 39 1 21 37
M  V30 40 1 22 38
M  V30 41 1 23 39
M  V30 END BOND
M  V30 END CTAB
M  END
>  <Dataset>  (120) 
ChEMBL_Kinases

>  <Ligand_Instance>  (120) 
nan

>  <PDB_ID>  (120) 
nan

>  <Standardized_SMILES>  (120) 
O=C(Nc1cccnc1)c1cc(Br)ccc1OCc1ccccc1Cl

>  <Name>  (120) 
nan

>  <Pocket>  (120) 
nan

>  <ATP_Site>  (120) 
nan

>  <Peripheral>  (120) 
nan

>  <Num_H_Atoms_ProtBoundConf>  (120) 
nan

>  <Num_Resolved_Atoms>  (120) 
nan

>  <Num_Not_Resolved_Atoms>  (120) 
nan

$$$$
CHEMBL4088298
     RDKit          3D

  0  0  0  0  0  0  0  0  0  0999 V3000
M  V30 BEGIN CTAB
M  V30 COUNTS 35 37 0 0 0
M  V30 BEGIN ATOM
M  V30 1 C 1.310094 -4.725044 3.404047 0
M  V30 2 S 2.832960 -4.659281 2.507375 0
M  V30 3 O 2.892882 -5.640621 1.372042 0
M  V30 4 O 3.918540 -5.104813 3.474325 0
M  V30 5 N 3.201309 -3.096337 1.938623 0
M  V30 6 C 2.288851 -2.500084 1.024708 0
M  V30 7 C 1.707382 -3.116031 -0.058342 0
M  V30 8 C 0.826594 -2.460327 -0.893834 0
M  V30 9 C 0.492462 -1.132301 -0.663782 0
M  V30 10 C 1.091764 -0.561176 0.420521 0
M  V30 11 C 0.772663 0.929075 0.756973 0
M  V30 12 N 0.036976 1.670848 0.173284 0
M  V30 13 C -0.208732 2.921354 0.484419 0
M  V30 14 C -1.143208 3.677811 -0.349258 0
M  V30 15 C -2.244707 3.167931 -0.874929 0
M  V30 16 S -2.633309 1.426049 -0.550963 0
M  V30 17 C -4.325242 1.535559 -1.188339 0
M  V30 18 S -5.487481 0.402474 -1.005720 0
M  V30 19 N -4.393032 2.776585 -1.851752 0
M  V30 20 C -3.316388 3.649237 -1.703628 0
M  V30 21 O -3.210244 4.796473 -2.224513 0
M  V30 22 C 0.491706 3.391118 1.633951 0
M  V30 23 S 1.463636 1.829500 2.111272 0
M  V30 24 C 1.969826 -1.164661 1.278500 0
M  V30 25 H 1.458582 -4.847578 4.498764 0
M  V30 26 H 0.684367 -3.825108 3.266847 0
M  V30 27 H 0.776716 -5.664737 3.072223 0
M  V30 28 H 4.038118 -2.539550 2.203252 0
M  V30 29 H 1.987607 -4.157999 -0.215790 0
M  V30 30 H 0.377292 -2.959921 -1.742520 0
M  V30 31 H -0.187708 -0.549200 -1.270421 0
M  V30 32 H -0.981083 4.720203 -0.587239 0
M  V30 33 H -5.236836 3.004330 -2.429856 0
M  V30 34 H 0.238979 4.569844 1.897525 0
M  V30 35 H 2.402823 -0.635075 2.121527 0
M  V30 END ATOM
M  V30 BEGIN BOND
M  V30 1 1 1 2
M  V30 2 2 2 3
M  V30 3 2 2 4
M  V30 4 1 2 5
M  V30 5 1 5 6
M  V30 6 2 6 7
M  V30 7 1 7 8
M  V30 8 2 8 9
M  V30 9 1 9 10
M  V30 10 1 10 11
M  V30 11 2 11 12
M  V30 12 1 12 13
M  V30 13 1 13 14
M  V30 14 2 14 15
M  V30 15 1 15 16
M  V30 16 1 16 17
M  V30 17 2 17 18
M  V30 18 1 17 19
M  V30 19 1 19 20
M  V30 20 2 20 21
M  V30 21 2 13 22
M  V30 22 1 22 23
M  V30 23 2 10 24
M  V30 24 1 24 6
M  V30 25 1 23 11
M  V30 26 1 20 15
M  V30 27 1 1 25
M  V30 28 1 1 26
M  V30 29 1 1 27
M  V30 30 1 5 28
M  V30 31 1 7 29
M  V30 32 1 8 30
M  V30 33 1 9 31
M  V30 34 1 14 32
M  V30 35 1 19 33
M  V30 36 1 22 34
M  V30 37 1 24 35
M  V30 END BOND
M  V30 END CTAB
M  END
>  <Dataset>  (121) 
ChEMBL_Kinases

>  <Ligand_Instance>  (121) 
nan

>  <PDB_ID>  (121) 
nan

>  <Standardized_SMILES>  (121) 
CS(=O)(=O)Nc1cccc(-c2nc(/C=C3\SC(=S)NC3=O)cs2)c1

>  <Name>  (121) 
nan

>  <Pocket>  (121) 
nan

>  <ATP_Site>  (121) 
nan

>  <Peripheral>  (121) 
nan

>  <Num_H_Atoms_ProtBoundConf>  (121) 
nan

>  <Num_Resolved_Atoms>  (121) 
nan

>  <Num_Not_Resolved_Atoms>  (121) 
nan

$$$$
CHEMBL4088284
     RDKit          3D

  0  0  0  0  0  0  0  0  0  0999 V3000
M  V30 BEGIN CTAB
M  V30 COUNTS 51 54 0 0 0
M  V30 BEGIN ATOM
M  V30 1 C -1.312713 -5.561124 3.325806 0
M  V30 2 O -0.284618 -4.815699 2.745979 0
M  V30 3 C 0.527218 -5.689982 2.030830 0
M  V30 4 C 1.676626 -4.941669 1.365898 0
M  V30 5 N 1.161428 -3.937743 0.445672 0
M  V30 6 C 0.927794 -2.631100 1.006665 0
M  V30 7 O 0.837599 -2.445142 2.253290 0
M  V30 8 C 0.800187 -1.533370 0.055017 0
M  V30 9 C 0.573938 -0.194996 0.276188 0
M  V30 10 C 0.534907 0.417748 -0.970095 0
M  V30 11 C 0.300579 1.856822 -1.100131 0
M  V30 12 C 0.240047 2.451262 -2.364056 0
M  V30 13 C 0.002070 3.827605 -2.445113 0
M  V30 14 N -0.162092 4.547342 -1.321751 0
M  V30 15 C -0.104568 3.982013 -0.099197 0
M  V30 16 N -0.258483 4.555293 1.192150 0
M  V30 17 C -1.309308 4.119396 2.043793 0
M  V30 18 C -2.217847 3.139893 1.709301 0
M  V30 19 C -3.032181 3.061365 2.840527 0
M  V30 20 N -2.578701 3.965051 3.748927 0
M  V30 21 N -1.528523 4.616961 3.275736 0
M  V30 22 C -0.792834 5.649846 3.970286 0
M  V30 23 N 0.121319 2.682287 -0.057423 0
M  V30 24 N 0.729759 -0.506457 -1.925483 0
M  V30 25 C 0.891120 -1.690172 -1.308332 0
M  V30 26 C 1.133947 -3.025409 -1.859926 0
M  V30 27 C 0.878036 -4.148164 -0.933427 0 CFG=1
M  V30 28 C 1.755751 -5.314412 -1.401670 0
M  V30 29 H -2.017581 -4.939829 3.921532 0
M  V30 30 H -1.877249 -6.169697 2.590214 0
M  V30 31 H -0.806454 -6.291641 4.008948 0
M  V30 32 H 0.908915 -6.433890 2.752006 0
M  V30 33 H -0.107454 -6.205607 1.300048 0
M  V30 34 H 2.310387 -4.491300 2.155717 0
M  V30 35 H 2.276799 -5.712587 0.838524 0
M  V30 36 H 0.448965 0.285597 1.245859 0
M  V30 37 H 0.370539 1.874995 -3.270545 0
M  V30 38 H -0.057141 4.359918 -3.384955 0
M  V30 39 H 0.423294 5.299374 1.482524 0
M  V30 40 H -2.336961 2.543438 0.828991 0
M  V30 41 H -3.898673 2.409517 3.028173 0
M  V30 42 H -1.515734 6.233453 4.594021 0
M  V30 43 H -0.035038 5.167060 4.607185 0
M  V30 44 H -0.361912 6.293284 3.175403 0
M  V30 45 H 0.748626 -0.319218 -2.954362 0
M  V30 46 H 0.488672 -3.144694 -2.766538 0
M  V30 47 H 2.181438 -3.023308 -2.268396 0
M  V30 48 H -0.170323 -4.533136 -1.063002 0
M  V30 49 H 2.824890 -5.131004 -1.163549 0
M  V30 50 H 1.578759 -5.417585 -2.505529 0
M  V30 51 H 1.360479 -6.217294 -0.927069 0
M  V30 END ATOM
M  V30 BEGIN BOND
M  V30 1 1 1 2
M  V30 2 1 2 3
M  V30 3 1 3 4
M  V30 4 1 4 5
M  V30 5 1 5 6
M  V30 6 2 6 7
M  V30 7 1 6 8
M  V30 8 1 8 9
M  V30 9 2 9 10
M  V30 10 1 10 11
M  V30 11 2 11 12
M  V30 12 1 12 13
M  V30 13 2 13 14
M  V30 14 1 14 15
M  V30 15 1 15 16
M  V30 16 1 16 17
M  V30 17 2 17 18
M  V30 18 1 18 19
M  V30 19 2 19 20
M  V30 20 1 20 21
M  V30 21 1 21 22
M  V30 22 2 15 23
M  V30 23 1 10 24
M  V30 24 1 24 25
M  V30 25 1 25 26
M  V30 26 1 26 27
M  V30 27 1 27 28
M  V30 28 1 27 5
M  V30 29 2 25 8
M  V30 30 1 23 11
M  V30 31 1 21 17
M  V30 32 1 1 29
M  V30 33 1 1 30
M  V30 34 1 1 31
M  V30 35 1 3 32
M  V30 36 1 3 33
M  V30 37 1 4 34
M  V30 38 1 4 35
M  V30 39 1 9 36
M  V30 40 1 12 37
M  V30 41 1 13 38
M  V30 42 1 16 39
M  V30 43 1 18 40
M  V30 44 1 19 41
M  V30 45 1 22 42
M  V30 46 1 22 43
M  V30 47 1 22 44
M  V30 48 1 24 45
M  V30 49 1 26 46
M  V30 50 1 26 47
M  V30 51 1 27 48 CFG=1
M  V30 52 1 28 49
M  V30 53 1 28 50
M  V30 54 1 28 51
M  V30 END BOND
M  V30 END CTAB
M  END
>  <Dataset>  (122) 
ChEMBL_Kinases

>  <Ligand_Instance>  (122) 
nan

>  <PDB_ID>  (122) 
nan

>  <Standardized_SMILES>  (122) 
COCCN1C(=O)c2cc(-c3ccnc(Nc4ccnn4C)n3)[nH]c2C[C@H]1C

>  <Name>  (122) 
nan

>  <Pocket>  (122) 
nan

>  <ATP_Site>  (122) 
nan

>  <Peripheral>  (122) 
nan

>  <Num_H_Atoms_ProtBoundConf>  (122) 
nan

>  <Num_Resolved_Atoms>  (122) 
nan

>  <Num_Not_Resolved_Atoms>  (122) 
nan

$$$$
CHEMBL4088266
     RDKit          3D

  0  0  0  0  0  0  0  0  0  0999 V3000
M  V30 BEGIN CTAB
M  V30 COUNTS 53 56 0 0 0
M  V30 BEGIN ATOM
M  V30 1 C -1.087747 0.784935 3.734295 0
M  V30 2 C 0.408833 0.662990 3.552995 0
M  V30 3 O 0.766351 -0.378006 2.661555 0
M  V30 4 C 2.122372 -0.564736 2.430867 0
M  V30 5 C 3.111597 0.198540 3.016271 0
M  V30 6 C 4.457090 -0.005136 2.770933 0
M  V30 7 C 4.842322 -1.012022 1.905376 0
M  V30 8 C 3.843680 -1.768274 1.326469 0
M  V30 9 C 2.470233 -1.589751 1.552041 0
M  V30 10 C 1.436228 -2.407765 0.923632 0
M  V30 11 C 0.860408 -1.912353 -0.340551 0
M  V30 12 N -0.465246 -2.542324 -0.491994 0
M  V30 13 C -1.540947 -1.671835 -0.808040 0
M  V30 14 N -1.177908 -0.371229 -0.975194 0
M  V30 15 C -2.076398 0.606248 -1.278441 0
M  V30 16 C -1.632000 1.986621 -1.440779 0
M  V30 17 C -0.289740 2.259541 -1.277721 0
M  V30 18 C 0.203662 3.541303 -1.412406 0
M  V30 19 N -0.692010 4.508388 -1.710769 0
M  V30 20 C -2.011545 4.195556 -1.863878 0
M  V30 21 N -2.514734 2.935978 -1.734259 0
M  V30 22 C -3.399668 0.263203 -1.420799 0
M  V30 23 C -3.769549 -1.028428 -1.255929 0
M  V30 24 O -4.974485 -1.395289 -1.376033 0
M  V30 25 N -2.840409 -1.939832 -0.958899 0
M  V30 26 C -3.239770 -3.297543 -0.772580 0
M  V30 27 C -0.298391 -3.926445 -0.266998 0
M  V30 28 C -0.140585 -4.113829 1.250084 0
M  V30 29 N 0.386300 -2.860085 1.815876 0
M  V30 30 H -1.266684 1.068228 4.785560 0
M  V30 31 H -1.418266 1.655275 3.108796 0
M  V30 32 H -1.562245 -0.167670 3.458063 0
M  V30 33 H 0.833000 1.646777 3.196206 0
M  V30 34 H 0.927581 0.449111 4.519262 0
M  V30 35 H 2.765717 0.972489 3.683613 0
M  V30 36 H 5.221399 0.600516 3.235912 0
M  V30 37 H 5.881812 -1.239305 1.657142 0
M  V30 38 H 4.086579 -2.581076 0.632635 0
M  V30 39 H 1.980634 -3.367157 0.661248 0
M  V30 40 H 0.745007 -0.856845 -0.471733 0
M  V30 41 H 1.434882 -2.296566 -1.229423 0
M  V30 42 H 0.444871 1.496160 -1.038028 0
M  V30 43 H 1.235060 3.858672 -1.304577 0
M  V30 44 H -2.704887 4.999235 -2.104192 0
M  V30 45 H -4.163603 0.985344 -1.661439 0
M  V30 46 H -2.954634 -3.729522 0.190551 0
M  V30 47 H -2.989877 -3.892128 -1.673004 0
M  V30 48 H -4.376776 -3.366131 -0.751761 0
M  V30 49 H -1.006203 -4.627829 -0.692117 0
M  V30 50 H 0.700621 -4.267807 -0.683577 0
M  V30 51 H 0.540492 -4.964897 1.452693 0
M  V30 52 H -1.099676 -4.355059 1.741612 0
M  V30 53 H -0.426685 -2.192218 1.799039 0
M  V30 END ATOM
M  V30 BEGIN BOND
M  V30 1 1 1 2
M  V30 2 1 2 3
M  V30 3 1 3 4
M  V30 4 2 4 5
M  V30 5 1 5 6
M  V30 6 2 6 7
M  V30 7 1 7 8
M  V30 8 2 8 9
M  V30 9 1 9 10
M  V30 10 1 10 11
M  V30 11 1 11 12
M  V30 12 1 12 13
M  V30 13 2 13 14
M  V30 14 1 14 15
M  V30 15 1 15 16
M  V30 16 2 16 17
M  V30 17 1 17 18
M  V30 18 2 18 19
M  V30 19 1 19 20
M  V30 20 2 20 21
M  V30 21 2 15 22
M  V30 22 1 22 23
M  V30 23 2 23 24
M  V30 24 1 23 25
M  V30 25 1 25 26
M  V30 26 1 12 27
M  V30 27 1 27 28
M  V30 28 1 28 29
M  V30 29 1 9 4
M  V30 30 1 29 10
M  V30 31 1 25 13
M  V30 32 1 21 16
M  V30 33 1 1 30
M  V30 34 1 1 31
M  V30 35 1 1 32
M  V30 36 1 2 33
M  V30 37 1 2 34
M  V30 38 1 5 35
M  V30 39 1 6 36
M  V30 40 1 7 37
M  V30 41 1 8 38
M  V30 42 1 10 39
M  V30 43 1 11 40
M  V30 44 1 11 41
M  V30 45 1 17 42
M  V30 46 1 18 43
M  V30 47 1 20 44
M  V30 48 1 22 45
M  V30 49 1 26 46
M  V30 50 1 26 47
M  V30 51 1 26 48
M  V30 52 1 27 49
M  V30 53 1 27 50
M  V30 54 1 28 51
M  V30 55 1 28 52
M  V30 56 1 29 53
M  V30 END BOND
M  V30 END CTAB
M  END
>  <Dataset>  (123) 
ChEMBL_Kinases

>  <Ligand_Instance>  (123) 
nan

>  <PDB_ID>  (123) 
nan

>  <Standardized_SMILES>  (123) 
CCOc1ccccc1C1CN(c2nc(-c3ccncn3)cc(=O)n2C)CCN1

>  <Name>  (123) 
nan

>  <Pocket>  (123) 
nan

>  <ATP_Site>  (123) 
nan

>  <Peripheral>  (123) 
nan

>  <Num_H_Atoms_ProtBoundConf>  (123) 
nan

>  <Num_Resolved_Atoms>  (123) 
nan

>  <Num_Not_Resolved_Atoms>  (123) 
nan

$$$$
CHEMBL4088246
     RDKit          3D

  0  0  0  0  0  0  0  0  0  0999 V3000
M  V30 BEGIN CTAB
M  V30 COUNTS 71 76 0 0 0
M  V30 BEGIN ATOM
M  V30 1 O 3.450237 1.070465 2.327138 0
M  V30 2 C 3.192614 0.591485 1.187495 0
M  V30 3 N 4.079393 0.999881 0.158219 0
M  V30 4 C 5.185714 1.895211 0.433047 0
M  V30 5 C 5.904479 2.122730 -0.848026 0
M  V30 6 N 5.572408 3.154689 -1.676197 0
M  V30 7 C 6.331773 3.180510 -2.760263 0
M  V30 8 C 6.333126 4.042619 -3.836886 0
M  V30 9 C 7.281086 3.779925 -4.821371 0
M  V30 10 C 8.165472 2.720971 -4.725217 0
M  V30 11 C 8.120962 1.878686 -3.613389 0
M  V30 12 C 7.176338 2.123807 -2.611401 0
M  V30 13 N 6.928428 1.488511 -1.475028 0
M  V30 14 C 2.061150 -0.308640 0.986600 0
M  V30 15 C 1.720476 -0.909263 -0.199361 0
M  V30 16 C 0.630668 -1.754088 -0.317042 0
M  V30 17 C -0.174356 -2.032289 0.776312 0
M  V30 18 C -1.334192 -2.911781 0.759072 0
M  V30 19 C -1.263589 -4.165413 0.169999 0
M  V30 20 N -2.363861 -4.972912 0.176821 0
M  V30 21 C -3.523859 -4.592906 0.738864 0
M  V30 22 N -4.648346 -5.461736 0.730607 0
M  V30 23 C -5.569317 -5.503992 -0.350282 0
M  V30 24 C -6.681224 -6.320381 -0.346076 0
M  V30 25 C -7.600667 -6.393533 -1.384194 0
M  V30 26 C -7.372047 -5.588502 -2.487784 0
M  V30 27 C -6.262472 -4.740463 -2.549725 0
M  V30 28 C -5.390186 -4.719107 -1.481464 0
M  V30 29 N -3.611269 -3.364549 1.322114 0
M  V30 30 C -2.536060 -2.528063 1.337009 0
M  V30 31 O -2.690394 -1.273574 1.953610 0
M  V30 32 C -3.917837 -0.893570 2.541707 0
M  V30 33 C -3.855850 0.495848 3.139970 0
M  V30 34 C -2.805227 0.590765 4.211939 0
M  V30 35 C -2.188854 1.955881 4.312175 0
M  V30 36 N -1.684416 2.442858 3.061540 0
M  V30 37 C -2.170493 1.754195 1.899797 0
M  V30 38 C -3.646712 1.506913 2.034134 0
M  V30 39 C 0.162803 -1.437554 1.950271 0
M  V30 40 C 1.251383 -0.593901 2.067756 0
M  V30 41 H 3.889201 0.621538 -0.795752 0
M  V30 42 H 5.859260 1.432832 1.199888 0
M  V30 43 H 4.872028 2.854995 0.877347 0
M  V30 44 H 5.658806 4.876086 -3.942191 0
M  V30 45 H 7.316845 4.442728 -5.696035 0
M  V30 46 H 8.893102 2.549155 -5.518042 0
M  V30 47 H 8.805055 1.040045 -3.515365 0
M  V30 48 H 7.368807 0.650762 -1.039888 0
M  V30 49 H 2.334820 -0.703559 -1.056073 0
M  V30 50 H 0.372962 -2.221668 -1.258334 0
M  V30 51 H -0.311560 -4.427655 -0.269777 0
M  V30 52 H -4.825920 -6.103026 1.538162 0
M  V30 53 H -6.865543 -6.958501 0.525767 0
M  V30 54 H -8.436544 -7.062651 -1.285152 0
M  V30 55 H -8.117743 -5.674886 -3.282168 0
M  V30 56 H -6.132099 -4.128967 -3.443300 0
M  V30 57 H -4.554102 -4.051777 -1.578424 0
M  V30 58 H -4.057379 -1.620068 3.397075 0
M  V30 59 H -4.796905 -1.031515 1.910331 0
M  V30 60 H -4.858002 0.723266 3.566032 0
M  V30 61 H -2.074813 -0.216097 4.096596 0
M  V30 62 H -3.330066 0.422773 5.197692 0
M  V30 63 H -2.890316 2.666837 4.797052 0
M  V30 64 H -1.311969 1.862398 5.009287 0
M  V30 65 H -0.651164 2.576109 3.050941 0
M  V30 66 H -1.990328 2.458096 1.034795 0
M  V30 67 H -1.635257 0.815129 1.741762 0
M  V30 68 H -4.175837 2.458770 2.249217 0
M  V30 69 H -4.035575 1.038981 1.089301 0
M  V30 70 H -0.418477 -1.605361 2.850226 0
M  V30 71 H 1.478703 -0.143930 3.026138 0
M  V30 END ATOM
M  V30 BEGIN BOND
M  V30 1 2 1 2
M  V30 2 1 2 3
M  V30 3 1 3 4
M  V30 4 1 4 5
M  V30 5 2 5 6
M  V30 6 1 6 7
M  V30 7 2 7 8
M  V30 8 1 8 9
M  V30 9 2 9 10
M  V30 10 1 10 11
M  V30 11 2 11 12
M  V30 12 1 12 13
M  V30 13 1 2 14
M  V30 14 2 14 15
M  V30 15 1 15 16
M  V30 16 2 16 17
M  V30 17 1 17 18
M  V30 18 2 18 19
M  V30 19 1 19 20
M  V30 20 2 20 21
M  V30 21 1 21 22
M  V30 22 1 22 23
M  V30 23 2 23 24
M  V30 24 1 24 25
M  V30 25 2 25 26
M  V30 26 1 26 27
M  V30 27 2 27 28
M  V30 28 1 21 29
M  V30 29 2 29 30
M  V30 30 1 30 31
M  V30 31 1 31 32
M  V30 32 1 32 33
M  V30 33 1 33 34
M  V30 34 1 34 35
M  V30 35 1 35 36
M  V30 36 1 36 37
M  V30 37 1 37 38
M  V30 38 1 17 39
M  V30 39 2 39 40
M  V30 40 1 13 5
M  V30 41 1 40 14
M  V30 42 1 12 7
M  V30 43 1 30 18
M  V30 44 1 38 33
M  V30 45 1 28 23
M  V30 46 1 3 41
M  V30 47 1 4 42
M  V30 48 1 4 43
M  V30 49 1 8 44
M  V30 50 1 9 45
M  V30 51 1 10 46
M  V30 52 1 11 47
M  V30 53 1 13 48
M  V30 54 1 15 49
M  V30 55 1 16 50
M  V30 56 1 19 51
M  V30 57 1 22 52
M  V30 58 1 24 53
M  V30 59 1 25 54
M  V30 60 1 26 55
M  V30 61 1 27 56
M  V30 62 1 28 57
M  V30 63 1 32 58
M  V30 64 1 32 59
M  V30 65 1 33 60
M  V30 66 1 34 61
M  V30 67 1 34 62
M  V30 68 1 35 63
M  V30 69 1 35 64
M  V30 70 1 36 65
M  V30 71 1 37 66
M  V30 72 1 37 67
M  V30 73 1 38 68
M  V30 74 1 38 69
M  V30 75 1 39 70
M  V30 76 1 40 71
M  V30 END BOND
M  V30 END CTAB
M  END
>  <Dataset>  (124) 
ChEMBL_Kinases

>  <Ligand_Instance>  (124) 
nan

>  <PDB_ID>  (124) 
nan

>  <Standardized_SMILES>  (124) 
O=C(NCc1nc2ccccc2[nH]1)c1ccc(-c2cnc(Nc3ccccc3)nc2OCC2CCNCC2)cc1

>  <Name>  (124) 
nan

>  <Pocket>  (124) 
nan

>  <ATP_Site>  (124) 
nan

>  <Peripheral>  (124) 
nan

>  <Num_H_Atoms_ProtBoundConf>  (124) 
nan

>  <Num_Resolved_Atoms>  (124) 
nan

>  <Num_Not_Resolved_Atoms>  (124) 
nan

$$$$
CHEMBL4088242
     RDKit          3D

  0  0  0  0  0  0  0  0  0  0999 V3000
M  V30 BEGIN CTAB
M  V30 COUNTS 44 45 0 0 0
M  V30 BEGIN ATOM
M  V30 1 C -1.566233 -5.319087 1.977382 0
M  V30 2 C -2.265890 -4.790580 0.754647 0
M  V30 3 C -2.362239 -3.264517 0.750307 0 CFG=1
M  V30 4 C -3.148976 -2.895982 1.995092 0
M  V30 5 O -1.143278 -2.644786 0.659014 0
M  V30 6 C -0.554506 -1.838979 -0.235700 0
M  V30 7 N 0.701123 -1.523335 0.207665 0
M  V30 8 C 1.499425 -0.709291 -0.539700 0
M  V30 9 N 2.815983 -0.296981 -0.206882 0
M  V30 10 C 2.994845 0.927992 0.531879 0
M  V30 11 C 4.237641 1.403811 0.895433 0
M  V30 12 C 4.402739 2.578017 1.599995 0
M  V30 13 C 3.305030 3.322220 1.966747 0
M  V30 14 S 3.321997 4.819794 2.851901 0
M  V30 15 N 3.225653 4.594418 4.558312 0
M  V30 16 O 4.668557 5.462032 2.577368 0
M  V30 17 O 2.206639 5.715924 2.428095 0
M  V30 18 C 2.053207 2.867155 1.614961 0
M  V30 19 C 1.881862 1.689110 0.907737 0
M  V30 20 N 1.119220 -0.172359 -1.735415 0
M  V30 21 C -0.116221 -0.445390 -2.234469 0
M  V30 22 N -0.635269 0.036892 -3.445639 0
M  V30 23 C -0.878785 -1.269613 -1.442191 0
M  V30 24 C -2.190248 -1.605145 -1.891179 0
M  V30 25 O -3.111822 -1.529660 -2.727142 0
M  V30 26 H -2.307689 -5.668097 2.751279 0
M  V30 27 H -0.960646 -6.220595 1.717760 0
M  V30 28 H -0.957041 -4.529398 2.459626 0
M  V30 29 H -3.325669 -5.144023 0.805785 0
M  V30 30 H -1.862399 -5.197695 -0.179069 0
M  V30 31 H -2.999763 -3.028726 -0.118662 0
M  V30 32 H -2.747182 -3.463450 2.871383 0
M  V30 33 H -4.188678 -3.236264 1.866269 0
M  V30 34 H -3.042989 -1.836540 2.274497 0
M  V30 35 H 3.685227 -0.808593 -0.451657 0
M  V30 36 H 5.104127 0.831127 0.614785 0
M  V30 37 H 5.360200 2.968950 1.894191 0
M  V30 38 H 2.283701 4.838137 4.935988 0
M  V30 39 H 3.545978 3.651758 4.862565 0
M  V30 40 H 1.115093 3.362767 1.845674 0
M  V30 41 H 0.914453 1.301561 0.615040 0
M  V30 42 H -0.296352 -0.635948 -4.159872 0
M  V30 43 H -1.207323 0.908692 -3.349321 0
M  V30 44 H -3.175616 -1.876144 -2.196892 0
M  V30 END ATOM
M  V30 BEGIN BOND
M  V30 1 1 1 2
M  V30 2 1 2 3
M  V30 3 1 3 4
M  V30 4 1 3 5
M  V30 5 1 5 6
M  V30 6 2 6 7
M  V30 7 1 7 8
M  V30 8 1 8 9
M  V30 9 1 9 10
M  V30 10 2 10 11
M  V30 11 1 11 12
M  V30 12 2 12 13
M  V30 13 1 13 14
M  V30 14 1 14 15
M  V30 15 2 14 16
M  V30 16 2 14 17
M  V30 17 1 13 18
M  V30 18 2 18 19
M  V30 19 2 8 20
M  V30 20 1 20 21
M  V30 21 1 21 22
M  V30 22 2 21 23
M  V30 23 1 23 24
M  V30 24 2 24 25
M  V30 25 1 23 6
M  V30 26 1 19 10
M  V30 27 1 1 26
M  V30 28 1 1 27
M  V30 29 1 1 28
M  V30 30 1 2 29
M  V30 31 1 2 30
M  V30 32 1 3 31 CFG=3
M  V30 33 1 4 32
M  V30 34 1 4 33
M  V30 35 1 4 34
M  V30 36 1 9 35
M  V30 37 1 11 36
M  V30 38 1 12 37
M  V30 39 1 15 38
M  V30 40 1 15 39
M  V30 41 1 18 40
M  V30 42 1 19 41
M  V30 43 1 22 42
M  V30 44 1 22 43
M  V30 45 1 24 44
M  V30 END BOND
M  V30 END CTAB
M  END
>  <Dataset>  (125) 
ChEMBL_Kinases

>  <Ligand_Instance>  (125) 
nan

>  <PDB_ID>  (125) 
nan

>  <Standardized_SMILES>  (125) 
CC[C@@H](C)Oc1nc(Nc2ccc(S(N)(=O)=O)cc2)nc(N)c1C=O

>  <Name>  (125) 
nan

>  <Pocket>  (125) 
nan

>  <ATP_Site>  (125) 
nan

>  <Peripheral>  (125) 
nan

>  <Num_H_Atoms_ProtBoundConf>  (125) 
nan

>  <Num_Resolved_Atoms>  (125) 
nan

>  <Num_Not_Resolved_Atoms>  (125) 
nan

$$$$
CHEMBL4847040
     RDKit          3D

  0  0  0  0  0  0  0  0  0  0999 V3000
M  V30 BEGIN CTAB
M  V30 COUNTS 30 32 0 0 0
M  V30 BEGIN ATOM
M  V30 1 O -1.283761 -5.420668 2.351875 0
M  V30 2 C -1.626924 -4.250211 2.655433 0
M  V30 3 C -1.063927 -3.155945 1.869882 0
M  V30 4 C -0.185745 -3.497180 0.839938 0
M  V30 5 C 0.369640 -2.467880 0.069797 0
M  V30 6 C 0.040374 -1.143074 0.341793 0
M  V30 7 C 0.698555 -0.185985 -0.545836 0
M  V30 8 N 0.771287 -0.367135 -1.890610 0
M  V30 9 N 1.421074 0.649293 -2.455909 0
M  V30 10 C 1.796083 1.530674 -1.501290 0
M  V30 11 C 2.470258 2.717665 -1.512340 0
M  V30 12 C 2.696207 3.388974 -0.327617 0
M  V30 13 F 3.367807 4.570213 -0.343892 0
M  V30 14 C 2.235506 2.844551 0.838907 0
M  V30 15 C 1.547277 1.647530 0.914135 0
M  V30 16 C 1.346226 1.015205 -0.292081 0
M  V30 17 C -0.828673 -0.812923 1.361744 0
M  V30 18 C -1.374753 -1.834078 2.119847 0
M  V30 19 C -2.575019 -3.887124 3.767914 0
M  V30 20 F -3.028013 -4.992739 4.421467 0
M  V30 21 F -3.695067 -3.233058 3.257645 0
M  V30 22 F -1.989696 -3.039857 4.672702 0
M  V30 23 H 0.079168 -4.502737 0.615348 0
M  V30 24 H 1.051394 -2.765177 -0.726684 0
M  V30 25 H 1.624826 0.771981 -3.484957 0
M  V30 26 H 2.822109 3.122049 -2.452766 0
M  V30 27 H 2.428289 3.396290 1.758310 0
M  V30 28 H 1.179099 1.208941 1.831164 0
M  V30 29 H -1.038502 0.242157 1.514966 0
M  V30 30 H -2.052225 -1.566891 2.914020 0
M  V30 END ATOM
M  V30 BEGIN BOND
M  V30 1 2 1 2
M  V30 2 1 2 3
M  V30 3 2 3 4
M  V30 4 1 4 5
M  V30 5 2 5 6
M  V30 6 1 6 7
M  V30 7 2 7 8
M  V30 8 1 8 9
M  V30 9 1 9 10
M  V30 10 2 10 11
M  V30 11 1 11 12
M  V30 12 1 12 13
M  V30 13 2 12 14
M  V30 14 1 14 15
M  V30 15 2 15 16
M  V30 16 1 6 17
M  V30 17 2 17 18
M  V30 18 1 2 19
M  V30 19 1 19 20
M  V30 20 1 19 21
M  V30 21 1 19 22
M  V30 22 1 18 3
M  V30 23 1 16 7
M  V30 24 1 16 10
M  V30 25 1 4 23
M  V30 26 1 5 24
M  V30 27 1 9 25
M  V30 28 1 11 26
M  V30 29 1 14 27
M  V30 30 1 15 28
M  V30 31 1 17 29
M  V30 32 1 18 30
M  V30 END BOND
M  V30 END CTAB
M  END
>  <Dataset>  (126) 
ChEMBL_Kinases

>  <Ligand_Instance>  (126) 
nan

>  <PDB_ID>  (126) 
nan

>  <Standardized_SMILES>  (126) 
O=C(c1ccc(-c2n[nH]c3cc(F)ccc23)cc1)C(F)(F)F

>  <Name>  (126) 
nan

>  <Pocket>  (126) 
nan

>  <ATP_Site>  (126) 
nan

>  <Peripheral>  (126) 
nan

>  <Num_H_Atoms_ProtBoundConf>  (126) 
nan

>  <Num_Resolved_Atoms>  (126) 
nan

>  <Num_Not_Resolved_Atoms>  (126) 
nan

$$$$
CHEMBL4847051
     RDKit          3D

  0  0  0  0  0  0  0  0  0  0999 V3000
M  V30 BEGIN CTAB
M  V30 COUNTS 76 82 0 0 0
M  V30 BEGIN ATOM
M  V30 1 C 4.532530 -1.603564 3.531044 0
M  V30 2 C 4.975008 -2.275728 2.260182 0
M  V30 3 C 3.830643 -2.703338 1.370422 0 CFG=1
M  V30 4 O 4.391209 -3.304635 0.242633 0
M  V30 5 C 2.880520 -3.636814 2.056131 0
M  V30 6 C 1.796327 -2.764897 2.628869 0
M  V30 7 C 1.790231 -1.595265 1.707285 0
M  V30 8 C 0.837243 -0.618336 1.501367 0
M  V30 9 C 1.159868 0.328620 0.560529 0
M  V30 10 C 2.342329 0.371878 -0.176904 0
M  V30 11 N 2.481390 1.443434 -1.107165 0
M  V30 12 C 1.454505 1.816781 -1.916742 0
M  V30 13 N 0.199332 1.376482 -2.074898 0
M  V30 14 C -0.696427 1.866088 -2.932780 0
M  V30 15 N -2.007297 1.411723 -3.100503 0
M  V30 16 C -2.677928 0.362332 -2.421464 0
M  V30 17 C -4.001827 0.033544 -2.703749 0
M  V30 18 C -4.682599 -0.976733 -2.063908 0
M  V30 19 C -4.067790 -1.728648 -1.088743 0
M  V30 20 N -4.839493 -2.750661 -0.474115 0
M  V30 21 C -6.213354 -2.952554 -0.828066 0
M  V30 22 C -6.895519 -3.726090 0.310187 0
M  V30 23 N -6.516562 -3.064063 1.566565 0
M  V30 24 C -7.339032 -3.609057 2.628577 0
M  V30 25 C -5.114438 -3.313574 1.834764 0
M  V30 26 C -4.388089 -3.687021 0.536985 0
M  V30 27 C -2.761342 -1.449853 -0.767824 0
M  V30 28 C -2.122539 -0.426894 -1.438136 0
M  V30 29 N -0.264775 2.889825 -3.686934 0
M  V30 30 C 0.972369 3.393957 -3.596038 0
M  V30 31 C 1.872949 2.867235 -2.701493 0
M  V30 32 C 3.180786 3.101568 -2.328277 0
M  V30 33 O 3.889894 4.003501 -2.844233 0
M  V30 34 N 3.522812 2.228096 -1.364258 0
M  V30 35 C 4.801497 2.122738 -0.687279 0
M  V30 36 C 4.902035 2.960101 0.553868 0
M  V30 37 C 4.748623 4.432191 0.517122 0
M  V30 38 C 3.726679 3.561625 1.215965 0
M  V30 39 N 3.240739 -0.605039 0.061474 0
M  V30 40 C 2.974951 -1.561653 0.976125 0
M  V30 41 H 5.392120 -1.013672 3.926650 0
M  V30 42 H 4.294442 -2.400310 4.261576 0
M  V30 43 H 3.703089 -0.894318 3.399924 0
M  V30 44 H 5.539228 -3.193698 2.529145 0
M  V30 45 H 5.647256 -1.641484 1.648763 0
M  V30 46 H 5.155221 -3.884009 0.490513 0
M  V30 47 H 2.403967 -4.293005 1.288339 0
M  V30 48 H 3.372846 -4.295369 2.783801 0
M  V30 49 H 1.946668 -2.507358 3.680424 0
M  V30 50 H 0.779602 -3.241757 2.510364 0
M  V30 51 H -0.094138 -0.589248 2.032264 0
M  V30 52 H 0.401105 1.108273 0.395114 0
M  V30 53 H -2.606247 1.894531 -3.823415 0
M  V30 54 H -4.521643 0.606422 -3.469776 0
M  V30 55 H -5.713022 -1.145378 -2.366634 0
M  V30 56 H -6.322644 -3.574963 -1.743183 0
M  V30 57 H -6.801478 -2.014135 -0.893046 0
M  V30 58 H -7.998628 -3.570790 0.213856 0
M  V30 59 H -6.611741 -4.775233 0.349393 0
M  V30 60 H -7.517679 -4.698093 2.541162 0
M  V30 61 H -6.805966 -3.457480 3.602554 0
M  V30 62 H -8.303461 -3.043959 2.728554 0
M  V30 63 H -4.624453 -2.393992 2.206091 0
M  V30 64 H -4.968125 -4.099790 2.596654 0
M  V30 65 H -3.315195 -3.594078 0.787700 0
M  V30 66 H -4.578757 -4.738952 0.239216 0
M  V30 67 H -2.283222 -2.036929 -0.007126 0
M  V30 68 H -1.116794 -0.278104 -1.129705 0
M  V30 69 H 1.290772 4.218464 -4.216418 0
M  V30 70 H 5.636646 2.474341 -1.361363 0
M  V30 71 H 5.061755 1.067396 -0.468095 0
M  V30 72 H 5.688546 2.600090 1.271143 0
M  V30 73 H 5.431781 5.070219 1.148507 0
M  V30 74 H 4.338249 4.994811 -0.321602 0
M  V30 75 H 2.709333 3.467843 0.778791 0
M  V30 76 H 3.707712 3.676583 2.320732 0
M  V30 END ATOM
M  V30 BEGIN BOND
M  V30 1 1 1 2
M  V30 2 1 2 3
M  V30 3 1 3 4 CFG=3
M  V30 4 1 3 5
M  V30 5 1 5 6
M  V30 6 1 6 7
M  V30 7 2 7 8
M  V30 8 1 8 9
M  V30 9 2 9 10
M  V30 10 1 10 11
M  V30 11 1 11 12
M  V30 12 2 12 13
M  V30 13 1 13 14
M  V30 14 1 14 15
M  V30 15 1 15 16
M  V30 16 2 16 17
M  V30 17 1 17 18
M  V30 18 2 18 19
M  V30 19 1 19 20
M  V30 20 1 20 21
M  V30 21 1 21 22
M  V30 22 1 22 23
M  V30 23 1 23 24
M  V30 24 1 23 25
M  V30 25 1 25 26
M  V30 26 1 19 27
M  V30 27 2 27 28
M  V30 28 2 14 29
M  V30 29 1 29 30
M  V30 30 2 30 31
M  V30 31 1 31 32
M  V30 32 2 32 33
M  V30 33 1 32 34
M  V30 34 1 34 35
M  V30 35 1 35 36
M  V30 36 1 36 37
M  V30 37 1 37 38
M  V30 38 1 10 39
M  V30 39 2 39 40
M  V30 40 1 40 3
M  V30 41 1 40 7
M  V30 42 1 34 11
M  V30 43 1 38 36
M  V30 44 1 31 12
M  V30 45 1 28 16
M  V30 46 1 26 20
M  V30 47 1 1 41
M  V30 48 1 1 42
M  V30 49 1 1 43
M  V30 50 1 2 44
M  V30 51 1 2 45
M  V30 52 1 4 46
M  V30 53 1 5 47
M  V30 54 1 5 48
M  V30 55 1 6 49
M  V30 56 1 6 50
M  V30 57 1 8 51
M  V30 58 1 9 52
M  V30 59 1 15 53
M  V30 60 1 17 54
M  V30 61 1 18 55
M  V30 62 1 21 56
M  V30 63 1 21 57
M  V30 64 1 22 58
M  V30 65 1 22 59
M  V30 66 1 24 60
M  V30 67 1 24 61
M  V30 68 1 24 62
M  V30 69 1 25 63
M  V30 70 1 25 64
M  V30 71 1 26 65
M  V30 72 1 26 66
M  V30 73 1 27 67
M  V30 74 1 28 68
M  V30 75 1 30 69
M  V30 76 1 35 70
M  V30 77 1 35 71
M  V30 78 1 36 72
M  V30 79 1 37 73
M  V30 80 1 37 74
M  V30 81 1 38 75
M  V30 82 1 38 76
M  V30 END BOND
M  V30 END CTAB
M  END
>  <Dataset>  (127) 
ChEMBL_Kinases

>  <Ligand_Instance>  (127) 
nan

>  <PDB_ID>  (127) 
nan

>  <Standardized_SMILES>  (127) 
CC[C@@]1(O)CCc2ccc(-n3c4nc(Nc5ccc(N6CCN(C)CC6)cc5)ncc4c(=O)n3CC3CC3)nc21

>  <Name>  (127) 
nan

>  <Pocket>  (127) 
nan

>  <ATP_Site>  (127) 
nan

>  <Peripheral>  (127) 
nan

>  <Num_H_Atoms_ProtBoundConf>  (127) 
nan

>  <Num_Resolved_Atoms>  (127) 
nan

>  <Num_Not_Resolved_Atoms>  (127) 
nan

$$$$
CHEMBL4088016
     RDKit          3D

  0  0  0  0  0  0  0  0  0  0999 V3000
M  V30 BEGIN CTAB
M  V30 COUNTS 58 62 0 0 0
M  V30 BEGIN ATOM
M  V30 1 C 8.666961 0.063459 4.989676 0
M  V30 2 N 7.432116 -0.133107 4.239771 0
M  V30 3 C 7.056008 -1.394218 3.700958 0
M  V30 4 O 7.840475 -2.333244 3.901254 0
M  V30 5 C 5.823648 -1.628424 2.945682 0
M  V30 6 C 5.634529 -2.914896 2.503076 0
M  V30 7 C 4.475251 -3.215029 1.775145 0
M  V30 8 C 3.550836 -2.224303 1.515944 0
M  V30 9 C 3.776074 -0.926328 1.980291 0
M  V30 10 C 4.914445 -0.622453 2.697967 0
M  V30 11 C 2.951438 0.292854 1.838090 0
M  V30 12 O 3.471692 1.419395 2.045901 0
M  V30 13 C 1.541264 0.243402 1.462875 0
M  V30 14 C 1.036352 1.502682 1.268397 0
M  V30 15 C -0.264800 1.764838 0.912876 0
M  V30 16 C -1.087142 0.673124 0.750007 0
M  V30 17 N -2.436437 0.902889 0.371283 0
M  V30 18 C -3.623469 0.130147 0.242737 0
M  V30 19 C -4.287123 -0.014528 -0.976931 0
M  V30 20 C -5.445143 -0.755204 -1.065541 0
M  V30 21 C -6.185058 -0.956877 -2.321390 0
M  V30 22 O -7.275992 -1.583535 -2.311410 0
M  V30 23 N -5.723195 -0.473215 -3.560344 0
M  V30 24 C -6.467839 -0.682020 -4.782100 0
M  V30 25 C -5.751687 -0.941867 -6.057339 0
M  V30 26 C -6.309709 0.412753 -5.822994 0
M  V30 27 C -5.912154 -1.339254 0.089299 0
M  V30 28 C -5.303261 -1.230039 1.304113 0
M  V30 29 C -4.142450 -0.485274 1.385976 0
M  V30 30 F -3.568008 -0.401313 2.611824 0
M  V30 31 C -0.673522 -0.657174 0.924491 0
M  V30 32 C 0.670971 -0.840101 1.286850 0
M  V30 33 C 1.059087 -2.257037 1.450016 0
M  V30 34 C 2.347326 -2.590804 0.747820 0
M  V30 35 H 9.302295 0.758477 4.421592 0
M  V30 36 H 8.457300 0.515701 5.985407 0
M  V30 37 H 9.198437 -0.874294 5.179981 0
M  V30 38 H 6.805862 0.691147 4.097879 0
M  V30 39 H 6.266346 -3.777674 2.631920 0
M  V30 40 H 4.194900 -4.177274 1.365064 0
M  V30 41 H 5.084613 0.387398 3.057316 0
M  V30 42 H 1.685237 2.371421 1.396540 0
M  V30 43 H -0.649498 2.770742 0.759151 0
M  V30 44 H -2.753172 1.867378 0.092350 0
M  V30 45 H -3.893908 0.459982 -1.871782 0
M  V30 46 H -4.826445 0.053093 -3.632783 0
M  V30 47 H -7.453808 -1.161850 -4.659913 0
M  V30 48 H -6.244212 -1.589391 -6.804180 0
M  V30 49 H -4.637535 -1.008956 -6.073652 0
M  V30 50 H -7.219864 0.694114 -6.398007 0
M  V30 51 H -5.619321 1.260886 -5.631665 0
M  V30 52 H -6.828598 -1.926216 0.024388 0
M  V30 53 H -5.759160 -1.737026 2.161473 0
M  V30 54 H -1.303569 -1.504419 0.799167 0
M  V30 55 H 1.273431 -2.406694 2.544585 0
M  V30 56 H 0.214457 -2.897976 1.160544 0
M  V30 57 H 2.355819 -1.971489 -0.190019 0
M  V30 58 H 2.303513 -3.640231 0.427634 0
M  V30 END ATOM
M  V30 BEGIN BOND
M  V30 1 1 1 2
M  V30 2 1 2 3
M  V30 3 2 3 4
M  V30 4 1 3 5
M  V30 5 2 5 6
M  V30 6 1 6 7
M  V30 7 2 7 8
M  V30 8 1 8 9
M  V30 9 2 9 10
M  V30 10 1 9 11
M  V30 11 2 11 12
M  V30 12 1 11 13
M  V30 13 2 13 14
M  V30 14 1 14 15
M  V30 15 2 15 16
M  V30 16 1 16 17
M  V30 17 1 17 18
M  V30 18 2 18 19
M  V30 19 1 19 20
M  V30 20 1 20 21
M  V30 21 2 21 22
M  V30 22 1 21 23
M  V30 23 1 23 24
M  V30 24 1 24 25
M  V30 25 1 25 26
M  V30 26 2 20 27
M  V30 27 1 27 28
M  V30 28 2 28 29
M  V30 29 1 29 30
M  V30 30 1 16 31
M  V30 31 2 31 32
M  V30 32 1 32 33
M  V30 33 1 33 34
M  V30 34 1 10 5
M  V30 35 1 32 13
M  V30 36 1 34 8
M  V30 37 1 29 18
M  V30 38 1 26 24
M  V30 39 1 1 35
M  V30 40 1 1 36
M  V30 41 1 1 37
M  V30 42 1 2 38
M  V30 43 1 6 39
M  V30 44 1 7 40
M  V30 45 1 10 41
M  V30 46 1 14 42
M  V30 47 1 15 43
M  V30 48 1 17 44
M  V30 49 1 19 45
M  V30 50 1 23 46
M  V30 51 1 24 47
M  V30 52 1 25 48
M  V30 53 1 25 49
M  V30 54 1 26 50
M  V30 55 1 26 51
M  V30 56 1 27 52
M  V30 57 1 28 53
M  V30 58 1 31 54
M  V30 59 1 33 55
M  V30 60 1 33 56
M  V30 61 1 34 57
M  V30 62 1 34 58
M  V30 END BOND
M  V30 END CTAB
M  END
>  <Dataset>  (128) 
ChEMBL_Kinases

>  <Ligand_Instance>  (128) 
nan

>  <PDB_ID>  (128) 
nan

>  <Standardized_SMILES>  (128) 
CNC(=O)c1ccc2c(c1)C(=O)c1ccc(Nc3cc(C(=O)NC4CC4)ccc3F)cc1CC2

>  <Name>  (128) 
nan

>  <Pocket>  (128) 
nan

>  <ATP_Site>  (128) 
nan

>  <Peripheral>  (128) 
nan

>  <Num_H_Atoms_ProtBoundConf>  (128) 
nan

>  <Num_Resolved_Atoms>  (128) 
nan

>  <Num_Not_Resolved_Atoms>  (128) 
nan

$$$$
CHEMBL4087997
     RDKit          3D

  0  0  0  0  0  0  0  0  0  0999 V3000
M  V30 BEGIN CTAB
M  V30 COUNTS 66 68 0 0 0
M  V30 BEGIN ATOM
M  V30 1 C 2.900330 -0.763863 3.416810 0
M  V30 2 C 3.227768 -0.350815 1.996138 0
M  V30 3 N 3.316292 -1.446869 1.098499 0
M  V30 4 C 4.463905 -2.301999 1.352945 0
M  V30 5 C 5.703036 -1.505233 1.003520 0
M  V30 6 C 2.129377 -2.176524 0.824362 0
M  V30 7 C 1.180717 -1.283295 0.010967 0
M  V30 8 C 1.817835 -0.853895 -1.264196 0
M  V30 9 C 0.900740 -0.001668 -2.089589 0
M  V30 10 C 1.631367 0.405725 -3.366665 0
M  V30 11 N 0.379746 1.152782 -1.402622 0
M  V30 12 C -0.710526 1.245164 -0.497978 0
M  V30 13 N -1.507374 0.240255 -0.148206 0
M  V30 14 C -2.561045 0.283695 0.671488 0
M  V30 15 C -3.383155 -0.877914 0.997110 0
M  V30 16 C -3.163609 -2.073433 0.517680 0
M  V30 17 C -3.950441 -3.265647 0.808113 0
M  V30 18 C -5.042005 -3.245102 1.650030 0
M  V30 19 C -5.816113 -4.364836 1.948811 0
M  V30 20 C -5.466472 -5.571354 1.363622 0
M  V30 21 C -4.378474 -5.615444 0.518487 0
M  V30 22 C -3.629793 -4.477665 0.243861 0
M  V30 23 C -2.472192 -4.613696 -0.679464 0
M  V30 24 F -1.358846 -4.226965 0.072428 0
M  V30 25 F -2.260160 -5.922888 -1.039017 0
M  V30 26 F -2.531564 -3.771249 -1.761164 0
M  V30 27 N -2.839101 1.489770 1.198635 0
M  V30 28 C -2.107051 2.583608 0.921667 0
M  V30 29 C -2.463532 3.777868 1.506242 0
M  V30 30 C -1.747337 4.929148 1.256897 0
M  V30 31 C -0.669653 4.836548 0.406185 0
M  V30 32 N 0.044527 6.040143 0.171663 0
M  V30 33 C -0.348007 3.620881 -0.157270 0
M  V30 34 C -1.038958 2.453497 0.068594 0
M  V30 35 H 3.837622 -0.825877 4.032060 0
M  V30 36 H 2.308536 0.041869 3.881354 0
M  V30 37 H 2.335389 -1.693347 3.479824 0
M  V30 38 H 2.488326 0.373780 1.661423 0
M  V30 39 H 4.229087 0.141767 2.033376 0
M  V30 40 H 4.400197 -3.180089 0.699195 0
M  V30 41 H 4.528523 -2.625787 2.413271 0
M  V30 42 H 6.290451 -1.212529 1.901182 0
M  V30 43 H 5.460477 -0.573364 0.440590 0
M  V30 44 H 6.342051 -2.101302 0.304027 0
M  V30 45 H 1.542264 -2.437192 1.739519 0
M  V30 46 H 2.290373 -3.103712 0.255582 0
M  V30 47 H 0.991024 -0.419454 0.652689 0
M  V30 48 H 0.277281 -1.875693 -0.255728 0
M  V30 49 H 2.027549 -1.793461 -1.857356 0
M  V30 50 H 2.801414 -0.333615 -1.095249 0
M  V30 51 H 0.051730 -0.673672 -2.421206 0
M  V30 52 H 1.156100 -0.035148 -4.264611 0
M  V30 53 H 1.537229 1.514800 -3.507006 0
M  V30 54 H 2.700120 0.092991 -3.358350 0
M  V30 55 H 0.924722 1.974595 -1.650568 0
M  V30 56 H -4.216777 -0.739469 1.670010 0
M  V30 57 H -2.318918 -2.156738 -0.148905 0
M  V30 58 H -5.365797 -2.336899 2.137207 0
M  V30 59 H -6.668705 -4.310008 2.616304 0
M  V30 60 H -6.099502 -6.422099 1.625103 0
M  V30 61 H -4.142930 -6.582774 0.083027 0
M  V30 62 H -3.334990 3.778976 2.173949 0
M  V30 63 H -2.076991 5.830548 1.745074 0
M  V30 64 H -0.542130 6.856004 -0.168319 0
M  V30 65 H 1.056276 6.256771 0.278502 0
M  V30 66 H 0.496549 3.647096 -0.797318 0
M  V30 END ATOM
M  V30 BEGIN BOND
M  V30 1 1 1 2
M  V30 2 1 2 3
M  V30 3 1 3 4
M  V30 4 1 4 5
M  V30 5 1 3 6
M  V30 6 1 6 7
M  V30 7 1 7 8
M  V30 8 1 8 9
M  V30 9 1 9 10
M  V30 10 1 9 11
M  V30 11 1 11 12
M  V30 12 2 12 13
M  V30 13 1 13 14
M  V30 14 1 14 15
M  V30 15 2 15 16
M  V30 16 1 16 17
M  V30 17 2 17 18
M  V30 18 1 18 19
M  V30 19 2 19 20
M  V30 20 1 20 21
M  V30 21 2 21 22
M  V30 22 1 22 23
M  V30 23 1 23 24
M  V30 24 1 23 25
M  V30 25 1 23 26
M  V30 26 2 14 27
M  V30 27 1 27 28
M  V30 28 2 28 29
M  V30 29 1 29 30
M  V30 30 2 30 31
M  V30 31 1 31 32
M  V30 32 1 31 33
M  V30 33 2 33 34
M  V30 34 1 34 12
M  V30 35 1 22 17
M  V30 36 1 34 28
M  V30 37 1 1 35
M  V30 38 1 1 36
M  V30 39 1 1 37
M  V30 40 1 2 38
M  V30 41 1 2 39
M  V30 42 1 4 40
M  V30 43 1 4 41
M  V30 44 1 5 42
M  V30 45 1 5 43
M  V30 46 1 5 44
M  V30 47 1 6 45
M  V30 48 1 6 46
M  V30 49 1 7 47
M  V30 50 1 7 48
M  V30 51 1 8 49
M  V30 52 1 8 50
M  V30 53 1 9 51
M  V30 54 1 10 52
M  V30 55 1 10 53
M  V30 56 1 10 54
M  V30 57 1 11 55
M  V30 58 1 15 56
M  V30 59 1 16 57
M  V30 60 1 18 58
M  V30 61 1 19 59
M  V30 62 1 20 60
M  V30 63 1 21 61
M  V30 64 1 29 62
M  V30 65 1 30 63
M  V30 66 1 32 64
M  V30 67 1 32 65
M  V30 68 1 33 66
M  V30 END BOND
M  V30 END CTAB
M  END
>  <Dataset>  (129) 
ChEMBL_Kinases

>  <Ligand_Instance>  (129) 
nan

>  <PDB_ID>  (129) 
nan

>  <Standardized_SMILES>  (129) 
CCN(CC)CCCC(C)Nc1nc(/C=C/c2ccccc2C(F)(F)F)nc2ccc(N)cc12

>  <Name>  (129) 
nan

>  <Pocket>  (129) 
nan

>  <ATP_Site>  (129) 
nan

>  <Peripheral>  (129) 
nan

>  <Num_H_Atoms_ProtBoundConf>  (129) 
nan

>  <Num_Resolved_Atoms>  (129) 
nan

>  <Num_Not_Resolved_Atoms>  (129) 
nan

$$$$
CHEMBL4087974
     RDKit          3D

  0  0  0  0  0  0  0  0  0  0999 V3000
M  V30 BEGIN CTAB
M  V30 COUNTS 60 61 0 0 0
M  V30 BEGIN ATOM
M  V30 1 C -0.921629 0.390969 3.070141 0
M  V30 2 C 0.157861 1.477509 3.118940 0
M  V30 3 C 1.494766 0.803935 3.127942 0
M  V30 4 C 2.669484 1.715149 3.170059 0
M  V30 5 C 2.795858 2.662620 2.004809 0
M  V30 6 C 2.934089 1.979635 0.690876 0
M  V30 7 C 3.081682 2.990739 -0.408625 0
M  V30 8 C 1.922111 3.919542 -0.550762 0
M  V30 9 C 0.653643 3.151575 -0.860153 0
M  V30 10 C 0.767263 2.365746 -2.149160 0
M  V30 11 C -0.547486 1.624818 -2.390503 0
M  V30 12 C -0.836922 0.699779 -1.285948 0
M  V30 13 O -0.390428 0.271855 -0.170183 0
M  V30 14 N -2.059014 -0.006741 -1.485411 0
M  V30 15 N -2.510256 -0.947956 -0.524681 0
M  V30 16 C -1.979785 -2.211064 -0.872433 0
M  V30 17 O -1.265594 -2.166985 -1.916231 0
M  V30 18 C -2.131330 -3.503455 -0.227696 0
M  V30 19 C -1.476005 -4.565655 -0.823441 0
M  V30 20 O -0.696578 -4.474073 -1.978681 0
M  V30 21 C -1.588901 -5.833363 -0.242598 0
M  V30 22 C -0.935132 -6.907930 -0.832191 0
M  V30 23 C -1.007179 -8.168803 -0.312765 0
M  V30 24 Br -0.075608 -9.598914 -1.186011 0
M  V30 25 C -1.733381 -8.430747 0.821704 0
M  V30 26 C -2.376256 -7.376631 1.402293 0
M  V30 27 C -2.320077 -6.096520 0.899461 0
M  V30 28 N -2.932784 -5.032418 1.433040 0
M  V30 29 C -2.841821 -3.820205 0.902182 0
M  V30 30 O -3.446526 -2.884740 1.466524 0
M  V30 31 H -1.683087 0.641814 2.282906 0
M  V30 32 H -0.490343 -0.608433 2.839058 0
M  V30 33 H -1.448842 0.314255 4.040501 0
M  V30 34 H 0.017601 2.043357 4.072860 0
M  V30 35 H 0.030750 2.167622 2.281451 0
M  V30 36 H 1.526310 0.073096 2.294674 0
M  V30 37 H 1.532632 0.196159 4.066197 0
M  V30 38 H 2.523537 2.378647 4.069793 0
M  V30 39 H 3.575885 1.118689 3.288586 0
M  V30 40 H 1.915714 3.337493 1.984940 0
M  V30 41 H 3.703172 3.272149 2.190161 0
M  V30 42 H 3.840825 1.312730 0.663660 0
M  V30 43 H 2.068758 1.309595 0.476205 0
M  V30 44 H 3.240990 2.507305 -1.401289 0
M  V30 45 H 3.985549 3.638716 -0.258908 0
M  V30 46 H 1.771487 4.491237 0.367845 0
M  V30 47 H 2.081287 4.678001 -1.354958 0
M  V30 48 H -0.231865 3.816506 -0.901889 0
M  V30 49 H 0.476115 2.454236 -0.031835 0
M  V30 50 H 1.551582 1.592889 -2.085457 0
M  V30 51 H 1.015930 3.013680 -2.999956 0
M  V30 52 H -0.486702 1.058631 -3.336628 0
M  V30 53 H -1.388878 2.336798 -2.511099 0
M  V30 54 H -2.779629 0.012905 -2.266272 0
M  V30 55 H -3.107191 -0.926987 0.328688 0
M  V30 56 H -1.033780 -4.848062 -2.859858 0
M  V30 57 H -0.339279 -6.763836 -1.739846 0
M  V30 58 H -1.822752 -9.392593 1.267546 0
M  V30 59 H -2.994862 -7.419066 2.309191 0
M  V30 60 H -3.498304 -5.180169 2.298108 0
M  V30 END ATOM
M  V30 BEGIN BOND
M  V30 1 1 1 2
M  V30 2 1 2 3
M  V30 3 1 3 4
M  V30 4 1 4 5
M  V30 5 1 5 6
M  V30 6 1 6 7
M  V30 7 1 7 8
M  V30 8 1 8 9
M  V30 9 1 9 10
M  V30 10 1 10 11
M  V30 11 1 11 12
M  V30 12 2 12 13
M  V30 13 1 12 14
M  V30 14 1 14 15
M  V30 15 1 15 16
M  V30 16 2 16 17
M  V30 17 1 16 18
M  V30 18 2 18 19
M  V30 19 1 19 20
M  V30 20 1 19 21
M  V30 21 2 21 22
M  V30 22 1 22 23
M  V30 23 1 23 24
M  V30 24 2 23 25
M  V30 25 1 25 26
M  V30 26 2 26 27
M  V30 27 1 27 28
M  V30 28 1 28 29
M  V30 29 2 29 30
M  V30 30 1 29 18
M  V30 31 1 27 21
M  V30 32 1 1 31
M  V30 33 1 1 32
M  V30 34 1 1 33
M  V30 35 1 2 34
M  V30 36 1 2 35
M  V30 37 1 3 36
M  V30 38 1 3 37
M  V30 39 1 4 38
M  V30 40 1 4 39
M  V30 41 1 5 40
M  V30 42 1 5 41
M  V30 43 1 6 42
M  V30 44 1 6 43
M  V30 45 1 7 44
M  V30 46 1 7 45
M  V30 47 1 8 46
M  V30 48 1 8 47
M  V30 49 1 9 48
M  V30 50 1 9 49
M  V30 51 1 10 50
M  V30 52 1 10 51
M  V30 53 1 11 52
M  V30 54 1 11 53
M  V30 55 1 14 54
M  V30 56 1 15 55
M  V30 57 1 20 56
M  V30 58 1 22 57
M  V30 59 1 25 58
M  V30 60 1 26 59
M  V30 61 1 28 60
M  V30 END BOND
M  V30 END CTAB
M  END
>  <Dataset>  (130) 
ChEMBL_Kinases

>  <Ligand_Instance>  (130) 
nan

>  <PDB_ID>  (130) 
nan

>  <Standardized_SMILES>  (130) 
CCCCCCCCCCCC(=O)NNC(=O)c1c(O)c2cc(Br)ccc2[nH]c1=O

>  <Name>  (130) 
nan

>  <Pocket>  (130) 
nan

>  <ATP_Site>  (130) 
nan

>  <Peripheral>  (130) 
nan

>  <Num_H_Atoms_ProtBoundConf>  (130) 
nan

>  <Num_Resolved_Atoms>  (130) 
nan

>  <Num_Not_Resolved_Atoms>  (130) 
nan

$$$$
CHEMBL4847260
     RDKit          3D

  0  0  0  0  0  0  0  0  0  0999 V3000
M  V30 BEGIN CTAB
M  V30 COUNTS 72 76 0 0 0
M  V30 BEGIN ATOM
M  V30 1 C 4.730922 -0.877983 6.689221 0
M  V30 2 O 4.300542 -0.141566 5.583404 0
M  V30 3 C 4.703605 -0.357080 4.272664 0
M  V30 4 C 5.601213 -1.354880 3.915448 0
M  V30 5 C 5.969189 -1.524206 2.583257 0
M  V30 6 F 6.847821 -2.499214 2.225498 0
M  V30 7 C 5.409989 -0.669715 1.654091 0
M  V30 8 C 4.515739 0.336470 1.950072 0
M  V30 9 C 3.937771 1.234814 0.916452 0 CFG=1
M  V30 10 C 4.213174 0.655773 -0.454650 0
M  V30 11 O 3.635644 1.485943 -1.428463 0
M  V30 12 N 2.529969 1.335586 1.182093 0
M  V30 13 C 1.933193 2.567925 1.556519 0
M  V30 14 O 2.648963 3.609542 1.663106 0
M  V30 15 C 0.473587 2.794376 1.857732 0 CFG=1
M  V30 16 C -0.005874 3.918030 1.000914 0
M  V30 17 N -0.304381 1.584938 1.678917 0
M  V30 18 C -1.025291 0.854929 2.676778 0
M  V30 19 C -1.621976 -0.296172 1.948653 0
M  V30 20 C -2.414426 -1.321989 2.439718 0
M  V30 21 C -2.855134 -2.285838 1.555698 0
M  V30 22 C -2.565442 -2.311420 0.198231 0
M  V30 23 C -3.062747 -3.366192 -0.675745 0
M  V30 24 N -3.626118 -3.173970 -1.875760 0
M  V30 25 C -4.087043 -4.124468 -2.694520 0
M  V30 26 N -4.683353 -3.852269 -3.967155 0
M  V30 27 C -4.906004 -2.556433 -4.592205 0
M  V30 28 C -5.810303 -1.651746 -3.846399 0
M  V30 29 C -5.169644 -0.515956 -3.144779 0
M  V30 30 O -4.150847 0.101790 -3.814005 0
M  V30 31 C -3.149503 -0.769110 -4.223051 0
M  V30 32 C -3.657769 -1.902084 -5.040389 0
M  V30 33 N -3.963676 -5.383373 -2.253125 0
M  V30 34 C -3.408271 -5.635885 -1.061130 0
M  V30 35 C -2.935014 -4.660256 -0.220238 0
M  V30 36 Cl -2.231202 -5.151607 1.306355 0
M  V30 37 C -1.773355 -1.261377 -0.219832 0
M  V30 38 C -1.294850 -0.262141 0.600981 0
M  V30 39 C -0.462814 0.919949 0.411271 0
M  V30 40 O -0.008871 1.212433 -0.738122 0
M  V30 41 C 4.196188 0.446960 3.287597 0
M  V30 42 H 4.783850 -0.158870 7.555490 0
M  V30 43 H 4.045114 -1.708466 6.977423 0
M  V30 44 H 5.786411 -1.236911 6.553945 0
M  V30 45 H 6.014953 -2.001722 4.676433 0
M  V30 46 H 5.720985 -0.836870 0.646975 0
M  V30 47 H 4.411154 2.224296 1.050980 0
M  V30 48 H 3.796593 -0.367634 -0.490728 0
M  V30 49 H 5.312533 0.703760 -0.625427 0
M  V30 50 H 3.225810 0.891855 -2.106919 0
M  V30 51 H 1.885666 0.518332 1.115251 0
M  V30 52 H 0.414829 3.090072 2.946450 0
M  V30 53 H -1.103447 3.843511 0.884426 0
M  V30 54 H 0.503690 3.944836 0.027619 0
M  V30 55 H 0.267590 4.882954 1.511459 0
M  V30 56 H -1.832928 1.514478 3.049531 0
M  V30 57 H -0.403213 0.527794 3.531908 0
M  V30 58 H -2.664061 -1.341824 3.486929 0
M  V30 59 H -3.469188 -3.051750 2.009035 0
M  V30 60 H -4.985673 -4.738621 -4.486247 0
M  V30 61 H -5.466980 -2.828965 -5.550367 0
M  V30 62 H -6.540391 -1.189620 -4.585680 0
M  V30 63 H -6.455252 -2.196258 -3.103913 0
M  V30 64 H -5.976195 0.281320 -3.031189 0
M  V30 65 H -4.925327 -0.761485 -2.086198 0
M  V30 66 H -2.472866 -0.149485 -4.882725 0
M  V30 67 H -2.502171 -1.136564 -3.427805 0
M  V30 68 H -2.803088 -2.628586 -5.138967 0
M  V30 69 H -3.810763 -1.502912 -6.086599 0
M  V30 70 H -3.338344 -6.684731 -0.761577 0
M  V30 71 H -1.499656 -1.205901 -1.261410 0
M  V30 72 H 3.489039 1.233308 3.567423 0
M  V30 END ATOM
M  V30 BEGIN BOND
M  V30 1 1 1 2
M  V30 2 1 2 3
M  V30 3 2 3 4
M  V30 4 1 4 5
M  V30 5 1 5 6
M  V30 6 2 5 7
M  V30 7 1 7 8
M  V30 8 1 8 9
M  V30 9 1 9 10
M  V30 10 1 10 11
M  V30 11 1 9 12
M  V30 12 1 12 13
M  V30 13 2 13 14
M  V30 14 1 13 15
M  V30 15 1 15 16
M  V30 16 1 15 17
M  V30 17 1 17 18
M  V30 18 1 18 19
M  V30 19 2 19 20
M  V30 20 1 20 21
M  V30 21 2 21 22
M  V30 22 1 22 23
M  V30 23 2 23 24
M  V30 24 1 24 25
M  V30 25 1 25 26
M  V30 26 1 26 27
M  V30 27 1 27 28
M  V30 28 1 28 29
M  V30 29 1 29 30
M  V30 30 1 30 31
M  V30 31 1 31 32
M  V30 32 2 25 33
M  V30 33 1 33 34
M  V30 34 2 34 35
M  V30 35 1 35 36
M  V30 36 1 22 37
M  V30 37 2 37 38
M  V30 38 1 38 39
M  V30 39 2 39 40
M  V30 40 2 8 41
M  V30 41 1 41 3
M  V30 42 1 39 17
M  V30 43 1 38 19
M  V30 44 1 35 23
M  V30 45 1 32 27
M  V30 46 1 1 42
M  V30 47 1 1 43
M  V30 48 1 1 44
M  V30 49 1 4 45
M  V30 50 1 7 46
M  V30 51 1 9 47 CFG=3
M  V30 52 1 10 48
M  V30 53 1 10 49
M  V30 54 1 11 50
M  V30 55 1 12 51
M  V30 56 1 15 52 CFG=1
M  V30 57 1 16 53
M  V30 58 1 16 54
M  V30 59 1 16 55
M  V30 60 1 18 56
M  V30 61 1 18 57
M  V30 62 1 20 58
M  V30 63 1 21 59
M  V30 64 1 26 60
M  V30 65 1 27 61
M  V30 66 1 28 62
M  V30 67 1 28 63
M  V30 68 1 29 64
M  V30 69 1 29 65
M  V30 70 1 31 66
M  V30 71 1 31 67
M  V30 72 1 32 68
M  V30 73 1 32 69
M  V30 74 1 34 70
M  V30 75 1 37 71
M  V30 76 1 41 72
M  V30 END BOND
M  V30 END CTAB
M  END
>  <Dataset>  (131) 
ChEMBL_Kinases

>  <Ligand_Instance>  (131) 
nan

>  <PDB_ID>  (131) 
nan

>  <Standardized_SMILES>  (131) 
COc1cc(F)cc([C@@H](CO)NC(=O)[C@@H](C)N2Cc3ccc(-c4nc(NC5CCOCC5)ncc4Cl)cc3C2=O)c1

>  <Name>  (131) 
nan

>  <Pocket>  (131) 
nan

>  <ATP_Site>  (131) 
nan

>  <Peripheral>  (131) 
nan

>  <Num_H_Atoms_ProtBoundConf>  (131) 
nan

>  <Num_Resolved_Atoms>  (131) 
nan

>  <Num_Not_Resolved_Atoms>  (131) 
nan

$$$$
CHEMBL4087906
     RDKit          3D

  0  0  0  0  0  0  0  0  0  0999 V3000
M  V30 BEGIN CTAB
M  V30 COUNTS 50 54 0 0 0
M  V30 BEGIN ATOM
M  V30 1 O 0.000787 -1.091661 -0.432430 0
M  V30 2 C -0.453550 -0.190558 -1.215760 0
M  V30 3 C 0.356173 1.001575 -1.576594 0
M  V30 4 N 1.615564 0.872376 -0.890197 0
M  V30 5 C 2.505287 -0.187828 -1.314379 0
M  V30 6 C 3.956194 0.192253 -1.131129 0
M  V30 7 C 4.241659 0.665703 0.274152 0
M  V30 8 C 3.239379 1.660535 0.740524 0
M  V30 9 C 2.027559 1.739116 0.186269 0
M  V30 10 C 1.274213 2.804540 0.852327 0
M  V30 11 O 0.089608 3.205060 0.631535 0
M  V30 12 N 2.098082 3.392219 1.866598 0
M  V30 13 C 1.727723 4.488863 2.761289 0
M  V30 14 C 2.751383 5.214263 3.509514 0
M  V30 15 C 2.005513 4.175012 4.265234 0
M  V30 16 C 3.316589 2.670800 1.785118 0
M  V30 17 O 4.331208 2.868753 2.512129 0
M  V30 18 N -1.773610 -0.468537 -1.672238 0
M  V30 19 C -2.193111 -1.717305 -1.085645 0
M  V30 20 C -1.965314 -2.958903 -1.691068 0
M  V30 21 C -2.452354 -4.043347 -0.959572 0
M  V30 22 C -3.100841 -3.913808 0.251530 0
M  V30 23 C -3.595511 -5.073017 0.984533 0
M  V30 24 C -3.474118 -6.379320 0.566411 0
M  V30 25 C -3.973929 -7.446049 1.320487 0
M  V30 26 C -4.612866 -7.175485 2.529719 0
M  V30 27 N -4.731801 -5.890510 2.940151 0
M  V30 28 C -4.238555 -4.879139 2.189847 0
M  V30 29 N -3.279631 -2.661379 0.769247 0
M  V30 30 N -2.825147 -1.594531 0.094577 0
M  V30 31 H 0.500717 1.042484 -2.676351 0
M  V30 32 H -0.211941 1.896411 -1.274405 0
M  V30 33 H 2.358744 -0.378276 -2.397046 0
M  V30 34 H 2.317059 -1.099883 -0.746545 0
M  V30 35 H 4.288709 0.971057 -1.844399 0
M  V30 36 H 4.580909 -0.704574 -1.313796 0
M  V30 37 H 4.332493 -0.179902 0.990096 0
M  V30 38 H 5.219450 1.184876 0.257365 0
M  V30 39 H 0.715099 4.867774 2.603101 0
M  V30 40 H 2.544117 6.291030 3.721317 0
M  V30 41 H 3.817740 5.004678 3.331281 0
M  V30 42 H 1.277604 4.577279 5.001259 0
M  V30 43 H 2.449784 3.197416 4.485417 0
M  V30 44 H -2.178406 0.264265 -2.326701 0
M  V30 45 H -1.460317 -2.994310 -2.625297 0
M  V30 46 H -2.280250 -5.000375 -1.420298 0
M  V30 47 H -2.981215 -6.579181 -0.365393 0
M  V30 48 H -3.871966 -8.464262 0.980498 0
M  V30 49 H -5.023178 -7.954938 3.162651 0
M  V30 50 H -4.360216 -3.862694 2.564334 0
M  V30 END ATOM
M  V30 BEGIN BOND
M  V30 1 2 1 2
M  V30 2 1 2 3
M  V30 3 1 3 4
M  V30 4 1 4 5
M  V30 5 1 5 6
M  V30 6 1 6 7
M  V30 7 1 7 8
M  V30 8 2 8 9
M  V30 9 1 9 10
M  V30 10 2 10 11
M  V30 11 1 10 12
M  V30 12 1 12 13
M  V30 13 1 13 14
M  V30 14 1 14 15
M  V30 15 1 12 16
M  V30 16 2 16 17
M  V30 17 1 2 18
M  V30 18 1 18 19
M  V30 19 2 19 20
M  V30 20 1 20 21
M  V30 21 2 21 22
M  V30 22 1 22 23
M  V30 23 2 23 24
M  V30 24 1 24 25
M  V30 25 2 25 26
M  V30 26 1 26 27
M  V30 27 2 27 28
M  V30 28 1 22 29
M  V30 29 2 29 30
M  V30 30 1 9 4
M  V30 31 1 15 13
M  V30 32 1 30 19
M  V30 33 1 16 8
M  V30 34 1 28 23
M  V30 35 1 3 31
M  V30 36 1 3 32
M  V30 37 1 5 33
M  V30 38 1 5 34
M  V30 39 1 6 35
M  V30 40 1 6 36
M  V30 41 1 7 37
M  V30 42 1 7 38
M  V30 43 1 13 39
M  V30 44 1 14 40
M  V30 45 1 14 41
M  V30 46 1 15 42
M  V30 47 1 15 43
M  V30 48 1 18 44
M  V30 49 1 20 45
M  V30 50 1 21 46
M  V30 51 1 24 47
M  V30 52 1 25 48
M  V30 53 1 26 49
M  V30 54 1 28 50
M  V30 END BOND
M  V30 END CTAB
M  END
>  <Dataset>  (132) 
ChEMBL_Kinases

>  <Ligand_Instance>  (132) 
nan

>  <PDB_ID>  (132) 
nan

>  <Standardized_SMILES>  (132) 
O=C(CN1CCCC2=C1C(=O)N(C1CC1)C2=O)Nc1ccc(-c2cccnc2)nn1

>  <Name>  (132) 
nan

>  <Pocket>  (132) 
nan

>  <ATP_Site>  (132) 
nan

>  <Peripheral>  (132) 
nan

>  <Num_H_Atoms_ProtBoundConf>  (132) 
nan

>  <Num_Resolved_Atoms>  (132) 
nan

>  <Num_Not_Resolved_Atoms>  (132) 
nan

$$$$
CHEMBL4087859
     RDKit          3D

  0  0  0  0  0  0  0  0  0  0999 V3000
M  V30 BEGIN CTAB
M  V30 COUNTS 51 54 0 0 0
M  V30 BEGIN ATOM
M  V30 1 C 0.237419 -2.131530 5.264907 0
M  V30 2 N 1.580382 -1.619587 5.007910 0
M  V30 3 C 1.842517 -0.431794 4.420242 0
M  V30 4 C 3.201636 -0.238210 4.320405 0
M  V30 5 C 4.111956 0.766050 3.814711 0
M  V30 6 C 5.173150 1.182199 4.625632 0
M  V30 7 C 6.123389 2.139725 4.289947 0
M  V30 8 N 5.994584 2.697618 3.087011 0
M  V30 9 C 4.992474 2.335021 2.265619 0
M  V30 10 C 4.048866 1.390563 2.586934 0
M  V30 11 C 2.983520 1.009350 1.681077 0
M  V30 12 C 2.777744 1.507665 0.486126 0
M  V30 13 C 1.731772 1.165124 -0.459840 0
M  V30 14 O 1.586623 1.681066 -1.597372 0
M  V30 15 N 0.745683 0.184186 -0.176784 0
M  V30 16 C -0.325789 -0.243523 -1.010334 0
M  V30 17 C -0.181225 -1.289670 -1.898841 0
M  V30 18 C -1.188247 -1.730399 -2.716383 0
M  V30 19 C -2.433724 -1.118666 -2.678637 0
M  V30 20 C -3.490431 -1.640161 -3.589202 0
M  V30 21 N -4.284016 -2.685546 -3.015959 0
M  V30 22 C -5.016987 -2.379261 -1.827227 0
M  V30 23 C -6.197144 -3.184730 -2.386645 0
M  V30 24 F -6.099573 -4.523059 -2.128228 0
M  V30 25 F -7.393951 -2.581775 -2.138579 0
M  V30 26 C -5.555075 -2.794789 -3.708656 0
M  V30 27 C -2.624617 -0.059855 -1.797964 0
M  V30 28 C -1.573694 0.344334 -0.995306 0
M  V30 29 C 3.754097 -1.393222 4.889637 0
M  V30 30 N 2.725086 -2.192729 5.287791 0
M  V30 31 H -0.041573 -2.864938 4.473355 0
M  V30 32 H -0.511719 -1.325943 5.232799 0
M  V30 33 H 0.252156 -2.681535 6.221879 0
M  V30 34 H 1.184392 0.331849 4.048700 0
M  V30 35 H 5.261766 0.715583 5.603506 0
M  V30 36 H 6.897644 2.369552 5.015436 0
M  V30 37 H 4.989824 2.850715 1.325585 0
M  V30 38 H 2.255375 0.256188 1.931294 0
M  V30 39 H 3.464458 2.283496 0.125168 0
M  V30 40 H 0.729207 -0.334665 0.726463 0
M  V30 41 H 0.781089 -1.789614 -1.952899 0
M  V30 42 H -0.992992 -2.562681 -3.390006 0
M  V30 43 H -4.193308 -0.825930 -3.904512 0
M  V30 44 H -2.993822 -2.018899 -4.493345 0
M  V30 45 H -5.261522 -1.308279 -1.709521 0
M  V30 46 H -4.706585 -2.849230 -0.883203 0
M  V30 47 H -5.955648 -1.809501 -4.027438 0
M  V30 48 H -5.584274 -3.598670 -4.476880 0
M  V30 49 H -3.594110 0.415044 -1.769907 0
M  V30 50 H -1.765483 1.175287 -0.321417 0
M  V30 51 H 4.786404 -1.718933 5.047612 0
M  V30 END ATOM
M  V30 BEGIN BOND
M  V30 1 1 1 2
M  V30 2 1 2 3
M  V30 3 2 3 4
M  V30 4 1 4 5
M  V30 5 2 5 6
M  V30 6 1 6 7
M  V30 7 2 7 8
M  V30 8 1 8 9
M  V30 9 2 9 10
M  V30 10 1 10 11
M  V30 11 2 11 12
M  V30 12 1 12 13
M  V30 13 2 13 14
M  V30 14 1 13 15
M  V30 15 1 15 16
M  V30 16 2 16 17
M  V30 17 1 17 18
M  V30 18 2 18 19
M  V30 19 1 19 20
M  V30 20 1 20 21
M  V30 21 1 21 22
M  V30 22 1 22 23
M  V30 23 1 23 24
M  V30 24 1 23 25
M  V30 25 1 23 26
M  V30 26 1 19 27
M  V30 27 2 27 28
M  V30 28 1 4 29
M  V30 29 2 29 30
M  V30 30 1 30 2
M  V30 31 1 10 5
M  V30 32 1 28 16
M  V30 33 1 26 21
M  V30 34 1 1 31
M  V30 35 1 1 32
M  V30 36 1 1 33
M  V30 37 1 3 34
M  V30 38 1 6 35
M  V30 39 1 7 36
M  V30 40 1 9 37
M  V30 41 1 11 38
M  V30 42 1 12 39
M  V30 43 1 15 40
M  V30 44 1 17 41
M  V30 45 1 18 42
M  V30 46 1 20 43
M  V30 47 1 20 44
M  V30 48 1 22 45
M  V30 49 1 22 46
M  V30 50 1 26 47
M  V30 51 1 26 48
M  V30 52 1 27 49
M  V30 53 1 28 50
M  V30 54 1 29 51
M  V30 END BOND
M  V30 END CTAB
M  END
>  <Dataset>  (133) 
ChEMBL_Kinases

>  <Ligand_Instance>  (133) 
nan

>  <PDB_ID>  (133) 
nan

>  <Standardized_SMILES>  (133) 
Cn1cc(-c2ccncc2/C=C/C(=O)Nc2ccc(CN3CC(F)(F)C3)cc2)cn1

>  <Name>  (133) 
nan

>  <Pocket>  (133) 
nan

>  <ATP_Site>  (133) 
nan

>  <Peripheral>  (133) 
nan

>  <Num_H_Atoms_ProtBoundConf>  (133) 
nan

>  <Num_Resolved_Atoms>  (133) 
nan

>  <Num_Not_Resolved_Atoms>  (133) 
nan

$$$$
CHEMBL4847064
     RDKit          3D

  0  0  0  0  0  0  0  0  0  0999 V3000
M  V30 BEGIN CTAB
M  V30 COUNTS 51 55 0 0 0
M  V30 BEGIN ATOM
M  V30 1 C 6.903160 -3.342176 4.540587 0
M  V30 2 S 7.220348 -2.574108 2.970823 0
M  V30 3 O 7.979036 -1.281633 3.153831 0
M  V30 4 O 8.018866 -3.530198 2.144164 0
M  V30 5 C 5.708294 -2.276787 2.119230 0
M  V30 6 C 5.117814 -1.041788 2.361129 0
M  V30 7 C 3.913225 -0.679739 1.747347 0
M  V30 8 C 3.297525 -1.576568 0.878296 0
M  V30 9 C 2.041222 -1.242012 0.215095 0
M  V30 10 C 1.047948 -0.440926 0.741005 0
M  V30 11 C -0.115932 -0.176240 0.038880 0
M  V30 12 C -0.231937 -0.752266 -1.208655 0
M  V30 13 C -1.401918 -0.461991 -1.877642 0
M  V30 14 N -2.489493 0.339175 -1.454780 0
M  V30 15 C -3.356272 0.163552 -0.344026 0
M  V30 16 C -3.361344 -0.938872 0.479894 0
M  V30 17 C -4.234254 -1.037106 1.541732 0
M  V30 18 N -5.078991 -0.012224 1.738393 0
M  V30 19 C -5.123609 1.086122 0.973949 0
M  V30 20 C -6.060597 2.162677 1.237283 0
M  V30 21 C -6.150522 3.290784 0.501524 0
M  V30 22 C -7.023402 4.252554 0.778332 0
M  V30 23 S -7.944148 3.683094 2.246859 0
M  V30 24 C -6.978186 2.078800 2.341554 0
M  V30 25 C -4.247291 1.171116 -0.082063 0
M  V30 26 C -1.515183 -1.043090 -3.147325 0
M  V30 27 C -0.562865 -1.851479 -3.732810 0
M  V30 28 N 0.546878 -2.076386 -2.996794 0
M  V30 29 C 0.735936 -1.557549 -1.770361 0
M  V30 30 C 1.890078 -1.810331 -1.055386 0
M  V30 31 C 3.917041 -2.792104 0.665706 0
M  V30 32 C 5.103299 -3.169926 1.259225 0
M  V30 33 H 7.391145 -4.327634 4.649931 0
M  V30 34 H 5.792953 -3.430720 4.665348 0
M  V30 35 H 7.233510 -2.631336 5.337764 0
M  V30 36 H 5.554117 -0.312057 3.025200 0
M  V30 37 H 3.466640 0.301502 1.954698 0
M  V30 38 H 1.247625 -0.042454 1.730027 0
M  V30 39 H -0.869740 0.455780 0.469191 0
M  V30 40 H -2.582408 1.135649 -2.109981 0
M  V30 41 H -2.659736 -1.736627 0.277254 0
M  V30 42 H -4.273406 -1.879601 2.211045 0
M  V30 43 H -5.547845 3.527109 -0.358644 0
M  V30 44 H -7.320038 5.204058 0.408364 0
M  V30 45 H -7.049359 1.215798 3.063447 0
M  V30 46 H -4.257745 2.028693 -0.706747 0
M  V30 47 H -2.401951 -0.866415 -3.740951 0
M  V30 48 H -0.702855 -2.267766 -4.705190 0
M  V30 49 H 2.610695 -2.448140 -1.548144 0
M  V30 50 H 3.455818 -3.504149 -0.006007 0
M  V30 51 H 5.595558 -4.110775 1.103060 0
M  V30 END ATOM
M  V30 BEGIN BOND
M  V30 1 1 1 2
M  V30 2 2 2 3
M  V30 3 2 2 4
M  V30 4 1 2 5
M  V30 5 2 5 6
M  V30 6 1 6 7
M  V30 7 2 7 8
M  V30 8 1 8 9
M  V30 9 2 9 10
M  V30 10 1 10 11
M  V30 11 2 11 12
M  V30 12 1 12 13
M  V30 13 1 13 14
M  V30 14 1 14 15
M  V30 15 2 15 16
M  V30 16 1 16 17
M  V30 17 2 17 18
M  V30 18 1 18 19
M  V30 19 1 19 20
M  V30 20 1 20 21
M  V30 21 2 21 22
M  V30 22 1 22 23
M  V30 23 1 23 24
M  V30 24 2 19 25
M  V30 25 2 13 26
M  V30 26 1 26 27
M  V30 27 2 27 28
M  V30 28 1 28 29
M  V30 29 2 29 30
M  V30 30 1 8 31
M  V30 31 2 31 32
M  V30 32 1 32 5
M  V30 33 1 30 9
M  V30 34 1 29 12
M  V30 35 1 25 15
M  V30 36 2 24 20
M  V30 37 1 1 33
M  V30 38 1 1 34
M  V30 39 1 1 35
M  V30 40 1 6 36
M  V30 41 1 7 37
M  V30 42 1 10 38
M  V30 43 1 11 39
M  V30 44 1 14 40
M  V30 45 1 16 41
M  V30 46 1 17 42
M  V30 47 1 21 43
M  V30 48 1 22 44
M  V30 49 1 24 45
M  V30 50 1 25 46
M  V30 51 1 26 47
M  V30 52 1 27 48
M  V30 53 1 30 49
M  V30 54 1 31 50
M  V30 55 1 32 51
M  V30 END BOND
M  V30 END CTAB
M  END
>  <Dataset>  (134) 
ChEMBL_Kinases

>  <Ligand_Instance>  (134) 
nan

>  <PDB_ID>  (134) 
nan

>  <Standardized_SMILES>  (134) 
CS(=O)(=O)c1ccc(-c2ccc3c(Nc4ccnc(-c5ccsc5)c4)ccnc3c2)cc1

>  <Name>  (134) 
nan

>  <Pocket>  (134) 
nan

>  <ATP_Site>  (134) 
nan

>  <Peripheral>  (134) 
nan

>  <Num_H_Atoms_ProtBoundConf>  (134) 
nan

>  <Num_Resolved_Atoms>  (134) 
nan

>  <Num_Not_Resolved_Atoms>  (134) 
nan

$$$$
CHEMBL4087837
     RDKit          3D

  0  0  0  0  0  0  0  0  0  0999 V3000
M  V30 BEGIN CTAB
M  V30 COUNTS 70 73 0 0 0
M  V30 BEGIN ATOM
M  V30 1 C 2.250126 -3.172961 5.012606 0
M  V30 2 C 2.665503 -2.032783 4.172278 0
M  V30 3 C 3.940901 -1.572247 3.933082 0
M  V30 4 C 4.168203 -0.479497 3.108959 0
M  V30 5 C 3.125958 0.190322 2.495184 0
M  V30 6 C 3.521627 1.316326 1.664343 0
M  V30 7 O 4.723917 1.627013 1.558458 0
M  V30 8 N 2.495082 2.030118 0.994177 0
M  V30 9 C 2.413547 3.145845 0.119489 0
M  V30 10 C 2.499790 2.943958 -1.260230 0
M  V30 11 C 2.422723 3.990880 -2.162283 0
M  V30 12 C 2.254703 5.275644 -1.676193 0
M  V30 13 Cl 2.152645 6.623753 -2.801241 0
M  V30 14 C 2.168693 5.490799 -0.335604 0
M  V30 15 C 1.982164 6.881496 0.187717 0
M  V30 16 F 3.008454 7.725829 -0.170393 0
M  V30 17 F 0.796956 7.410284 -0.295126 0
M  V30 18 F 1.902923 6.875668 1.573202 0
M  V30 19 C 2.243853 4.457587 0.580510 0
M  V30 20 C 1.863410 -0.276673 2.740680 0
M  V30 21 C 1.612997 -1.377133 3.568717 0
M  V30 22 N 0.206020 -1.645899 3.648129 0
M  V30 23 C -0.153796 -2.561773 2.641481 0
M  V30 24 O 0.716827 -3.032415 1.828521 0
M  V30 25 C -1.439630 -3.184783 2.246046 0
M  V30 26 C -1.386322 -3.936775 0.971490 0
M  V30 27 C -2.285476 -3.846992 -0.061238 0
M  V30 28 C -2.168261 -4.587933 -1.209944 0
M  V30 29 N -3.023244 -4.560361 -2.342586 0
M  V30 30 C -2.495505 -3.796396 -3.445654 0
M  V30 31 C -2.340557 -2.358950 -3.034188 0
M  V30 32 C -3.636685 -1.718890 -2.660310 0
M  V30 33 N -3.357597 -0.332671 -2.271058 0
M  V30 34 C -4.563471 0.339404 -1.893173 0
M  V30 35 C -2.625499 0.352116 -3.319261 0
M  V30 36 N -1.115157 -5.441080 -1.315149 0
M  V30 37 C -0.221122 -5.550099 -0.322988 0
M  V30 38 N -0.364636 -4.816252 0.777352 0
M  V30 39 C -2.730750 -2.469159 2.496697 0
M  V30 40 C -2.371600 -3.637108 3.341491 0
M  V30 41 H 3.167255 -3.636235 5.432048 0
M  V30 42 H 1.629382 -2.891564 5.885728 0
M  V30 43 H 1.784458 -3.992297 4.401676 0
M  V30 44 H 4.720991 -2.118701 4.426750 0
M  V30 45 H 5.202621 -0.216388 3.001005 0
M  V30 46 H 1.468509 1.858045 1.011524 0
M  V30 47 H 2.631797 1.940721 -1.648410 0
M  V30 48 H 2.489368 3.842964 -3.236952 0
M  V30 49 H 2.177813 4.600938 1.667269 0
M  V30 50 H 1.081251 0.296284 2.225243 0
M  V30 51 H -0.635803 -1.386395 4.205953 0
M  V30 52 H -3.101405 -3.184930 0.030705 0
M  V30 53 H -3.952091 -5.057994 -2.356058 0
M  V30 54 H -1.489059 -4.158758 -3.762896 0
M  V30 55 H -3.147017 -3.845342 -4.343768 0
M  V30 56 H -1.856510 -1.849726 -3.913833 0
M  V30 57 H -1.681540 -2.302502 -2.139605 0
M  V30 58 H -4.149114 -2.193206 -1.813045 0
M  V30 59 H -4.375699 -1.743757 -3.498606 0
M  V30 60 H -5.299197 -0.395674 -1.550136 0
M  V30 61 H -4.310581 1.034222 -1.056535 0
M  V30 62 H -4.968895 0.990849 -2.692593 0
M  V30 63 H -1.538626 0.118715 -3.187079 0
M  V30 64 H -2.948993 0.026907 -4.331032 0
M  V30 65 H -2.740960 1.443569 -3.177647 0
M  V30 66 H 0.612673 -6.208975 -0.377904 0
M  V30 67 H -2.588448 -1.424490 2.904992 0
M  V30 68 H -3.603018 -2.530498 1.856105 0
M  V30 69 H -2.139540 -3.395266 4.380543 0
M  V30 70 H -3.015566 -4.543049 3.191071 0
M  V30 END ATOM
M  V30 BEGIN BOND
M  V30 1 1 1 2
M  V30 2 2 2 3
M  V30 3 1 3 4
M  V30 4 2 4 5
M  V30 5 1 5 6
M  V30 6 2 6 7
M  V30 7 1 6 8
M  V30 8 1 8 9
M  V30 9 2 9 10
M  V30 10 1 10 11
M  V30 11 2 11 12
M  V30 12 1 12 13
M  V30 13 1 12 14
M  V30 14 1 14 15
M  V30 15 1 15 16
M  V30 16 1 15 17
M  V30 17 1 15 18
M  V30 18 2 14 19
M  V30 19 1 5 20
M  V30 20 2 20 21
M  V30 21 1 21 22
M  V30 22 1 22 23
M  V30 23 2 23 24
M  V30 24 1 23 25
M  V30 25 1 25 26
M  V30 26 2 26 27
M  V30 27 1 27 28
M  V30 28 1 28 29
M  V30 29 1 29 30
M  V30 30 1 30 31
M  V30 31 1 31 32
M  V30 32 1 32 33
M  V30 33 1 33 34
M  V30 34 1 33 35
M  V30 35 2 28 36
M  V30 36 1 36 37
M  V30 37 2 37 38
M  V30 38 1 25 39
M  V30 39 1 39 40
M  V30 40 1 21 2
M  V30 41 1 40 25
M  V30 42 1 19 9
M  V30 43 1 38 26
M  V30 44 1 1 41
M  V30 45 1 1 42
M  V30 46 1 1 43
M  V30 47 1 3 44
M  V30 48 1 4 45
M  V30 49 1 8 46
M  V30 50 1 10 47
M  V30 51 1 11 48
M  V30 52 1 19 49
M  V30 53 1 20 50
M  V30 54 1 22 51
M  V30 55 1 27 52
M  V30 56 1 29 53
M  V30 57 1 30 54
M  V30 58 1 30 55
M  V30 59 1 31 56
M  V30 60 1 31 57
M  V30 61 1 32 58
M  V30 62 1 32 59
M  V30 63 1 34 60
M  V30 64 1 34 61
M  V30 65 1 34 62
M  V30 66 1 35 63
M  V30 67 1 35 64
M  V30 68 1 35 65
M  V30 69 1 37 66
M  V30 70 1 39 67
M  V30 71 1 39 68
M  V30 72 1 40 69
M  V30 73 1 40 70
M  V30 END BOND
M  V30 END CTAB
M  END
>  <Dataset>  (135) 
ChEMBL_Kinases

>  <Ligand_Instance>  (135) 
nan

>  <PDB_ID>  (135) 
nan

>  <Standardized_SMILES>  (135) 
Cc1ccc(C(=O)Nc2ccc(Cl)c(C(F)(F)F)c2)cc1NC(=O)C1(c2cc(NCCCN(C)C)ncn2)CC1

>  <Name>  (135) 
nan

>  <Pocket>  (135) 
nan

>  <ATP_Site>  (135) 
nan

>  <Peripheral>  (135) 
nan

>  <Num_H_Atoms_ProtBoundConf>  (135) 
nan

>  <Num_Resolved_Atoms>  (135) 
nan

>  <Num_Not_Resolved_Atoms>  (135) 
nan

$$$$
CHEMBL4087760
     RDKit          3D

  0  0  0  0  0  0  0  0  0  0999 V3000
M  V30 BEGIN CTAB
M  V30 COUNTS 39 42 0 0 0
M  V30 BEGIN ATOM
M  V30 1 C -0.364856 -6.232704 2.017133 0
M  V30 2 C 1.022045 -5.749638 2.029036 0
M  V30 3 N 2.121308 -6.466554 2.404022 0
M  V30 4 N 3.215272 -5.733883 2.296523 0
M  V30 5 C 2.869966 -4.496709 1.842365 0
M  V30 6 C 1.522604 -4.512358 1.680026 0
M  V30 7 C 0.770928 -3.389997 1.213523 0
M  V30 8 C 1.056564 -2.144160 0.834879 0
M  V30 9 C 0.089946 -1.289428 0.430620 0
M  V30 10 N 0.166521 -0.010469 0.014987 0
M  V30 11 C -0.918939 0.690849 -0.353037 0
M  V30 12 C -0.714907 2.093931 -0.793944 0
M  V30 13 N -0.781079 3.074438 0.230537 0
M  V30 14 C -0.564544 4.381060 -0.349029 0
M  V30 15 C 0.611609 5.006438 0.376995 0
M  V30 16 C 1.330414 3.778929 0.899489 0 CFG=2
M  V30 17 F 2.020511 3.203145 -0.129151 0
M  V30 18 C 0.133312 2.920316 1.303993 0
M  V30 19 N -2.193665 0.199223 -0.348029 0
M  V30 20 C -2.373688 -1.071210 0.051912 0
M  V30 21 O -3.458972 -1.693595 0.123927 0
M  V30 22 C -1.222016 -1.753028 0.421685 0
M  V30 23 S -1.044850 -3.527608 1.033608 0
M  V30 24 H -1.070565 -5.572601 2.563088 0
M  V30 25 H -0.415464 -7.213831 2.532956 0
M  V30 26 H -0.672537 -6.437142 0.967385 0
M  V30 27 H 4.186093 -6.046569 2.521167 0
M  V30 28 H 3.560063 -3.690942 1.660355 0
M  V30 29 H 2.103679 -1.878935 0.876856 0
M  V30 30 H 0.244315 2.112231 -1.368916 0
M  V30 31 H -1.500662 2.317299 -1.545054 0
M  V30 32 H -0.285970 4.338807 -1.429960 0
M  V30 33 H -1.485238 4.974466 -0.168924 0
M  V30 34 H 0.275872 5.585781 1.258396 0
M  V30 35 H 1.252096 5.607603 -0.296119 0
M  V30 36 H 1.951654 4.007516 1.785846 0
M  V30 37 H -0.244132 3.366057 2.246026 0
M  V30 38 H 0.427231 1.892411 1.536410 0
M  V30 39 H -3.032957 0.720056 -0.625470 0
M  V30 END ATOM
M  V30 BEGIN BOND
M  V30 1 1 1 2
M  V30 2 2 2 3
M  V30 3 1 3 4
M  V30 4 1 4 5
M  V30 5 2 5 6
M  V30 6 1 6 7
M  V30 7 2 7 8
M  V30 8 1 8 9
M  V30 9 1 9 10
M  V30 10 2 10 11
M  V30 11 1 11 12
M  V30 12 1 12 13
M  V30 13 1 13 14
M  V30 14 1 14 15
M  V30 15 1 15 16
M  V30 16 1 16 17
M  V30 17 1 16 18
M  V30 18 1 11 19
M  V30 19 1 19 20
M  V30 20 2 20 21
M  V30 21 1 20 22
M  V30 22 1 22 23
M  V30 23 1 6 2
M  V30 24 1 23 7
M  V30 25 2 22 9
M  V30 26 1 18 13
M  V30 27 1 1 24
M  V30 28 1 1 25
M  V30 29 1 1 26
M  V30 30 1 4 27
M  V30 31 1 5 28
M  V30 32 1 8 29
M  V30 33 1 12 30
M  V30 34 1 12 31
M  V30 35 1 14 32
M  V30 36 1 14 33
M  V30 37 1 15 34
M  V30 38 1 15 35
M  V30 39 1 16 36 CFG=1
M  V30 40 1 18 37
M  V30 41 1 18 38
M  V30 42 1 19 39
M  V30 END BOND
M  V30 END CTAB
M  END
>  <Dataset>  (136) 
ChEMBL_Kinases

>  <Ligand_Instance>  (136) 
nan

>  <PDB_ID>  (136) 
nan

>  <Standardized_SMILES>  (136) 
Cc1n[nH]cc1-c1cc2nc(CN3CC[C@H](F)C3)[nH]c(=O)c2s1

>  <Name>  (136) 
nan

>  <Pocket>  (136) 
nan

>  <ATP_Site>  (136) 
nan

>  <Peripheral>  (136) 
nan

>  <Num_H_Atoms_ProtBoundConf>  (136) 
nan

>  <Num_Resolved_Atoms>  (136) 
nan

>  <Num_Not_Resolved_Atoms>  (136) 
nan

$$$$
CHEMBL4847212
     RDKit          3D

  0  0  0  0  0  0  0  0  0  0999 V3000
M  V30 BEGIN CTAB
M  V30 COUNTS 72 76 0 0 0
M  V30 BEGIN ATOM
M  V30 1 C 5.749536 -2.180262 -2.959078 0
M  V30 2 O 4.667254 -1.342130 -2.685980 0
M  V30 3 C 4.554389 -0.576963 -1.547168 0
M  V30 4 C 5.486894 -0.536687 -0.534191 0
M  V30 5 C 5.271784 0.266415 0.563875 0
M  V30 6 C 4.101449 1.034035 0.633521 0
M  V30 7 C 3.155897 0.997855 -0.386272 0
M  V30 8 C 2.023087 1.882637 -0.080689 0 CFG=1
M  V30 9 C 0.901842 1.825042 -1.050677 0
M  V30 10 O 1.385192 2.121625 -2.323281 0
M  V30 11 N 1.628091 1.601098 1.285131 0
M  V30 12 C 1.705367 2.389045 2.458155 0
M  V30 13 O 2.203696 3.520976 2.275745 0
M  V30 14 C 1.229979 1.892425 3.783283 0 CFG=1
M  V30 15 C 0.394720 2.880272 4.530288 0
M  V30 16 N 0.604088 0.599268 3.605313 0
M  V30 17 C 0.891011 -0.740558 4.016409 0
M  V30 18 C -0.205505 -1.551341 3.449320 0
M  V30 19 C -0.385296 -2.934583 3.565664 0
M  V30 20 C -1.490243 -3.549183 2.961605 0
M  V30 21 C -2.394044 -2.789418 2.256417 0
M  V30 22 C -3.580623 -3.309130 1.582328 0
M  V30 23 N -3.838222 -2.865343 0.337283 0
M  V30 24 C -4.870642 -3.232407 -0.419187 0
M  V30 25 N -5.061168 -2.702113 -1.729547 0
M  V30 26 C -4.128915 -1.738528 -2.281468 0
M  V30 27 C -4.505292 -1.281836 -3.675012 0
M  V30 28 C -3.707078 0.006331 -3.904048 0
M  V30 29 O -2.564770 0.019887 -3.102111 0
M  V30 30 C -1.909805 -1.198593 -3.107915 0
M  V30 31 C -2.716767 -2.265649 -2.375690 0
M  V30 32 N -5.750738 -4.122378 0.074160 0
M  V30 33 C -5.567186 -4.619305 1.318032 0
M  V30 34 C -4.496490 -4.235370 2.096135 0
M  V30 35 Cl -4.159814 -4.811219 3.715952 0
M  V30 36 C -2.202133 -1.420976 2.150469 0
M  V30 37 C -1.113613 -0.793239 2.741741 0
M  V30 38 C -0.611987 0.573409 2.832667 0
M  V30 39 O -1.273440 1.500391 2.254302 0
M  V30 40 C 3.416225 0.186134 -1.452402 0
M  V30 41 H 6.554310 -1.643611 -3.510848 0
M  V30 42 H 5.477324 -3.061627 -3.591909 0
M  V30 43 H 6.162120 -2.620035 -2.013872 0
M  V30 44 H 6.374932 -1.140928 -0.624921 0
M  V30 45 H 6.030399 0.266486 1.334314 0
M  V30 46 H 4.063628 1.620505 1.555905 0
M  V30 47 H 2.433249 2.932557 -0.102049 0
M  V30 48 H 0.186069 2.639752 -0.810732 0
M  V30 49 H 0.410912 0.832770 -1.093852 0
M  V30 50 H 1.622893 3.060814 -2.462901 0
M  V30 51 H 1.247901 0.643931 1.272839 0
M  V30 52 H 2.138293 1.672409 4.421232 0
M  V30 53 H -0.649192 2.529710 4.698630 0
M  V30 54 H 0.811530 3.093137 5.558941 0
M  V30 55 H 0.378929 3.868163 4.018189 0
M  V30 56 H 0.968744 -0.836999 5.106617 0
M  V30 57 H 1.884952 -1.022617 3.612561 0
M  V30 58 H 0.263576 -3.618820 4.094936 0
M  V30 59 H -1.666997 -4.598201 3.024354 0
M  V30 60 H -5.873815 -3.004353 -2.300444 0
M  V30 61 H -4.089891 -0.823012 -1.623045 0
M  V30 62 H -5.570286 -1.037084 -3.685199 0
M  V30 63 H -4.212528 -2.069311 -4.385458 0
M  V30 64 H -3.497694 0.184533 -4.976355 0
M  V30 65 H -4.323616 0.873122 -3.566119 0
M  V30 66 H -1.609908 -1.517329 -4.127077 0
M  V30 67 H -0.960338 -1.072009 -2.546898 0
M  V30 68 H -2.273106 -2.508938 -1.412905 0
M  V30 69 H -2.780928 -3.137817 -3.085855 0
M  V30 70 H -6.194442 -5.333852 1.829087 0
M  V30 71 H -2.910159 -0.789399 1.591300 0
M  V30 72 H 2.648681 0.200287 -2.200909 0
M  V30 END ATOM
M  V30 BEGIN BOND
M  V30 1 1 1 2
M  V30 2 1 2 3
M  V30 3 2 3 4
M  V30 4 1 4 5
M  V30 5 2 5 6
M  V30 6 1 6 7
M  V30 7 1 7 8
M  V30 8 1 8 9
M  V30 9 1 9 10
M  V30 10 1 8 11
M  V30 11 1 11 12
M  V30 12 2 12 13
M  V30 13 1 12 14
M  V30 14 1 14 15
M  V30 15 1 14 16
M  V30 16 1 16 17
M  V30 17 1 17 18
M  V30 18 2 18 19
M  V30 19 1 19 20
M  V30 20 2 20 21
M  V30 21 1 21 22
M  V30 22 2 22 23
M  V30 23 1 23 24
M  V30 24 1 24 25
M  V30 25 1 25 26
M  V30 26 1 26 27
M  V30 27 1 27 28
M  V30 28 1 28 29
M  V30 29 1 29 30
M  V30 30 1 30 31
M  V30 31 2 24 32
M  V30 32 1 32 33
M  V30 33 2 33 34
M  V30 34 1 34 35
M  V30 35 1 21 36
M  V30 36 2 36 37
M  V30 37 1 37 38
M  V30 38 2 38 39
M  V30 39 2 7 40
M  V30 40 1 40 3
M  V30 41 1 38 16
M  V30 42 1 37 18
M  V30 43 1 34 22
M  V30 44 1 31 26
M  V30 45 1 1 41
M  V30 46 1 1 42
M  V30 47 1 1 43
M  V30 48 1 4 44
M  V30 49 1 5 45
M  V30 50 1 6 46
M  V30 51 1 8 47 CFG=1
M  V30 52 1 9 48
M  V30 53 1 9 49
M  V30 54 1 10 50
M  V30 55 1 11 51
M  V30 56 1 14 52 CFG=1
M  V30 57 1 15 53
M  V30 58 1 15 54
M  V30 59 1 15 55
M  V30 60 1 17 56
M  V30 61 1 17 57
M  V30 62 1 19 58
M  V30 63 1 20 59
M  V30 64 1 25 60
M  V30 65 1 26 61
M  V30 66 1 27 62
M  V30 67 1 27 63
M  V30 68 1 28 64
M  V30 69 1 28 65
M  V30 70 1 30 66
M  V30 71 1 30 67
M  V30 72 1 31 68
M  V30 73 1 31 69
M  V30 74 1 33 70
M  V30 75 1 36 71
M  V30 76 1 40 72
M  V30 END BOND
M  V30 END CTAB
M  END
>  <Dataset>  (137) 
ChEMBL_Kinases

>  <Ligand_Instance>  (137) 
nan

>  <PDB_ID>  (137) 
nan

>  <Standardized_SMILES>  (137) 
COc1cccc([C@@H](CO)NC(=O)[C@@H](C)N2Cc3ccc(-c4nc(NC5CCOCC5)ncc4Cl)cc3C2=O)c1

>  <Name>  (137) 
nan

>  <Pocket>  (137) 
nan

>  <ATP_Site>  (137) 
nan

>  <Peripheral>  (137) 
nan

>  <Num_H_Atoms_ProtBoundConf>  (137) 
nan

>  <Num_Resolved_Atoms>  (137) 
nan

>  <Num_Not_Resolved_Atoms>  (137) 
nan

$$$$
CHEMBL4087758
     RDKit          3D

  0  0  0  0  0  0  0  0  0  0999 V3000
M  V30 BEGIN CTAB
M  V30 COUNTS 64 68 0 0 0
M  V30 BEGIN ATOM
M  V30 1 C 5.805439 -2.161961 5.770485 0
M  V30 2 N 5.999410 -2.472321 4.366321 0
M  V30 3 C 7.424714 -2.599693 4.143691 0
M  V30 4 C 5.455437 -1.366970 3.608492 0
M  V30 5 C 5.561688 -1.538302 2.128326 0
M  V30 6 N 5.001365 -0.398120 1.419135 0
M  V30 7 C 3.727965 -0.237023 1.014466 0
M  V30 8 C 3.590304 0.987278 0.367510 0
M  V30 9 C 2.294985 1.408831 -0.169922 0
M  V30 10 C 1.442243 0.422330 -0.631471 0
M  V30 11 C 0.208811 0.784092 -1.146593 0
M  V30 12 N -0.210619 2.073990 -1.222368 0
M  V30 13 C -1.364758 2.585335 -1.691078 0
M  V30 14 C -2.526914 1.905593 -2.265097 0
M  V30 15 C -3.177692 2.288346 -3.418812 0
M  V30 16 C -4.282889 1.539204 -3.840508 0
M  V30 17 C -4.753901 0.434427 -3.157454 0
M  V30 18 C -5.920362 -0.302165 -3.662863 0
M  V30 19 N -6.345346 -1.444134 -2.890774 0
M  V30 20 O -6.434458 0.139085 -4.723554 0
M  V30 21 C -4.082523 0.075531 -2.006245 0
M  V30 22 O -4.587955 -1.053203 -1.334992 0
M  V30 23 C -3.974419 -1.508922 -0.142393 0
M  V30 24 C -4.629981 -2.701858 0.435750 0
M  V30 25 C -4.093860 -3.971528 0.332594 0
M  V30 26 C -4.636257 -5.133110 0.840902 0
M  V30 27 C -5.846352 -5.013498 1.526858 0
M  V30 28 C -6.414925 -3.757126 1.650874 0
M  V30 29 C -5.836671 -2.600813 1.122695 0
M  V30 30 F -6.448777 -1.400853 1.281114 0
M  V30 31 C -2.977166 0.805140 -1.562549 0
M  V30 32 C -1.224595 3.950200 -1.514808 0
M  V30 33 N -0.014522 4.223571 -0.955111 0
M  V30 34 C 0.621333 3.030847 -0.772856 0
M  V30 35 C 1.869559 2.723685 -0.246370 0
M  V30 36 C 4.852573 1.542739 0.411134 0
M  V30 37 N 5.688572 0.687352 1.051614 0
M  V30 38 H 5.652948 -3.069324 6.390378 0
M  V30 39 H 6.696146 -1.590260 6.101777 0
M  V30 40 H 4.923908 -1.468728 5.868545 0
M  V30 41 H 7.933933 -1.679704 4.541251 0
M  V30 42 H 7.710177 -2.793913 3.107378 0
M  V30 43 H 7.817771 -3.444014 4.747308 0
M  V30 44 H 5.853013 -0.383225 3.963016 0
M  V30 45 H 4.355583 -1.353875 3.862041 0
M  V30 46 H 6.573766 -1.761478 1.766666 0
M  V30 47 H 4.901921 -2.417072 1.872470 0
M  V30 48 H 2.980516 -1.006460 1.208315 0
M  V30 49 H 1.751961 -0.615565 -0.583271 0
M  V30 50 H -0.396636 -0.044435 -1.487921 0
M  V30 51 H -2.799654 3.145935 -3.935220 0
M  V30 52 H -4.771886 1.866805 -4.750199 0
M  V30 53 H -6.991908 -1.547040 -2.055187 0
M  V30 54 H -5.904716 -2.337731 -3.258052 0
M  V30 55 H -3.978023 -0.690938 0.632880 0
M  V30 56 H -2.896873 -1.758347 -0.274567 0
M  V30 57 H -3.141879 -4.006793 -0.216119 0
M  V30 58 H -4.144701 -6.086133 0.712608 0
M  V30 59 H -6.321120 -5.886452 1.947076 0
M  V30 60 H -7.365889 -3.692093 2.193545 0
M  V30 61 H -2.579710 0.376875 -0.638286 0
M  V30 62 H -1.958571 4.705226 -1.776845 0
M  V30 63 H 2.532938 3.488460 0.112368 0
M  V30 64 H 5.017994 2.518923 -0.034381 0
M  V30 END ATOM
M  V30 BEGIN BOND
M  V30 1 1 1 2
M  V30 2 1 2 3
M  V30 3 1 2 4
M  V30 4 1 4 5
M  V30 5 1 5 6
M  V30 6 1 6 7
M  V30 7 2 7 8
M  V30 8 1 8 9
M  V30 9 1 9 10
M  V30 10 2 10 11
M  V30 11 1 11 12
M  V30 12 1 12 13
M  V30 13 1 13 14
M  V30 14 2 14 15
M  V30 15 1 15 16
M  V30 16 2 16 17
M  V30 17 1 17 18
M  V30 18 1 18 19
M  V30 19 2 18 20
M  V30 20 1 17 21
M  V30 21 1 21 22
M  V30 22 1 22 23
M  V30 23 1 23 24
M  V30 24 2 24 25
M  V30 25 1 25 26
M  V30 26 2 26 27
M  V30 27 1 27 28
M  V30 28 2 28 29
M  V30 29 1 29 30
M  V30 30 2 21 31
M  V30 31 2 13 32
M  V30 32 1 32 33
M  V30 33 2 33 34
M  V30 34 1 34 35
M  V30 35 1 8 36
M  V30 36 2 36 37
M  V30 37 1 37 6
M  V30 38 2 35 9
M  V30 39 1 34 12
M  V30 40 1 31 14
M  V30 41 1 29 24
M  V30 42 1 1 38
M  V30 43 1 1 39
M  V30 44 1 1 40
M  V30 45 1 3 41
M  V30 46 1 3 42
M  V30 47 1 3 43
M  V30 48 1 4 44
M  V30 49 1 4 45
M  V30 50 1 5 46
M  V30 51 1 5 47
M  V30 52 1 7 48
M  V30 53 1 10 49
M  V30 54 1 11 50
M  V30 55 1 15 51
M  V30 56 1 16 52
M  V30 57 1 19 53
M  V30 58 1 19 54
M  V30 59 1 23 55
M  V30 60 1 23 56
M  V30 61 1 25 57
M  V30 62 1 26 58
M  V30 63 1 27 59
M  V30 64 1 28 60
M  V30 65 1 31 61
M  V30 66 1 32 62
M  V30 67 1 35 63
M  V30 68 1 36 64
M  V30 END BOND
M  V30 END CTAB
M  END
>  <Dataset>  (138) 
ChEMBL_Kinases

>  <Ligand_Instance>  (138) 
nan

>  <PDB_ID>  (138) 
nan

>  <Standardized_SMILES>  (138) 
CN(C)CCn1cc(-c2ccn3c(-c4ccc(C(N)=O)c(OCc5ccccc5F)c4)cnc3c2)cn1

>  <Name>  (138) 
nan

>  <Pocket>  (138) 
nan

>  <ATP_Site>  (138) 
nan

>  <Peripheral>  (138) 
nan

>  <Num_H_Atoms_ProtBoundConf>  (138) 
nan

>  <Num_Resolved_Atoms>  (138) 
nan

>  <Num_Not_Resolved_Atoms>  (138) 
nan

$$$$
CHEMBL4087757
     RDKit          3D

  0  0  0  0  0  0  0  0  0  0999 V3000
M  V30 BEGIN CTAB
M  V30 COUNTS 45 47 0 0 0
M  V30 BEGIN ATOM
M  V30 1 C -4.020638 -4.033235 2.487319 0
M  V30 2 N -2.962022 -4.836776 1.914747 0
M  V30 3 C -2.703464 -5.105012 0.547410 0
M  V30 4 C -1.866057 -4.363401 -0.261374 0
M  V30 5 C -1.595943 -4.599176 -1.592538 0
M  V30 6 O -0.738459 -3.788435 -2.290595 0
M  V30 7 C -0.089502 -2.684350 -1.819282 0
M  V30 8 C 1.288012 -2.668443 -1.789275 0
M  V30 9 C 1.991327 -1.573400 -1.320821 0
M  V30 10 C 1.228559 -0.511196 -0.890959 0
M  V30 11 N 1.798129 0.648529 -0.370954 0
M  V30 12 C 2.559013 1.765106 -0.808614 0
M  V30 13 S 2.906638 1.744593 -2.403474 0
M  V30 14 N 3.018199 2.839087 -0.005854 0
M  V30 15 C 2.922425 3.192457 1.362678 0
M  V30 16 C 3.848211 2.756961 2.287022 0
M  V30 17 C 3.908594 3.007114 3.638127 0
M  V30 18 C 2.868630 3.812250 4.060991 0
M  V30 19 C 1.870867 4.323871 3.260623 0
M  V30 20 C 0.782147 5.186825 3.788086 0
M  V30 21 F 0.840061 6.449950 3.220845 0
M  V30 22 F 0.773969 5.188644 5.153687 0
M  V30 23 F -0.399016 4.592695 3.329496 0
M  V30 24 C 1.913641 4.000238 1.898405 0
M  V30 25 C -0.169126 -0.480576 -0.902861 0
M  V30 26 C -0.836771 -1.613048 -1.386196 0
M  V30 27 F -2.192461 -1.639911 -1.426939 0
M  V30 28 N -2.240312 -5.666426 -2.091559 0
M  V30 29 C -3.066112 -6.426502 -1.359274 0
M  V30 30 N -3.310161 -6.171668 -0.060370 0
M  V30 31 H -4.976154 -4.153404 1.937754 0
M  V30 32 H -3.717458 -2.980187 2.445205 0
M  V30 33 H -4.194194 -4.316537 3.555642 0
M  V30 34 H -2.174971 -5.385889 2.279644 0
M  V30 35 H -1.420144 -3.533174 0.305228 0
M  V30 36 H 1.896449 -3.495240 -2.128429 0
M  V30 37 H 3.051575 -1.450243 -1.251626 0
M  V30 38 H 1.589124 0.694450 0.673507 0
M  V30 39 H 3.565630 3.591205 -0.459865 0
M  V30 40 H 4.635108 2.126739 1.869352 0
M  V30 41 H 4.655602 2.635468 4.296078 0
M  V30 42 H 2.781740 4.100053 5.105839 0
M  V30 43 H 1.156571 4.375809 1.227156 0
M  V30 44 H -0.755832 0.357556 -0.563148 0
M  V30 45 H -3.592591 -7.286372 -1.740693 0
M  V30 END ATOM
M  V30 BEGIN BOND
M  V30 1 1 1 2
M  V30 2 1 2 3
M  V30 3 2 3 4
M  V30 4 1 4 5
M  V30 5 1 5 6
M  V30 6 1 6 7
M  V30 7 2 7 8
M  V30 8 1 8 9
M  V30 9 2 9 10
M  V30 10 1 10 11
M  V30 11 1 11 12
M  V30 12 2 12 13
M  V30 13 1 12 14
M  V30 14 1 14 15
M  V30 15 2 15 16
M  V30 16 1 16 17
M  V30 17 2 17 18
M  V30 18 1 18 19
M  V30 19 1 19 20
M  V30 20 1 20 21
M  V30 21 1 20 22
M  V30 22 1 20 23
M  V30 23 2 19 24
M  V30 24 1 10 25
M  V30 25 2 25 26
M  V30 26 1 26 27
M  V30 27 2 5 28
M  V30 28 1 28 29
M  V30 29 2 29 30
M  V30 30 1 30 3
M  V30 31 1 26 7
M  V30 32 1 24 15
M  V30 33 1 1 31
M  V30 34 1 1 32
M  V30 35 1 1 33
M  V30 36 1 2 34
M  V30 37 1 4 35
M  V30 38 1 8 36
M  V30 39 1 9 37
M  V30 40 1 11 38
M  V30 41 1 14 39
M  V30 42 1 16 40
M  V30 43 1 17 41
M  V30 44 1 18 42
M  V30 45 1 24 43
M  V30 46 1 25 44
M  V30 47 1 29 45
M  V30 END BOND
M  V30 END CTAB
M  END
>  <Dataset>  (139) 
ChEMBL_Kinases

>  <Ligand_Instance>  (139) 
nan

>  <PDB_ID>  (139) 
nan

>  <Standardized_SMILES>  (139) 
CNc1cc(Oc2ccc(NC(=S)Nc3cccc(C(F)(F)F)c3)cc2F)ncn1

>  <Name>  (139) 
nan

>  <Pocket>  (139) 
nan

>  <ATP_Site>  (139) 
nan

>  <Peripheral>  (139) 
nan

>  <Num_H_Atoms_ProtBoundConf>  (139) 
nan

>  <Num_Resolved_Atoms>  (139) 
nan

>  <Num_Not_Resolved_Atoms>  (139) 
nan

$$$$
CHEMBL4087735
     RDKit          3D

  0  0  0  0  0  0  0  0  0  0999 V3000
M  V30 BEGIN CTAB
M  V30 COUNTS 48 51 0 0 0
M  V30 BEGIN ATOM
M  V30 1 C -0.036396 -6.812713 1.816875 0
M  V30 2 C 0.517771 -5.441211 1.834903 0
M  V30 3 C 1.585922 -5.194483 2.663307 0
M  V30 4 C 2.098555 -3.918950 2.677709 0
M  V30 5 C 1.534841 -2.962401 1.880651 0
M  V30 6 F 2.082337 -1.736065 1.941296 0
M  V30 7 C 0.472181 -3.150334 1.037447 0
M  V30 8 C -0.177302 -2.194691 0.167792 0
M  V30 9 C 0.134156 -0.872793 -0.006493 0
M  V30 10 C -0.512923 -0.001869 -0.845577 0
M  V30 11 N -0.165346 1.359910 -0.982109 0
M  V30 12 C 0.687372 2.360490 -0.477923 0
M  V30 13 C 1.702220 2.821073 -1.332603 0
M  V30 14 C 2.610118 3.817952 -1.046475 0
M  V30 15 N 2.492136 4.379508 0.155183 0
M  V30 16 C 1.543351 3.974570 0.995680 0
M  V30 17 C 1.185428 4.418129 2.271789 0
M  V30 18 N 0.126472 3.703588 2.683463 0
M  V30 19 N -0.229014 2.817520 1.752360 0
M  V30 20 C -1.319233 1.893582 1.959466 0
M  V30 21 C -0.942728 0.689144 2.784245 0
M  V30 22 O -1.999863 -0.211627 2.948954 0
M  V30 23 C 0.628810 2.987008 0.739675 0
M  V30 24 C -1.564406 -0.482445 -1.580532 0
M  V30 25 C -2.334604 0.379904 -2.522154 0
M  V30 26 C -1.882414 -1.802176 -1.412810 0
M  V30 27 N -1.213248 -2.612117 -0.574590 0
M  V30 28 C -0.020323 -4.445296 1.046635 0
M  V30 29 H -0.101118 -7.245704 2.854601 0
M  V30 30 H 0.606928 -7.466185 1.188392 0
M  V30 31 H -1.085136 -6.795613 1.431546 0
M  V30 32 H 2.028179 -5.945853 3.288935 0
M  V30 33 H 2.934380 -3.700462 3.317511 0
M  V30 34 H 0.947931 -0.461317 0.534698 0
M  V30 35 H -0.707302 1.920714 -1.713711 0
M  V30 36 H 1.800196 2.359100 -2.324947 0
M  V30 37 H 3.355317 4.098087 -1.776195 0
M  V30 38 H 1.653344 5.203818 2.869837 0
M  V30 39 H -2.101521 2.435116 2.573599 0
M  V30 40 H -1.865629 1.650915 1.025377 0
M  V30 41 H 0.024131 0.243688 2.578116 0
M  V30 42 H -0.806949 1.120730 3.843177 0
M  V30 43 H -1.626963 -1.140576 3.036590 0
M  V30 44 H -2.632523 1.347283 -2.071235 0
M  V30 45 H -1.785381 0.564228 -3.466005 0
M  V30 46 H -3.316449 -0.141962 -2.718252 0
M  V30 47 H -2.708446 -2.219153 -1.977046 0
M  V30 48 H -0.872832 -4.757272 0.423575 0
M  V30 END ATOM
M  V30 BEGIN BOND
M  V30 1 1 1 2
M  V30 2 2 2 3
M  V30 3 1 3 4
M  V30 4 2 4 5
M  V30 5 1 5 6
M  V30 6 1 5 7
M  V30 7 1 7 8
M  V30 8 2 8 9
M  V30 9 1 9 10
M  V30 10 1 10 11
M  V30 11 1 11 12
M  V30 12 2 12 13
M  V30 13 1 13 14
M  V30 14 2 14 15
M  V30 15 1 15 16
M  V30 16 1 16 17
M  V30 17 2 17 18
M  V30 18 1 18 19
M  V30 19 1 19 20
M  V30 20 1 20 21
M  V30 21 1 21 22
M  V30 22 1 19 23
M  V30 23 2 10 24
M  V30 24 1 24 25
M  V30 25 1 24 26
M  V30 26 2 26 27
M  V30 27 2 7 28
M  V30 28 1 28 2
M  V30 29 1 27 8
M  V30 30 1 23 12
M  V30 31 2 23 16
M  V30 32 1 1 29
M  V30 33 1 1 30
M  V30 34 1 1 31
M  V30 35 1 3 32
M  V30 36 1 4 33
M  V30 37 1 9 34
M  V30 38 1 11 35
M  V30 39 1 13 36
M  V30 40 1 14 37
M  V30 41 1 17 38
M  V30 42 1 20 39
M  V30 43 1 20 40
M  V30 44 1 21 41
M  V30 45 1 21 42
M  V30 46 1 22 43
M  V30 47 1 25 44
M  V30 48 1 25 45
M  V30 49 1 25 46
M  V30 50 1 26 47
M  V30 51 1 28 48
M  V30 END BOND
M  V30 END CTAB
M  END
>  <Dataset>  (140) 
ChEMBL_Kinases

>  <Ligand_Instance>  (140) 
nan

>  <PDB_ID>  (140) 
nan

>  <Standardized_SMILES>  (140) 
Cc1ccc(F)c(-c2cc(Nc3ccnc4cnn(CCO)c34)c(C)cn2)c1

>  <Name>  (140) 
nan

>  <Pocket>  (140) 
nan

>  <ATP_Site>  (140) 
nan

>  <Peripheral>  (140) 
nan

>  <Num_H_Atoms_ProtBoundConf>  (140) 
nan

>  <Num_Resolved_Atoms>  (140) 
nan

>  <Num_Not_Resolved_Atoms>  (140) 
nan

$$$$
CHEMBL4847239
     RDKit          3D

  0  0  0  0  0  0  0  0  0  0999 V3000
M  V30 BEGIN CTAB
M  V30 COUNTS 332 332 0 0 0
M  V30 BEGIN ATOM
M  V30 1 C -5.800372 -1.121953 8.567909 0
M  V30 2 C -5.809941 -2.623396 8.426804 0
M  V30 3 C -6.442817 -2.957735 7.073032 0 CFG=2
M  V30 4 C -7.857958 -2.391387 7.141914 0
M  V30 5 C -6.436766 -4.427251 6.810864 0 CFG=2
M  V30 6 N -7.163167 -5.165201 7.805235 0
M  V30 7 C -5.076529 -4.995195 6.575704 0
M  V30 8 O -5.190416 -6.023713 7.291031 0
M  V30 9 N -4.107827 -4.337805 5.717815 0
M  V30 10 C -2.826594 -4.923882 5.519024 0 CFG=1
M  V30 11 C -2.354866 -5.107882 4.144201 0
M  V30 12 C -3.129241 -5.975178 3.221905 0
M  V30 13 C -4.529970 -5.531443 2.902789 0
M  V30 14 C -4.561715 -4.159385 2.253704 0
M  V30 15 N -5.941316 -3.765166 1.955581 0
M  V30 16 C -1.778300 -4.309166 6.385901 0
M  V30 17 O -2.777684 -3.699300 6.853835 0
M  V30 18 N -0.376475 -4.351554 6.622727 0
M  V30 19 C 0.368527 -3.629798 7.618726 0 CFG=2
M  V30 20 C 1.396472 -2.695625 7.082375 0
M  V30 21 O 1.975935 -2.018282 8.000973 0
M  V30 22 N 1.988734 -2.272490 5.876665 0
M  V30 23 C 3.060253 -1.286299 5.643835 0 CFG=1
M  V30 24 C 4.298232 -1.948412 5.167041 0
M  V30 25 C 5.505209 -1.119396 4.935198 0
M  V30 26 C 5.981799 -0.347392 6.156022 0
M  V30 27 C 6.342301 -1.204850 7.322583 0
M  V30 28 N 6.792156 -0.358376 8.432378 0
M  V30 29 C 2.571150 -0.072098 5.031700 0
M  V30 30 O 1.471306 0.263648 5.604517 0
M  V30 31 N 2.870530 0.856624 4.039975 0
M  V30 32 C 2.525476 2.049654 3.372777 0 CFG=1
M  V30 33 C 3.671900 2.923646 2.963896 0
M  V30 34 C 4.539955 3.404066 4.088226 0
M  V30 35 C 3.841941 4.233528 5.118978 0
M  V30 36 C 4.833461 4.658219 6.212072 0
M  V30 37 N 5.919620 5.428230 5.629570 0
M  V30 38 C 1.614153 1.831918 2.214408 0
M  V30 39 O 1.573759 0.688247 2.699450 0
M  V30 40 N 1.035019 2.429171 1.138652 0
M  V30 41 C 0.103858 1.927652 0.162778 0 CFG=2
M  V30 42 C 0.686896 1.151005 -0.924018 0
M  V30 43 O 1.821425 0.712581 -0.559304 0
M  V30 44 N 0.242919 0.825413 -2.206125 0
M  V30 45 C 0.756191 0.032060 -3.262786 0 CFG=1
M  V30 46 C 0.109358 0.179249 -4.566938 0
M  V30 47 C -1.375214 -0.102605 -4.625297 0
M  V30 48 C -1.860864 0.053877 -6.032708 0
M  V30 49 O -3.018976 0.094503 -6.498432 0
M  V30 50 O -1.103037 0.196858 -7.186668 0
M  V30 51 C 2.277079 0.382458 -3.444711 0
M  V30 52 O 3.007319 1.173174 -2.836598 0
M  V30 53 N 2.759201 -0.438674 -4.551925 0
M  V30 54 C 4.169792 -0.121135 -4.758818 0 CFG=1
M  V30 55 C 4.933539 -1.293701 -5.279127 0
M  V30 56 C 4.926786 -2.489152 -4.407364 0
M  V30 57 O 4.443334 -2.743545 -3.275046 0
M  V30 58 O 5.611288 -3.568394 -4.978033 0
M  V30 59 C 4.176260 0.917404 -5.866166 0
M  V30 60 O 3.006050 0.507304 -6.109620 0
M  V30 61 N 4.951575 1.899437 -6.461624 0
M  V30 62 C 4.408932 2.622010 -7.580546 0 CFG=1
M  V30 63 C 2.843778 2.538790 -7.499377 0
M  V30 64 C 4.730894 4.022649 -7.555060 0
M  V30 65 O 5.164161 3.482534 -6.459085 0
M  V30 66 N 4.863678 5.362172 -7.876004 0
M  V30 67 C 5.476531 6.393756 -7.067421 0 CFG=1
M  V30 68 C 6.551317 7.113568 -7.816116 0
M  V30 69 O 7.514766 6.163606 -8.166980 0
M  V30 70 C 4.421349 7.313455 -6.519464 0
M  V30 71 O 4.922865 8.195245 -5.774306 0
M  V30 72 N 3.036783 7.094978 -6.885226 0
M  V30 73 C 1.991418 7.960281 -6.369332 0 CFG=1
M  V30 74 C 1.275911 8.685103 -7.491407 0
M  V30 75 C 0.640385 7.726728 -8.432621 0
M  V30 76 N 0.429553 6.344542 -8.721639 0
M  V30 77 O 0.043990 8.373448 -9.346242 0
M  V30 78 C 1.034687 7.106472 -5.600311 0
M  V30 79 O 1.334313 5.886739 -5.729766 0
M  V30 80 N -0.058480 7.631521 -4.835429 0
M  V30 81 C -0.342155 9.070548 -4.711242 0
M  V30 82 C -0.903574 9.157783 -3.299278 0
M  V30 83 C -1.656346 7.879216 -3.151706 0
M  V30 84 C -0.992466 6.882914 -4.074719 0 CFG=1
M  V30 85 C -2.131370 6.307656 -4.884308 0
M  V30 86 O -2.761350 7.007949 -5.736790 0
M  V30 87 N -2.585792 4.963033 -4.768863 0
M  V30 88 C -3.701872 4.376087 -5.526876 0 CFG=1
M  V30 89 C -3.084709 3.729850 -6.799075 0
M  V30 90 C -4.128438 3.109761 -7.653720 0
M  V30 91 C -5.138631 4.140667 -8.105635 0
M  V30 92 C -3.430519 2.608649 -8.926855 0
M  V30 93 C -4.397303 3.377900 -4.694723 0
M  V30 94 O -3.552712 3.497005 -3.722584 0
M  V30 95 N -5.403564 2.443686 -4.414061 0
M  V30 96 C -5.493002 1.669437 -3.184141 0 CFG=1
M  V30 97 C -6.814985 1.920278 -2.488210 0
M  V30 98 C -6.908868 1.111827 -1.216874 0
M  V30 99 C -5.856294 1.416554 -0.207680 0
M  V30 100 C -8.274678 1.414030 -0.568880 0
M  V30 101 C -5.230472 0.247823 -3.409355 0
M  V30 102 O -5.410150 0.511005 -4.606497 0
M  V30 103 N -4.940417 -1.074585 -3.184993 0
M  V30 104 C -4.717867 -2.411133 -3.511935 0 CFG=1
M  V30 105 C -4.152931 -2.827054 -4.830237 0
M  V30 106 C -4.977526 -2.478449 -6.037589 0
M  V30 107 C -6.356679 -3.150709 -5.934346 0
M  V30 108 C -4.309073 -3.200706 -7.212754 0
M  V30 109 C -3.978303 -3.047264 -2.400442 0
M  V30 110 O -4.178635 -2.802708 -1.183627 0
M  V30 111 N -2.972722 -3.984080 -2.735356 0
M  V30 112 C -2.094791 -4.768944 -1.757483 0 CFG=1
M  V30 113 C -1.887852 -6.092248 -2.305260 0
M  V30 114 C -1.044973 -7.068356 -1.609312 0
M  V30 115 C 0.422025 -6.838702 -1.505556 0
M  V30 116 C 1.077088 -6.718370 -2.882166 0
M  V30 117 N 2.488855 -6.494798 -2.715312 0
M  V30 118 C -1.107876 -3.896463 -1.218861 0
M  V30 119 O -1.236822 -2.928230 -2.060034 0
M  V30 120 N -0.152434 -3.674301 -0.241074 0
M  V30 121 C 0.809038 -2.802148 0.290778 0 CFG=1
M  V30 122 C 0.636264 -2.597787 1.779672 0
M  V30 123 C -0.749117 -2.022528 2.087372 0
M  V30 124 C -0.817159 -1.768027 3.552157 0
M  V30 125 N -2.102742 -1.228331 3.968362 0
M  V30 126 C -2.312352 -0.887021 5.346184 0
M  V30 127 N -1.303855 -1.014340 6.176025 0
M  V30 128 N -3.656374 -0.438461 5.603988 0
M  V30 129 C 2.227775 -3.153254 0.029439 0
M  V30 130 O 2.536702 -4.068680 -0.782102 0
M  V30 131 N 3.348382 -2.548353 0.623403 0
M  V30 132 C 4.740257 -2.849828 0.407243 0 CFG=1
M  V30 133 C 5.606880 -1.822641 1.015439 0
M  V30 134 C 5.514387 -0.414736 0.603435 0
M  V30 135 C 5.803848 -0.066161 -0.808999 0
M  V30 136 N 5.693643 1.401813 -0.958842 0
M  V30 137 C 5.974815 2.132569 -2.158433 0
M  V30 138 N 6.880617 1.610366 -2.915800 0
M  V30 139 N 5.268510 3.333433 -2.422942 0
M  V30 140 C 5.074282 -4.120456 1.257770 0
M  V30 141 O 4.587467 -4.971224 2.081236 0
M  V30 142 N 6.436955 -4.555051 1.105782 0
M  V30 143 C 6.894022 -5.717304 1.832007 0
M  V30 144 C 6.798872 -5.572869 3.304884 0
M  V30 145 O 7.194912 -6.598712 3.928567 0
M  V30 146 O 6.368929 -4.556659 4.169382 0
M  V30 147 C -1.079436 2.758806 -0.093989 0 CFG=1
M  V30 148 C -1.960404 2.939878 1.145834 0
M  V30 149 C -0.708568 4.127522 -0.641558 0
M  V30 150 C -1.956042 4.958959 -0.857646 0
M  V30 151 C 0.993611 -4.570905 8.620111 0 CFG=1
M  V30 152 C 1.799944 -3.821025 9.669850 0
M  V30 153 C -0.030056 -5.366866 9.351013 0
M  V30 154 C -0.889768 -6.298720 8.580272 0
M  V30 155 H -4.771497 -0.835615 8.923649 0
M  V30 156 H -5.934339 -0.583237 7.592692 0
M  V30 157 H -6.527737 -0.755808 9.325443 0
M  V30 158 H -4.823630 -3.064482 8.558638 0
M  V30 159 H -6.458009 -3.018852 9.249395 0
M  V30 160 H -5.902330 -2.370623 6.316575 0
M  V30 161 H -8.536566 -2.868722 6.400565 0
M  V30 162 H -7.815430 -1.323994 6.944062 0
M  V30 163 H -8.214653 -2.530295 8.199396 0
M  V30 164 H -6.988110 -4.579839 5.844144 0
M  V30 165 H -8.165728 -4.936890 7.739214 0
M  V30 166 H -6.788635 -5.030517 8.767351 0
M  V30 167 H -4.472598 -3.447273 5.303049 0
M  V30 168 H -2.948254 -5.992048 5.949365 0
M  V30 169 H -1.302319 -5.485029 4.153337 0
M  V30 170 H -2.389667 -4.085099 3.627775 0
M  V30 171 H -3.097445 -7.059694 3.478038 0
M  V30 172 H -2.581804 -5.927861 2.230788 0
M  V30 173 H -5.021804 -6.271215 2.222165 0
M  V30 174 H -5.130324 -5.499932 3.800427 0
M  V30 175 H -3.976150 -4.132854 1.306497 0
M  V30 176 H -4.162388 -3.395309 2.955560 0
M  V30 177 H -6.462532 -3.700913 2.863484 0
M  V30 178 H -5.972994 -2.791389 1.566358 0
M  V30 179 H -0.058790 -5.021345 5.879967 0
M  V30 180 H -0.401347 -3.045310 8.207190 0
M  V30 181 H 1.496890 -2.839075 5.112538 0
M  V30 182 H 3.340701 -0.971327 6.738674 0
M  V30 183 H 4.534913 -2.752186 5.934347 0
M  V30 184 H 4.149649 -2.555890 4.237666 0
M  V30 185 H 6.346111 -1.898961 4.782696 0
M  V30 186 H 5.504297 -0.475843 4.079521 0
M  V30 187 H 6.890766 0.188754 5.821271 0
M  V30 188 H 5.231164 0.405791 6.437341 0
M  V30 189 H 7.228102 -1.860014 7.108205 0
M  V30 190 H 5.547081 -1.871404 7.671258 0
M  V30 191 H 7.411754 -0.857627 9.081428 0
M  V30 192 H 6.003211 0.077841 8.916969 0
M  V30 193 H 3.691429 0.559045 3.535364 0
M  V30 194 H 1.915330 2.647101 4.136687 0
M  V30 195 H 4.329847 2.427737 2.238735 0
M  V30 196 H 3.251968 3.843595 2.474787 0
M  V30 197 H 5.414198 3.888229 3.648288 0
M  V30 198 H 4.899005 2.465734 4.616652 0
M  V30 199 H 2.960834 3.759173 5.549608 0
M  V30 200 H 3.491957 5.183337 4.641000 0
M  V30 201 H 5.224995 3.747455 6.701105 0
M  V30 202 H 4.281793 5.249083 6.978405 0
M  V30 203 H 5.611466 6.385620 5.432976 0
M  V30 204 H 6.797827 5.396813 6.194240 0
M  V30 205 H 1.435757 3.416057 1.169135 0
M  V30 206 H -0.390052 1.003433 0.796926 0
M  V30 207 H -0.699292 1.274373 -2.408507 0
M  V30 208 H 0.875213 -1.008010 -2.951870 0
M  V30 209 H 0.531016 -0.632192 -5.237417 0
M  V30 210 H 0.376477 1.105632 -5.119798 0
M  V30 211 H -1.983975 0.558186 -4.008978 0
M  V30 212 H -1.531356 -1.133284 -4.278739 0
M  V30 213 H -1.141751 -0.545122 -7.878078 0
M  V30 214 H 2.439127 -1.156379 -5.220564 0
M  V30 215 H 4.670756 0.330909 -3.914767 0
M  V30 216 H 5.940195 -1.042619 -5.637591 0
M  V30 217 H 4.379494 -1.623747 -6.214140 0
M  V30 218 H 5.473364 -4.514399 -4.619378 0
M  V30 219 H 5.825025 1.832012 -5.860272 0
M  V30 220 H 4.602939 2.103684 -8.507612 0
M  V30 221 H 2.484538 2.715548 -6.493812 0
M  V30 222 H 2.507434 3.390752 -8.140855 0
M  V30 223 H 2.509929 1.637507 -8.023142 0
M  V30 224 H 4.378931 5.215875 -8.810013 0
M  V30 225 H 5.943226 5.902526 -6.180157 0
M  V30 226 H 7.084756 7.825892 -7.127711 0
M  V30 227 H 6.207089 7.593634 -8.728963 0
M  V30 228 H 7.377015 5.291991 -7.717825 0
M  V30 229 H 2.838374 6.290370 -7.523164 0
M  V30 230 H 2.449037 8.718973 -5.723703 0
M  V30 231 H 2.043880 9.232223 -8.063511 0
M  V30 232 H 0.531789 9.392809 -7.126900 0
M  V30 233 H -0.454818 6.091091 -8.190507 0
M  V30 234 H 1.231365 6.074467 -9.359056 0
M  V30 235 H 0.622372 9.614967 -4.766883 0
M  V30 236 H -1.120386 9.424862 -5.393681 0
M  V30 237 H -0.065285 9.284543 -2.579989 0
M  V30 238 H -1.558055 10.035905 -3.142313 0
M  V30 239 H -1.539559 7.511131 -2.103007 0
M  V30 240 H -2.735574 8.013470 -3.406532 0
M  V30 241 H -0.528737 6.048298 -3.493956 0
M  V30 242 H -2.016536 4.434292 -4.084846 0
M  V30 243 H -4.369348 5.140859 -5.948121 0
M  V30 244 H -2.645709 4.583294 -7.374896 0
M  V30 245 H -2.245764 3.082301 -6.534166 0
M  V30 246 H -4.655394 2.248489 -7.252681 0
M  V30 247 H -5.772441 3.740316 -8.916183 0
M  V30 248 H -4.634442 5.048706 -8.517407 0
M  V30 249 H -5.792612 4.503199 -7.292143 0
M  V30 250 H -2.899730 1.656851 -8.710359 0
M  V30 251 H -2.812247 3.377669 -9.391654 0
M  V30 252 H -4.258508 2.333492 -9.607324 0
M  V30 253 H -5.925837 2.584220 -5.324322 0
M  V30 254 H -4.697066 2.053724 -2.524524 0
M  V30 255 H -7.695919 1.700829 -3.100769 0
M  V30 256 H -6.809567 2.995309 -2.147798 0
M  V30 257 H -6.950951 0.019461 -1.409829 0
M  V30 258 H -5.253068 0.523193 0.115984 0
M  V30 259 H -6.291981 1.817217 0.755435 0
M  V30 260 H -5.196401 2.235429 -0.561118 0
M  V30 261 H -8.435538 0.572154 0.167083 0
M  V30 262 H -8.271591 2.397926 -0.080446 0
M  V30 263 H -9.046270 1.303811 -1.352029 0
M  V30 264 H -4.866638 -0.878999 -2.119764 0
M  V30 265 H -5.772144 -2.892651 -3.560355 0
M  V30 266 H -4.255704 -3.978769 -4.802760 0
M  V30 267 H -3.085330 -2.695118 -4.977567 0
M  V30 268 H -5.174540 -1.451926 -6.253439 0
M  V30 269 H -7.050711 -2.546339 -5.309335 0
M  V30 270 H -6.229086 -4.108663 -5.376433 0
M  V30 271 H -6.731895 -3.371226 -6.951292 0
M  V30 272 H -3.389201 -2.643482 -7.479139 0
M  V30 273 H -4.994054 -3.372600 -8.056885 0
M  V30 274 H -3.949174 -4.174365 -6.809968 0
M  V30 275 H -2.670546 -4.261195 -3.687440 0
M  V30 276 H -2.870201 -4.870650 -0.892466 0
M  V30 277 H -2.924829 -6.548432 -2.531911 0
M  V30 278 H -1.507059 -5.946040 -3.379600 0
M  V30 279 H -1.396010 -7.252213 -0.534910 0
M  V30 280 H -1.216555 -8.083832 -2.092419 0
M  V30 281 H 0.795686 -6.125132 -0.808449 0
M  V30 282 H 0.839366 -7.844892 -1.122413 0
M  V30 283 H 0.654535 -5.891293 -3.463807 0
M  V30 284 H 0.955493 -7.689180 -3.382589 0
M  V30 285 H 3.039199 -7.112960 -3.345217 0
M  V30 286 H 2.784473 -6.686600 -1.740733 0
M  V30 287 H -0.226948 -4.541722 0.380578 0
M  V30 288 H 0.725499 -1.757522 -0.145630 0
M  V30 289 H 0.752003 -3.597037 2.260453 0
M  V30 290 H 1.392954 -1.933010 2.153856 0
M  V30 291 H -0.942095 -1.115043 1.523362 0
M  V30 292 H -1.450874 -2.821664 1.744887 0
M  V30 293 H -0.062041 -1.029601 3.845546 0
M  V30 294 H -0.649792 -2.707916 4.107021 0
M  V30 295 H -2.828238 -1.111134 3.218412 0
M  V30 296 H -1.459754 -0.762358 7.183108 0
M  V30 297 H -3.848547 -1.137717 6.363687 0
M  V30 298 H -3.972048 0.372309 4.998116 0
M  V30 299 H 3.106360 -1.787472 1.285371 0
M  V30 300 H 4.988535 -3.223344 -0.591587 0
M  V30 301 H 6.714338 -2.097639 0.897053 0
M  V30 302 H 5.519387 -1.834889 2.150796 0
M  V30 303 H 6.165968 0.233019 1.242694 0
M  V30 304 H 4.472430 -0.003403 0.813287 0
M  V30 305 H 5.007278 -0.456419 -1.489341 0
M  V30 306 H 6.797757 -0.368599 -1.126945 0
M  V30 307 H 5.373184 1.990584 -0.124494 0
M  V30 308 H 7.128257 2.079220 -3.790466 0
M  V30 309 H 5.195666 4.325280 -2.162905 0
M  V30 310 H 4.555184 3.950786 -2.880084 0
M  V30 311 H 7.115700 -4.041596 0.454968 0
M  V30 312 H 6.318159 -6.607403 1.492476 0
M  V30 313 H 7.986017 -5.839570 1.614707 0
M  V30 314 H 7.063798 -4.190722 4.836022 0
M  V30 315 H -1.697750 2.250423 -0.844588 0
M  V30 316 H -3.004757 2.599963 0.944788 0
M  V30 317 H -1.597330 2.270654 1.957761 0
M  V30 318 H -2.053900 3.998966 1.458044 0
M  V30 319 H -0.226763 3.993331 -1.639985 0
M  V30 320 H -0.009093 4.678880 -0.008538 0
M  V30 321 H -2.810124 4.385601 -0.417828 0
M  V30 322 H -2.090418 5.195911 -1.903154 0
M  V30 323 H -1.864480 5.876476 -0.233960 0
M  V30 324 H 1.653760 -5.324929 8.102512 0
M  V30 325 H 1.954318 -4.536349 10.549382 0
M  V30 326 H 1.338514 -2.898308 9.998372 0
M  V30 327 H 2.818181 -3.679280 9.273870 0
M  V30 328 H -0.729590 -4.701784 9.938651 0
M  V30 329 H 0.468673 -5.970967 10.173751 0
M  V30 330 H -0.936235 -7.321152 9.124694 0
M  V30 331 H -1.985569 -6.033142 8.564330 0
M  V30 332 H -0.574121 -6.565572 7.570731 0
M  V30 END ATOM
M  V30 BEGIN BOND
M  V30 1 1 1 2
M  V30 2 1 2 3
M  V30 3 1 3 4
M  V30 4 1 3 5
M  V30 5 1 5 6
M  V30 6 1 5 7
M  V30 7 2 7 8
M  V30 8 1 7 9
M  V30 9 1 9 10
M  V30 10 1 10 11
M  V30 11 1 11 12
M  V30 12 1 12 13
M  V30 13 1 13 14
M  V30 14 1 14 15
M  V30 15 1 10 16
M  V30 16 2 16 17
M  V30 17 1 16 18
M  V30 18 1 18 19
M  V30 19 1 19 20
M  V30 20 2 20 21
M  V30 21 1 20 22
M  V30 22 1 22 23
M  V30 23 1 23 24
M  V30 24 1 24 25
M  V30 25 1 25 26
M  V30 26 1 26 27
M  V30 27 1 27 28
M  V30 28 1 23 29
M  V30 29 2 29 30
M  V30 30 1 29 31
M  V30 31 1 31 32
M  V30 32 1 32 33
M  V30 33 1 33 34
M  V30 34 1 34 35
M  V30 35 1 35 36
M  V30 36 1 36 37
M  V30 37 1 32 38
M  V30 38 2 38 39
M  V30 39 1 38 40
M  V30 40 1 40 41
M  V30 41 1 41 42
M  V30 42 2 42 43
M  V30 43 1 42 44
M  V30 44 1 44 45
M  V30 45 1 45 46
M  V30 46 1 46 47
M  V30 47 1 47 48
M  V30 48 2 48 49
M  V30 49 1 48 50
M  V30 50 1 45 51
M  V30 51 2 51 52
M  V30 52 1 51 53
M  V30 53 1 53 54
M  V30 54 1 54 55
M  V30 55 1 55 56
M  V30 56 2 56 57
M  V30 57 1 56 58
M  V30 58 1 54 59
M  V30 59 2 59 60
M  V30 60 1 59 61
M  V30 61 1 61 62
M  V30 62 1 62 63
M  V30 63 1 62 64
M  V30 64 2 64 65
M  V30 65 1 64 66
M  V30 66 1 66 67
M  V30 67 1 67 68
M  V30 68 1 68 69
M  V30 69 1 67 70
M  V30 70 2 70 71
M  V30 71 1 70 72
M  V30 72 1 72 73
M  V30 73 1 73 74
M  V30 74 1 74 75
M  V30 75 1 75 76
M  V30 76 2 75 77
M  V30 77 1 73 78
M  V30 78 2 78 79
M  V30 79 1 78 80
M  V30 80 1 80 81
M  V30 81 1 81 82
M  V30 82 1 82 83
M  V30 83 1 83 84
M  V30 84 1 84 85
M  V30 85 2 85 86
M  V30 86 1 85 87
M  V30 87 1 87 88
M  V30 88 1 88 89
M  V30 89 1 89 90
M  V30 90 1 90 91
M  V30 91 1 90 92
M  V30 92 1 88 93
M  V30 93 2 93 94
M  V30 94 1 93 95
M  V30 95 1 95 96
M  V30 96 1 96 97
M  V30 97 1 97 98
M  V30 98 1 98 99
M  V30 99 1 98 100
M  V30 100 1 96 101
M  V30 101 2 101 102
M  V30 102 1 101 103
M  V30 103 1 103 104
M  V30 104 1 104 105
M  V30 105 1 105 106
M  V30 106 1 106 107
M  V30 107 1 106 108
M  V30 108 1 104 109
M  V30 109 2 109 110
M  V30 110 1 109 111
M  V30 111 1 111 112
M  V30 112 1 112 113
M  V30 113 1 113 114
M  V30 114 1 114 115
M  V30 115 1 115 116
M  V30 116 1 116 117
M  V30 117 1 112 118
M  V30 118 2 118 119
M  V30 119 1 118 120
M  V30 120 1 120 121
M  V30 121 1 121 122
M  V30 122 1 122 123
M  V30 123 1 123 124
M  V30 124 1 124 125
M  V30 125 1 125 126
M  V30 126 2 126 127 CFG=2
M  V30 127 1 126 128
M  V30 128 1 121 129
M  V30 129 2 129 130
M  V30 130 1 129 131
M  V30 131 1 131 132
M  V30 132 1 132 133
M  V30 133 1 133 134
M  V30 134 1 134 135
M  V30 135 1 135 136
M  V30 136 1 136 137
M  V30 137 2 137 138 CFG=2
M  V30 138 1 137 139
M  V30 139 1 132 140
M  V30 140 2 140 141
M  V30 141 1 140 142
M  V30 142 1 142 143
M  V30 143 1 143 144
M  V30 144 2 144 145
M  V30 145 1 144 146
M  V30 146 1 41 147
M  V30 147 1 147 148
M  V30 148 1 147 149
M  V30 149 1 149 150
M  V30 150 1 19 151
M  V30 151 1 151 152
M  V30 152 1 151 153
M  V30 153 1 153 154
M  V30 154 1 84 80
M  V30 155 1 1 155
M  V30 156 1 1 156
M  V30 157 1 1 157
M  V30 158 1 2 158
M  V30 159 1 2 159
M  V30 160 1 3 160 CFG=3
M  V30 161 1 4 161
M  V30 162 1 4 162
M  V30 163 1 4 163
M  V30 164 1 5 164 CFG=3
M  V30 165 1 6 165
M  V30 166 1 6 166
M  V30 167 1 9 167
M  V30 168 1 10 168 CFG=1
M  V30 169 1 11 169
M  V30 170 1 11 170
M  V30 171 1 12 171
M  V30 172 1 12 172
M  V30 173 1 13 173
M  V30 174 1 13 174
M  V30 175 1 14 175
M  V30 176 1 14 176
M  V30 177 1 15 177
M  V30 178 1 15 178
M  V30 179 1 18 179
M  V30 180 1 19 180 CFG=1
M  V30 181 1 22 181
M  V30 182 1 23 182 CFG=1
M  V30 183 1 24 183
M  V30 184 1 24 184
M  V30 185 1 25 185
M  V30 186 1 25 186
M  V30 187 1 26 187
M  V30 188 1 26 188
M  V30 189 1 27 189
M  V30 190 1 27 190
M  V30 191 1 28 191
M  V30 192 1 28 192
M  V30 193 1 31 193
M  V30 194 1 32 194 CFG=1
M  V30 195 1 33 195
M  V30 196 1 33 196
M  V30 197 1 34 197
M  V30 198 1 34 198
M  V30 199 1 35 199
M  V30 200 1 35 200
M  V30 201 1 36 201
M  V30 202 1 36 202
M  V30 203 1 37 203
M  V30 204 1 37 204
M  V30 205 1 40 205
M  V30 206 1 41 206 CFG=1
M  V30 207 1 44 207
M  V30 208 1 45 208 CFG=1
M  V30 209 1 46 209
M  V30 210 1 46 210
M  V30 211 1 47 211
M  V30 212 1 47 212
M  V30 213 1 50 213
M  V30 214 1 53 214
M  V30 215 1 54 215 CFG=1
M  V30 216 1 55 216
M  V30 217 1 55 217
M  V30 218 1 58 218
M  V30 219 1 61 219
M  V30 220 1 62 220 CFG=3
M  V30 221 1 63 221
M  V30 222 1 63 222
M  V30 223 1 63 223
M  V30 224 1 66 224
M  V30 225 1 67 225 CFG=1
M  V30 226 1 68 226
M  V30 227 1 68 227
M  V30 228 1 69 228
M  V30 229 1 72 229
M  V30 230 1 73 230 CFG=1
M  V30 231 1 74 231
M  V30 232 1 74 232
M  V30 233 1 76 233
M  V30 234 1 76 234
M  V30 235 1 81 235
M  V30 236 1 81 236
M  V30 237 1 82 237
M  V30 238 1 82 238
M  V30 239 1 83 239
M  V30 240 1 83 240
M  V30 241 1 84 241 CFG=1
M  V30 242 1 87 242
M  V30 243 1 88 243 CFG=3
M  V30 244 1 89 244
M  V30 245 1 89 245
M  V30 246 1 90 246
M  V30 247 1 91 247
M  V30 248 1 91 248
M  V30 249 1 91 249
M  V30 250 1 92 250
M  V30 251 1 92 251
M  V30 252 1 92 252
M  V30 253 1 95 253
M  V30 254 1 96 254 CFG=1
M  V30 255 1 97 255
M  V30 256 1 97 256
M  V30 257 1 98 257
M  V30 258 1 99 258
M  V30 259 1 99 259
M  V30 260 1 99 260
M  V30 261 1 100 261
M  V30 262 1 100 262
M  V30 263 1 100 263
M  V30 264 1 103 264
M  V30 265 1 104 265 CFG=3
M  V30 266 1 105 266
M  V30 267 1 105 267
M  V30 268 1 106 268
M  V30 269 1 107 269
M  V30 270 1 107 270
M  V30 271 1 107 271
M  V30 272 1 108 272
M  V30 273 1 108 273
M  V30 274 1 108 274
M  V30 275 1 111 275
M  V30 276 1 112 276 CFG=1
M  V30 277 1 113 277
M  V30 278 1 113 278
M  V30 279 1 114 279
M  V30 280 1 114 280
M  V30 281 1 115 281
M  V30 282 1 115 282
M  V30 283 1 116 283
M  V30 284 1 116 284
M  V30 285 1 117 285
M  V30 286 1 117 286
M  V30 287 1 120 287
M  V30 288 1 121 288 CFG=3
M  V30 289 1 122 289
M  V30 290 1 122 290
M  V30 291 1 123 291
M  V30 292 1 123 292
M  V30 293 1 124 293
M  V30 294 1 124 294
M  V30 295 1 125 295
M  V30 296 1 127 296
M  V30 297 1 128 297
M  V30 298 1 128 298
M  V30 299 1 131 299
M  V30 300 1 132 300 CFG=3
M  V30 301 1 133 301
M  V30 302 1 133 302
M  V30 303 1 134 303
M  V30 304 1 134 304
M  V30 305 1 135 305
M  V30 306 1 135 306
M  V30 307 1 136 307
M  V30 308 1 138 308
M  V30 309 1 139 309
M  V30 310 1 139 310
M  V30 311 1 142 311
M  V30 312 1 143 312
M  V30 313 1 143 313
M  V30 314 1 146 314
M  V30 315 1 147 315 CFG=3
M  V30 316 1 148 316
M  V30 317 1 148 317
M  V30 318 1 148 318
M  V30 319 1 149 319
M  V30 320 1 149 320
M  V30 321 1 150 321
M  V30 322 1 150 322
M  V30 323 1 150 323
M  V30 324 1 151 324 CFG=3
M  V30 325 1 152 325
M  V30 326 1 152 326
M  V30 327 1 152 327
M  V30 328 1 153 328
M  V30 329 1 153 329
M  V30 330 1 154 330
M  V30 331 1 154 331
M  V30 332 1 154 332
M  V30 END BOND
M  V30 END CTAB
M  END
>  <Dataset>  (141) 
ChEMBL_Kinases

>  <Ligand_Instance>  (141) 
nan

>  <PDB_ID>  (141) 
nan

>  <Standardized_SMILES>  (141) 
CC[C@H](C)[C@H](N)C(=O)N[C@@H](CCCCN)C(=O)N[C@H](C(=O)N[C@@H](CCCCN)C(=O)N[C@@H](CCCCN)C(=O)N[C@H](C(=O)N[C@@H](CCC(=O)O)C(=O)N[C@@H](CC(=O)O)C(=O)N[C@@H](C)C(=O)N[C@@H](CO)C(=O)N[C@@H](CC(N)=O)C(=O)N1CCC[C@H]1C(=O)N[C@@H](CC(C)C)C(=O)N[C@@H](CC(C)C)C(=O)N[C@@H](CC(C)C)C(=O)N[C@@H](CCCCN)C(=O)N[C@@H](CCCNC(=N)N)C(=O)N[C@@H](CCCNC(=N)N)C(=O)NCC(=O)O)[C@@H](C)CC)[C@@H](C)CC

>  <Name>  (141) 
nan

>  <Pocket>  (141) 
nan

>  <ATP_Site>  (141) 
nan

>  <Peripheral>  (141) 
nan

>  <Num_H_Atoms_ProtBoundConf>  (141) 
nan

>  <Num_Resolved_Atoms>  (141) 
nan

>  <Num_Not_Resolved_Atoms>  (141) 
nan

$$$$
CHEMBL4847255
     RDKit          3D

  0  0  0  0  0  0  0  0  0  0999 V3000
M  V30 BEGIN CTAB
M  V30 COUNTS 50 52 0 0 0
M  V30 BEGIN ATOM
M  V30 1 C 1.845497 -4.596476 0.607627 0
M  V30 2 O 0.595411 -4.850087 -0.004240 0
M  V30 3 C -0.338569 -3.834295 -0.137660 0
M  V30 4 C -0.110388 -2.548461 0.306936 0
M  V30 5 C -1.065745 -1.569346 0.154369 0
M  V30 6 N -0.925261 -0.225388 0.576414 0
M  V30 7 C -0.358665 0.501862 -0.502845 0
M  V30 8 O -0.027361 0.055179 -1.654776 0
M  V30 9 C 0.052568 1.904311 -0.764698 0 CFG=2
M  V30 10 N 0.506856 1.920703 -2.171549 0
M  V30 11 C 1.241741 2.356596 0.014404 0
M  V30 12 C 1.157590 2.334460 1.483399 0
M  V30 13 C 2.511857 2.851061 2.000899 0
M  V30 14 C 2.417506 3.066902 3.473395 0
M  V30 15 C 1.290398 2.339080 4.149104 0
M  V30 16 C -0.054572 2.664606 3.535483 0
M  V30 17 C 0.121226 3.194790 2.105301 0
M  V30 18 C -2.293931 -1.833795 -0.450861 0
M  V30 19 C -2.552291 -3.114942 -0.907324 0
M  V30 20 C -1.562205 -4.061753 -0.730976 0
M  V30 21 C -1.827416 -5.414777 -1.209735 0
M  V30 22 C -2.972348 -5.898505 -1.837576 0
M  V30 23 N -2.803370 -7.205557 -2.115166 0
M  V30 24 C -1.564071 -7.523371 -1.661579 0
M  V30 25 O -1.009224 -6.457526 -1.133998 0
M  V30 26 H 2.308910 -5.545094 0.989772 0
M  V30 27 H 2.556377 -4.153909 -0.125859 0
M  V30 28 H 1.771530 -3.938005 1.506289 0
M  V30 29 H 0.815973 -2.288789 0.779591 0
M  V30 30 H -1.061251 0.449272 1.334411 0
M  V30 31 H -0.791286 2.608676 -0.748961 0
M  V30 32 H 1.335441 1.287635 -2.225673 0
M  V30 33 H -0.209077 1.573358 -2.822686 0
M  V30 34 H 1.549415 3.350521 -0.322778 0
M  V30 35 H 2.083838 1.660440 -0.273551 0
M  V30 36 H 1.093727 1.293591 1.902451 0
M  V30 37 H 2.639451 3.845194 1.511737 0
M  V30 38 H 3.334315 2.174118 1.700265 0
M  V30 39 H 2.285990 4.150725 3.736202 0
M  V30 40 H 3.356471 2.715733 3.948639 0
M  V30 41 H 1.468466 1.248346 4.248664 0
M  V30 42 H 1.264854 2.724696 5.201268 0
M  V30 43 H -0.584489 1.685424 3.424996 0
M  V30 44 H -0.649520 3.322136 4.167848 0
M  V30 45 H 0.494454 4.249289 2.234503 0
M  V30 46 H -0.875522 3.179540 1.661170 0
M  V30 47 H -3.067819 -1.097577 -0.589731 0
M  V30 48 H -3.498479 -3.389574 -1.392643 0
M  V30 49 H -3.857048 -5.287199 -2.058116 0
M  V30 50 H -1.138434 -8.515255 -1.742895 0
M  V30 END ATOM
M  V30 BEGIN BOND
M  V30 1 1 1 2
M  V30 2 1 2 3
M  V30 3 2 3 4
M  V30 4 1 4 5
M  V30 5 1 5 6
M  V30 6 1 6 7
M  V30 7 2 7 8
M  V30 8 1 7 9
M  V30 9 1 9 10
M  V30 10 1 9 11
M  V30 11 1 11 12
M  V30 12 1 12 13
M  V30 13 1 13 14
M  V30 14 1 14 15
M  V30 15 1 15 16
M  V30 16 1 16 17
M  V30 17 2 5 18
M  V30 18 1 18 19
M  V30 19 2 19 20
M  V30 20 1 20 21
M  V30 21 2 21 22
M  V30 22 1 22 23
M  V30 23 2 23 24
M  V30 24 1 24 25
M  V30 25 1 20 3
M  V30 26 1 25 21
M  V30 27 1 17 12
M  V30 28 1 1 26
M  V30 29 1 1 27
M  V30 30 1 1 28
M  V30 31 1 4 29
M  V30 32 1 6 30
M  V30 33 1 9 31 CFG=3
M  V30 34 1 10 32
M  V30 35 1 10 33
M  V30 36 1 11 34
M  V30 37 1 11 35
M  V30 38 1 12 36
M  V30 39 1 13 37
M  V30 40 1 13 38
M  V30 41 1 14 39
M  V30 42 1 14 40
M  V30 43 1 15 41
M  V30 44 1 15 42
M  V30 45 1 16 43
M  V30 46 1 16 44
M  V30 47 1 17 45
M  V30 48 1 17 46
M  V30 49 1 18 47
M  V30 50 1 19 48
M  V30 51 1 22 49
M  V30 52 1 24 50
M  V30 END BOND
M  V30 END CTAB
M  END
>  <Dataset>  (142) 
ChEMBL_Kinases

>  <Ligand_Instance>  (142) 
nan

>  <PDB_ID>  (142) 
nan

>  <Standardized_SMILES>  (142) 
COc1cc(NC(=O)[C@H](N)CC2CCCCC2)ccc1-c1cnco1

>  <Name>  (142) 
nan

>  <Pocket>  (142) 
nan

>  <ATP_Site>  (142) 
nan

>  <Peripheral>  (142) 
nan

>  <Num_H_Atoms_ProtBoundConf>  (142) 
nan

>  <Num_Resolved_Atoms>  (142) 
nan

>  <Num_Not_Resolved_Atoms>  (142) 
nan

$$$$
CHEMBL4087727
     RDKit          3D

  0  0  0  0  0  0  0  0  0  0999 V3000
M  V30 BEGIN CTAB
M  V30 COUNTS 64 68 0 0 0
M  V30 BEGIN ATOM
M  V30 1 C 7.504678 0.689069 5.222076 0
M  V30 2 O 7.057301 -0.548572 4.735008 0
M  V30 3 C 5.970673 -0.754611 3.926900 0
M  V30 4 C 5.699533 -2.056881 3.557576 0
M  V30 5 C 4.617325 -2.363706 2.739084 0
M  V30 6 C 3.796746 -1.340426 2.286916 0
M  V30 7 C 4.084076 -0.024946 2.669611 0
M  V30 8 C 3.173560 1.003352 2.152265 0
M  V30 9 C 3.595945 2.286544 1.881155 0
M  V30 10 C 2.743972 3.250440 1.394853 0
M  V30 11 C 1.415102 2.970335 1.154881 0
M  V30 12 C 0.954376 1.697229 1.413696 0
M  V30 13 N -0.365910 1.151931 1.250804 0
M  V30 14 C -0.902425 1.109534 0.035066 0
M  V30 15 C -2.155186 0.539901 0.185899 0
M  V30 16 C -3.141050 0.275604 -0.893494 0
M  V30 17 N -3.171092 -1.125238 -1.256734 0
M  V30 18 C -4.114981 -1.443865 -2.289355 0
M  V30 19 C -4.046126 -2.923060 -2.596919 0
M  V30 20 C -5.003005 -3.343732 -3.665913 0
M  V30 21 C -4.680009 -2.644879 -4.947055 0
M  V30 22 C -3.261506 -2.762511 -5.396047 0
M  V30 23 C -2.237766 -2.698279 -4.312846 0
M  V30 24 C -2.653732 -3.343074 -3.015415 0
M  V30 25 C -2.322152 0.255642 1.530202 0
M  V30 26 C -3.323789 -0.299600 2.290221 0
M  V30 27 C -3.181179 -0.452983 3.664801 0
M  V30 28 C -2.025158 -0.047831 4.291365 0
M  V30 29 C -0.978267 0.518994 3.583165 0
M  V30 30 C -1.170548 0.651254 2.205347 0
M  V30 31 C 1.826012 0.722069 1.908205 0
M  V30 32 C 5.159126 0.267648 3.481004 0
M  V30 33 H 6.690860 1.440309 5.297034 0
M  V30 34 H 8.351960 1.040363 4.596406 0
M  V30 35 H 7.890615 0.497535 6.264039 0
M  V30 36 H 6.323257 -2.890456 3.893750 0
M  V30 37 H 4.450840 -3.420695 2.477956 0
M  V30 38 H 2.997339 -1.675381 1.668214 0
M  V30 39 H 4.636971 2.568948 2.050771 0
M  V30 40 H 3.035593 4.267691 1.169468 0
M  V30 41 H 0.638657 3.619458 0.778245 0
M  V30 42 H -0.535024 1.420564 -0.923937 0
M  V30 43 H -2.824256 0.845563 -1.797203 0
M  V30 44 H -4.134884 0.661781 -0.596639 0
M  V30 45 H -3.307340 -1.716700 -0.405478 0
M  V30 46 H -3.967702 -0.789233 -3.147882 0
M  V30 47 H -5.172665 -1.267262 -1.934295 0
M  V30 48 H -4.288687 -3.470296 -1.666624 0
M  V30 49 H -4.907754 -4.434389 -3.791286 0
M  V30 50 H -6.049200 -3.036352 -3.400341 0
M  V30 51 H -5.297537 -3.158079 -5.741010 0
M  V30 52 H -5.064445 -1.587689 -4.940660 0
M  V30 53 H -3.119122 -3.643177 -6.072803 0
M  V30 54 H -3.070325 -1.866430 -6.054312 0
M  V30 55 H -1.845696 -1.672385 -4.164382 0
M  V30 56 H -1.350587 -3.284789 -4.690586 0
M  V30 57 H -1.951875 -2.999359 -2.228001 0
M  V30 58 H -2.600995 -4.435380 -3.048143 0
M  V30 59 H -4.238913 -0.621964 1.803959 0
M  V30 60 H -3.959826 -0.890182 4.291337 0
M  V30 61 H -1.856031 -0.141958 5.361258 0
M  V30 62 H -0.037794 0.864253 3.992972 0
M  V30 63 H 1.552977 -0.316943 2.144616 0
M  V30 64 H 5.357512 1.291905 3.760949 0
M  V30 END ATOM
M  V30 BEGIN BOND
M  V30 1 1 1 2
M  V30 2 1 2 3
M  V30 3 2 3 4
M  V30 4 1 4 5
M  V30 5 2 5 6
M  V30 6 1 6 7
M  V30 7 1 7 8
M  V30 8 2 8 9
M  V30 9 1 9 10
M  V30 10 2 10 11
M  V30 11 1 11 12
M  V30 12 1 12 13
M  V30 13 1 13 14
M  V30 14 2 14 15
M  V30 15 1 15 16
M  V30 16 1 16 17
M  V30 17 1 17 18
M  V30 18 1 18 19
M  V30 19 1 19 20
M  V30 20 1 20 21
M  V30 21 1 21 22
M  V30 22 1 22 23
M  V30 23 1 23 24
M  V30 24 1 15 25
M  V30 25 2 25 26
M  V30 26 1 26 27
M  V30 27 2 27 28
M  V30 28 1 28 29
M  V30 29 2 29 30
M  V30 30 2 12 31
M  V30 31 2 7 32
M  V30 32 1 32 3
M  V30 33 1 31 8
M  V30 34 1 30 13
M  V30 35 1 24 19
M  V30 36 1 30 25
M  V30 37 1 1 33
M  V30 38 1 1 34
M  V30 39 1 1 35
M  V30 40 1 4 36
M  V30 41 1 5 37
M  V30 42 1 6 38
M  V30 43 1 9 39
M  V30 44 1 10 40
M  V30 45 1 11 41
M  V30 46 1 14 42
M  V30 47 1 16 43
M  V30 48 1 16 44
M  V30 49 1 17 45
M  V30 50 1 18 46
M  V30 51 1 18 47
M  V30 52 1 19 48
M  V30 53 1 20 49
M  V30 54 1 20 50
M  V30 55 1 21 51
M  V30 56 1 21 52
M  V30 57 1 22 53
M  V30 58 1 22 54
M  V30 59 1 23 55
M  V30 60 1 23 56
M  V30 61 1 24 57
M  V30 62 1 24 58
M  V30 63 1 26 59
M  V30 64 1 27 60
M  V30 65 1 28 61
M  V30 66 1 29 62
M  V30 67 1 31 63
M  V30 68 1 32 64
M  V30 END BOND
M  V30 END CTAB
M  END
>  <Dataset>  (143) 
ChEMBL_Kinases

>  <Ligand_Instance>  (143) 
nan

>  <PDB_ID>  (143) 
nan

>  <Standardized_SMILES>  (143) 
COc1cccc(-c2cccc(-n3cc(CNCC4CCCCC4)c4ccccc43)c2)c1

>  <Name>  (143) 
nan

>  <Pocket>  (143) 
nan

>  <ATP_Site>  (143) 
nan

>  <Peripheral>  (143) 
nan

>  <Num_H_Atoms_ProtBoundConf>  (143) 
nan

>  <Num_Resolved_Atoms>  (143) 
nan

>  <Num_Not_Resolved_Atoms>  (143) 
nan

$$$$
CHEMBL4087923
     RDKit          3D

  0  0  0  0  0  0  0  0  0  0999 V3000
M  V30 BEGIN CTAB
M  V30 COUNTS 28 30 0 0 0
M  V30 BEGIN ATOM
M  V30 1 N -0.995111 -2.453018 3.430386 0
M  V30 2 C -0.149392 -1.698257 3.180092 0
M  V30 3 C 0.900443 -0.775613 2.894096 0
M  V30 4 C 1.856653 -0.297786 3.766609 0
M  V30 5 N 2.725145 0.562349 3.146689 0
M  V30 6 C 2.344699 0.657342 1.853640 0
M  V30 7 N 2.814399 1.326231 0.786923 0
M  V30 8 C 2.274868 1.262363 -0.439072 0
M  V30 9 N 2.727162 1.950417 -1.583249 0
M  V30 10 N 1.178577 0.464989 -0.606847 0
M  V30 11 C 0.656438 -0.238274 0.438737 0
M  V30 12 C -0.509347 -1.092620 0.159354 0
M  V30 13 C -1.619661 -0.589217 0.861135 0
M  V30 14 C -2.847989 -1.210380 0.739748 0
M  V30 15 C -2.972921 -2.311297 -0.063313 0
M  V30 16 C -1.872329 -2.817830 -0.763973 0
M  V30 17 C -0.637102 -2.200764 -0.648352 0
M  V30 18 O 0.577535 -2.523516 -1.239380 0
M  V30 19 C 1.232917 -0.155167 1.691727 0
M  V30 20 H 1.934771 -0.563617 4.833712 0
M  V30 21 H 3.540063 1.055673 3.603809 0
M  V30 22 H 2.032747 2.756109 -1.627854 0
M  V30 23 H 3.519751 1.772630 -2.251269 0
M  V30 24 H -1.665206 0.270208 1.522411 0
M  V30 25 H -3.760248 -0.902026 1.231570 0
M  V30 26 H -3.891868 -2.879661 -0.243475 0
M  V30 27 H -1.849865 -3.674226 -1.418674 0
M  V30 28 H 0.660477 -2.948030 -2.152569 0
M  V30 END ATOM
M  V30 BEGIN BOND
M  V30 1 3 1 2
M  V30 2 1 2 3
M  V30 3 2 3 4
M  V30 4 1 4 5
M  V30 5 1 5 6
M  V30 6 2 6 7
M  V30 7 1 7 8
M  V30 8 1 8 9
M  V30 9 2 8 10
M  V30 10 1 10 11
M  V30 11 1 11 12
M  V30 12 2 12 13
M  V30 13 1 13 14
M  V30 14 2 14 15
M  V30 15 1 15 16
M  V30 16 2 16 17
M  V30 17 1 17 18
M  V30 18 2 11 19
M  V30 19 1 19 3
M  V30 20 1 19 6
M  V30 21 1 17 12
M  V30 22 1 4 20
M  V30 23 1 5 21
M  V30 24 1 9 22
M  V30 25 1 9 23
M  V30 26 1 13 24
M  V30 27 1 14 25
M  V30 28 1 15 26
M  V30 29 1 16 27
M  V30 30 1 18 28
M  V30 END BOND
M  V30 END CTAB
M  END
>  <Dataset>  (144) 
ChEMBL_Kinases

>  <Ligand_Instance>  (144) 
nan

>  <PDB_ID>  (144) 
nan

>  <Standardized_SMILES>  (144) 
N#Cc1c[nH]c2nc(N)nc(-c3ccccc3O)c12

>  <Name>  (144) 
nan

>  <Pocket>  (144) 
nan

>  <ATP_Site>  (144) 
nan

>  <Peripheral>  (144) 
nan

>  <Num_H_Atoms_ProtBoundConf>  (144) 
nan

>  <Num_Resolved_Atoms>  (144) 
nan

>  <Num_Not_Resolved_Atoms>  (144) 
nan

$$$$
CHEMBL4796519
     RDKit          3D

  0  0  0  0  0  0  0  0  0  0999 V3000
M  V30 BEGIN CTAB
M  V30 COUNTS 35 37 0 0 0
M  V30 BEGIN ATOM
M  V30 1 C 1.505384 -6.167594 2.633535 0
M  V30 2 S 2.256444 -4.838477 3.534274 0 CHG=1 VAL=3
M  V30 3 O 1.700473 -4.724796 5.092157 0 CHG=-1 VAL=1
M  V30 4 C 2.070021 -3.303587 2.707755 0
M  V30 5 C 3.131208 -2.624059 2.075280 0
M  V30 6 C 2.737480 -1.426825 1.485808 0
M  V30 7 C 1.497486 -0.877538 1.459858 0
M  V30 8 C 1.170209 0.369817 0.803676 0
M  V30 9 C 1.744675 1.288513 0.074084 0
M  V30 10 C 1.071620 2.360248 -0.411429 0
M  V30 11 N 1.356554 3.435453 -1.210284 0
M  V30 12 C 0.432701 4.304405 -1.552418 0
M  V30 13 N -0.866518 4.366009 -1.247417 0
M  V30 14 C -1.322171 3.344901 -0.429781 0
M  V30 15 S -2.963625 2.887867 0.162090 0
M  V30 16 C -3.632376 1.494888 -0.777662 0
M  V30 17 C -3.889371 1.713591 -2.202482 0
M  V30 18 O -4.305303 0.554228 -2.620956 0
M  V30 19 O -4.127937 1.939700 -3.553867 0
M  V30 20 C -0.282249 2.418820 -0.082427 0
M  V30 21 S -0.498171 0.959589 0.890780 0
M  V30 22 C 0.495708 -1.626617 2.118219 0
M  V30 23 C 0.795899 -2.839587 2.738896 0
M  V30 24 H 0.383050 -6.171035 2.782791 0
M  V30 25 H 1.887739 -7.129468 3.026291 0
M  V30 26 H 1.758734 -6.091778 1.575624 0
M  V30 27 H 4.115770 -3.057170 2.105677 0
M  V30 28 H 3.545288 -0.884006 0.986904 0
M  V30 29 H 2.811386 1.221979 -0.162349 0
M  V30 30 H 0.703999 5.164685 -2.201298 0
M  V30 31 H -4.560678 1.125326 -0.232762 0
M  V30 32 H -2.930472 0.595936 -0.701457 0
M  V30 33 H -3.320624 1.991778 -4.210470 0
M  V30 34 H -0.531987 -1.289839 2.157519 0
M  V30 35 H -0.046181 -3.356811 3.215131 0
M  V30 END ATOM
M  V30 BEGIN BOND
M  V30 1 1 1 2
M  V30 2 1 2 3
M  V30 3 1 2 4
M  V30 4 2 4 5
M  V30 5 1 5 6
M  V30 6 2 6 7
M  V30 7 1 7 8
M  V30 8 2 8 9
M  V30 9 1 9 10
M  V30 10 2 10 11
M  V30 11 1 11 12
M  V30 12 2 12 13
M  V30 13 1 13 14
M  V30 14 1 14 15
M  V30 15 1 15 16
M  V30 16 1 16 17
M  V30 17 2 17 18
M  V30 18 1 17 19
M  V30 19 2 14 20
M  V30 20 1 20 21
M  V30 21 1 7 22
M  V30 22 2 22 23
M  V30 23 1 23 4
M  V30 24 1 21 8
M  V30 25 1 20 10
M  V30 26 1 1 24
M  V30 27 1 1 25
M  V30 28 1 1 26
M  V30 29 1 5 27
M  V30 30 1 6 28
M  V30 31 1 9 29
M  V30 32 1 12 30
M  V30 33 1 16 31
M  V30 34 1 16 32
M  V30 35 1 19 33
M  V30 36 1 22 34
M  V30 37 1 23 35
M  V30 END BOND
M  V30 END CTAB
M  END
>  <Dataset>  (145) 
ChEMBL_Kinases

>  <Ligand_Instance>  (145) 
nan

>  <PDB_ID>  (145) 
nan

>  <Standardized_SMILES>  (145) 
C[S+]([O-])c1ccc(-c2cc3ncnc(SCC(=O)O)c3s2)cc1

>  <Name>  (145) 
nan

>  <Pocket>  (145) 
nan

>  <ATP_Site>  (145) 
nan

>  <Peripheral>  (145) 
nan

>  <Num_H_Atoms_ProtBoundConf>  (145) 
nan

>  <Num_Resolved_Atoms>  (145) 
nan

>  <Num_Not_Resolved_Atoms>  (145) 
nan

$$$$
CHEMBL4796600
     RDKit          3D

  0  0  0  0  0  0  0  0  0  0999 V3000
M  V30 BEGIN CTAB
M  V30 COUNTS 43 46 0 0 0
M  V30 BEGIN ATOM
M  V30 1 O -0.570000 -5.296372 2.166662 0
M  V30 2 C 0.137967 -5.182189 1.119066 0
M  V30 3 C 0.779315 -6.377072 0.487922 0
M  V30 4 C 1.699260 -5.894759 -0.606837 0
M  V30 5 C 0.953962 -4.949831 -1.543323 0
M  V30 6 C 0.691069 -3.726838 -0.740002 0
M  V30 7 C 0.854540 -2.496846 -1.323032 0
M  V30 8 C 0.632695 -1.315046 -0.651403 0
M  V30 9 N 0.813114 -0.062213 -1.290502 0
M  V30 10 C 0.632094 1.240759 -0.757421 0
M  V30 11 N 0.858493 2.311123 -1.537963 0
M  V30 12 C 0.712493 3.574490 -1.116995 0
M  V30 13 C 0.311214 3.822363 0.176022 0
M  V30 14 C 0.123483 5.185437 0.728383 0
M  V30 15 F 0.943316 5.434017 1.812212 0
M  V30 16 F -1.196898 5.381804 1.097700 0
M  V30 17 F 0.413922 6.164381 -0.204111 0
M  V30 18 C 0.071922 2.755912 0.998287 0
M  V30 19 N -0.351879 2.906780 2.368588 0
M  V30 20 C -0.631208 1.858029 3.320135 0
M  V30 21 C -1.060190 2.170734 4.700815 0
M  V30 22 C 0.358507 1.740545 4.449063 0
M  V30 23 N 0.247178 1.535121 0.480489 0
M  V30 24 C 0.233081 -1.489238 0.655019 0
M  V30 25 C 0.053428 -2.699087 1.289802 0
M  V30 26 C 0.288548 -3.838637 0.573245 0
M  V30 27 H 0.037762 -7.111502 0.138537 0
M  V30 28 H 1.419059 -6.887585 1.259574 0
M  V30 29 H 2.497505 -5.291756 -0.140498 0
M  V30 30 H 2.093476 -6.774413 -1.155223 0
M  V30 31 H 1.558486 -4.720239 -2.423001 0
M  V30 32 H -0.016883 -5.412037 -1.861081 0
M  V30 33 H 1.172219 -2.465107 -2.357108 0
M  V30 34 H 1.123161 -0.119837 -2.295402 0
M  V30 35 H 0.900384 4.407365 -1.762459 0
M  V30 36 H -0.471056 3.867922 2.715212 0
M  V30 37 H -0.933258 0.867102 2.897898 0
M  V30 38 H -1.727762 1.427945 5.190793 0
M  V30 39 H -1.266706 3.201842 5.024143 0
M  V30 40 H 1.116411 2.531153 4.610141 0
M  V30 41 H 0.705221 0.752497 4.796139 0
M  V30 42 H 0.030355 -0.632788 1.278211 0
M  V30 43 H -0.262834 -2.773309 2.321093 0
M  V30 END ATOM
M  V30 BEGIN BOND
M  V30 1 2 1 2
M  V30 2 1 2 3
M  V30 3 1 3 4
M  V30 4 1 4 5
M  V30 5 1 5 6
M  V30 6 2 6 7
M  V30 7 1 7 8
M  V30 8 1 8 9
M  V30 9 1 9 10
M  V30 10 2 10 11
M  V30 11 1 11 12
M  V30 12 2 12 13
M  V30 13 1 13 14
M  V30 14 1 14 15
M  V30 15 1 14 16
M  V30 16 1 14 17
M  V30 17 1 13 18
M  V30 18 1 18 19
M  V30 19 1 19 20
M  V30 20 1 20 21
M  V30 21 1 21 22
M  V30 22 2 18 23
M  V30 23 2 8 24
M  V30 24 1 24 25
M  V30 25 2 25 26
M  V30 26 1 26 2
M  V30 27 1 26 6
M  V30 28 1 23 10
M  V30 29 1 22 20
M  V30 30 1 3 27
M  V30 31 1 3 28
M  V30 32 1 4 29
M  V30 33 1 4 30
M  V30 34 1 5 31
M  V30 35 1 5 32
M  V30 36 1 7 33
M  V30 37 1 9 34
M  V30 38 1 12 35
M  V30 39 1 19 36
M  V30 40 1 20 37
M  V30 41 1 21 38
M  V30 42 1 21 39
M  V30 43 1 22 40
M  V30 44 1 22 41
M  V30 45 1 24 42
M  V30 46 1 25 43
M  V30 END BOND
M  V30 END CTAB
M  END
>  <Dataset>  (146) 
ChEMBL_Kinases

>  <Ligand_Instance>  (146) 
nan

>  <PDB_ID>  (146) 
nan

>  <Standardized_SMILES>  (146) 
O=C1CCCc2cc(Nc3ncc(C(F)(F)F)c(NC4CC4)n3)ccc21

>  <Name>  (146) 
nan

>  <Pocket>  (146) 
nan

>  <ATP_Site>  (146) 
nan

>  <Peripheral>  (146) 
nan

>  <Num_H_Atoms_ProtBoundConf>  (146) 
nan

>  <Num_Resolved_Atoms>  (146) 
nan

>  <Num_Not_Resolved_Atoms>  (146) 
nan

$$$$
CHEMBL4796602
     RDKit          3D

  0  0  0  0  0  0  0  0  0  0999 V3000
M  V30 BEGIN CTAB
M  V30 COUNTS 81 87 0 0 0
M  V30 BEGIN ATOM
M  V30 1 C -4.332905 -5.967254 7.691234 0
M  V30 2 N -3.907781 -5.972889 6.303626 0
M  V30 3 C -3.566109 -4.690972 5.753808 0
M  V30 4 O -3.620267 -3.634597 6.394557 0
M  V30 5 C -3.136571 -4.766348 4.321450 0
M  V30 6 S -2.995653 -6.219550 3.224046 0
M  V30 7 C -2.407075 -5.129750 1.786538 0
M  V30 8 C -2.103857 -5.854983 0.479400 0
M  V30 9 C -2.237422 -7.199409 0.324901 0
M  V30 10 C -1.914271 -7.691340 -0.946611 0
M  V30 11 N -1.505164 -6.842550 -1.909819 0
M  V30 12 C -1.387518 -5.502063 -1.705013 0
M  V30 13 N -0.946413 -4.623877 -2.760692 0
M  V30 14 C -2.042853 -4.140375 -3.521401 0
M  V30 15 O -3.261652 -4.414689 -3.336648 0
M  V30 16 C -1.800062 -3.214806 -4.663655 0
M  V30 17 C -0.752750 -2.134498 -4.327054 0
M  V30 18 C -0.495669 -3.159494 -5.355185 0
M  V30 19 C -1.697173 -4.955365 -0.453358 0
M  V30 20 N -2.413408 -4.099679 2.259772 0
M  V30 21 C -2.740648 -3.743434 3.481758 0
M  V30 22 O -2.723937 -2.433146 4.002438 0
M  V30 23 C -2.341486 -1.304931 3.254748 0
M  V30 24 C -2.425188 -0.044510 4.072285 0
M  V30 25 C -2.013944 1.152820 3.265079 0
M  V30 26 C -0.741577 1.672839 3.144329 0
M  V30 27 N -0.765961 2.752381 2.332091 0
M  V30 28 C 0.367175 3.600349 1.938203 0
M  V30 29 C 1.001295 3.040656 0.669803 0
M  V30 30 N 2.119474 3.843901 0.244229 0
M  V30 31 C 2.932860 3.566380 -0.905353 0
M  V30 32 C 2.761703 3.994202 -2.218842 0
M  V30 33 C 3.687007 3.588532 -3.143235 0
M  V30 34 N 4.731982 2.806302 -2.823278 0
M  V30 35 C 4.935825 2.369927 -1.566344 0
M  V30 36 C 6.022813 1.582070 -1.338594 0
M  V30 37 C 6.241783 1.131724 -0.062130 0
M  V30 38 C 5.369051 1.477187 0.966683 0
M  V30 39 C 4.294892 2.274145 0.663882 0
M  V30 40 C 4.026877 2.755093 -0.602345 0
M  V30 41 C 3.514827 4.038435 -4.545093 0
M  V30 42 C 2.685548 5.304068 -4.616669 0
M  V30 43 C 1.388558 5.149073 -3.855123 0
M  V30 44 C 1.570801 4.843429 -2.404264 0
M  V30 45 N -2.027571 2.905708 1.951812 0
M  V30 46 N -2.784660 1.968394 2.493161 0
M  V30 47 H -4.547254 -7.005310 7.977285 0
M  V30 48 H -3.621340 -5.452477 8.340113 0
M  V30 49 H -5.287326 -5.398706 7.738525 0
M  V30 50 H -3.855701 -6.870159 5.739369 0
M  V30 51 H -2.574119 -7.792135 1.164217 0
M  V30 52 H -2.011573 -8.758062 -1.097557 0
M  V30 53 H 0.008891 -4.304597 -3.038287 0
M  V30 54 H -2.688020 -2.866956 -5.224553 0
M  V30 55 H -1.056981 -1.094199 -4.571033 0
M  V30 56 H -0.206927 -2.197569 -3.380462 0
M  V30 57 H 0.317127 -3.879663 -5.134626 0
M  V30 58 H -0.490951 -2.857046 -6.423531 0
M  V30 59 H -1.592158 -3.890438 -0.328968 0
M  V30 60 H -2.914614 -1.180059 2.331248 0
M  V30 61 H -1.249497 -1.465759 3.022883 0
M  V30 62 H -1.707810 -0.070548 4.932737 0
M  V30 63 H -3.426848 0.099006 4.525320 0
M  V30 64 H 0.143249 1.283868 3.621493 0
M  V30 65 H -0.050983 4.605880 1.747526 0
M  V30 66 H 1.087757 3.582768 2.778258 0
M  V30 67 H 1.362050 2.021059 0.878841 0
M  V30 68 H 0.214162 3.016092 -0.111678 0
M  V30 69 H 2.591213 4.712178 0.580884 0
M  V30 70 H 6.739299 1.276807 -2.091256 0
M  V30 71 H 7.070331 0.500595 0.241163 0
M  V30 72 H 5.514685 1.138794 1.980514 0
M  V30 73 H 3.628216 2.533295 1.471532 0
M  V30 74 H 3.064044 3.247136 -5.146591 0
M  V30 75 H 4.519135 4.258478 -4.961407 0
M  V30 76 H 3.229842 6.162035 -4.175522 0
M  V30 77 H 2.452698 5.537835 -5.658617 0
M  V30 78 H 0.806204 4.342954 -4.365315 0
M  V30 79 H 0.824639 6.099620 -3.956096 0
M  V30 80 H 1.670571 5.810787 -1.875043 0
M  V30 81 H 0.635549 4.350455 -2.059319 0
M  V30 END ATOM
M  V30 BEGIN BOND
M  V30 1 1 1 2
M  V30 2 1 2 3
M  V30 3 2 3 4
M  V30 4 1 3 5
M  V30 5 1 5 6
M  V30 6 1 6 7
M  V30 7 1 7 8
M  V30 8 2 8 9
M  V30 9 1 9 10
M  V30 10 2 10 11
M  V30 11 1 11 12
M  V30 12 1 12 13
M  V30 13 1 13 14
M  V30 14 2 14 15
M  V30 15 1 14 16
M  V30 16 1 16 17
M  V30 17 1 17 18
M  V30 18 2 12 19
M  V30 19 2 7 20
M  V30 20 1 20 21
M  V30 21 1 21 22
M  V30 22 1 22 23
M  V30 23 1 23 24
M  V30 24 1 24 25
M  V30 25 2 25 26
M  V30 26 1 26 27
M  V30 27 1 27 28
M  V30 28 1 28 29
M  V30 29 1 29 30
M  V30 30 1 30 31
M  V30 31 2 31 32
M  V30 32 1 32 33
M  V30 33 2 33 34
M  V30 34 1 34 35
M  V30 35 2 35 36
M  V30 36 1 36 37
M  V30 37 2 37 38
M  V30 38 1 38 39
M  V30 39 2 39 40
M  V30 40 1 33 41
M  V30 41 1 41 42
M  V30 42 1 42 43
M  V30 43 1 43 44
M  V30 44 1 27 45
M  V30 45 2 45 46
M  V30 46 2 21 5
M  V30 47 1 46 25
M  V30 48 1 19 8
M  V30 49 1 40 31
M  V30 50 1 18 16
M  V30 51 1 44 32
M  V30 52 1 40 35
M  V30 53 1 1 47
M  V30 54 1 1 48
M  V30 55 1 1 49
M  V30 56 1 2 50
M  V30 57 1 9 51
M  V30 58 1 10 52
M  V30 59 1 13 53
M  V30 60 1 16 54
M  V30 61 1 17 55
M  V30 62 1 17 56
M  V30 63 1 18 57
M  V30 64 1 18 58
M  V30 65 1 19 59
M  V30 66 1 23 60
M  V30 67 1 23 61
M  V30 68 1 24 62
M  V30 69 1 24 63
M  V30 70 1 26 64
M  V30 71 1 28 65
M  V30 72 1 28 66
M  V30 73 1 29 67
M  V30 74 1 29 68
M  V30 75 1 30 69
M  V30 76 1 36 70
M  V30 77 1 37 71
M  V30 78 1 38 72
M  V30 79 1 39 73
M  V30 80 1 41 74
M  V30 81 1 41 75
M  V30 82 1 42 76
M  V30 83 1 42 77
M  V30 84 1 43 78
M  V30 85 1 43 79
M  V30 86 1 44 80
M  V30 87 1 44 81
M  V30 END BOND
M  V30 END CTAB
M  END
>  <Dataset>  (147) 
ChEMBL_Kinases

>  <Ligand_Instance>  (147) 
nan

>  <PDB_ID>  (147) 
nan

>  <Standardized_SMILES>  (147) 
CNC(=O)c1sc(-c2ccnc(NC(=O)C3CC3)c2)nc1OCCc1cn(CCNc2c3c(nc4ccccc24)CCCC3)nn1

>  <Name>  (147) 
nan

>  <Pocket>  (147) 
nan

>  <ATP_Site>  (147) 
nan

>  <Peripheral>  (147) 
nan

>  <Num_H_Atoms_ProtBoundConf>  (147) 
nan

>  <Num_Resolved_Atoms>  (147) 
nan

>  <Num_Not_Resolved_Atoms>  (147) 
nan

$$$$
CHEMBL4796617
     RDKit          3D

  0  0  0  0  0  0  0  0  0  0999 V3000
M  V30 BEGIN CTAB
M  V30 COUNTS 58 61 0 0 0
M  V30 BEGIN ATOM
M  V30 1 C 4.736395 -4.427635 5.567846 0
M  V30 2 O 5.375050 -3.164013 5.592596 0
M  V30 3 C 4.883521 -2.147227 4.785265 0
M  V30 4 C 5.497422 -0.911613 4.800830 0
M  V30 5 C 5.001276 0.091964 3.994932 0
M  V30 6 C 3.919428 -0.038887 3.156587 0
M  V30 7 C 3.420492 1.039113 2.319075 0
M  V30 8 C 4.034820 2.266807 2.338358 0
M  V30 9 C 3.543536 3.260901 1.540462 0
M  V30 10 N 2.482853 3.001427 0.770505 0
M  V30 11 C 1.845460 1.822517 0.712906 0
M  V30 12 N 0.731183 1.671881 -0.144103 0
M  V30 13 C -0.080919 0.529772 -0.360809 0
M  V30 14 C 0.096127 -0.680650 0.261835 0
M  V30 15 C -0.658878 -1.819480 0.089642 0
M  V30 16 C -1.708646 -1.746670 -0.802050 0
M  V30 17 C -1.932037 -0.523998 -1.464680 0
M  V30 18 C -1.127025 0.607066 -1.250527 0
M  V30 19 N -3.048499 -0.430474 -2.357319 0
M  V30 20 C -3.839721 0.735578 -2.410673 0
M  V30 21 C -3.682227 1.794607 -1.359787 0
M  V30 22 C -5.347219 0.435663 -2.429046 0
M  V30 23 C -3.314269 -1.595545 -3.191462 0 CFG=2
M  V30 24 C -4.277898 -1.498759 -4.272337 0
M  V30 25 C -3.609135 -2.648106 -2.140131 0
M  V30 26 O -4.615178 -3.400652 -1.972303 0
M  V30 27 N -2.570613 -2.841550 -1.144788 0
M  V30 28 C -2.333008 -4.111591 -0.431714 0
M  V30 29 N 2.366780 0.892227 1.510248 0
M  V30 30 C 3.348072 -1.291982 3.182949 0
M  V30 31 C 3.787339 -2.349062 3.963233 0
M  V30 32 H 4.865723 -4.953674 4.603317 0
M  V30 33 H 5.064920 -5.059993 6.425910 0
M  V30 34 H 3.625918 -4.315143 5.713321 0
M  V30 35 H 6.339246 -0.787237 5.444261 0
M  V30 36 H 5.542746 1.016166 4.074291 0
M  V30 37 H 4.890146 2.530459 2.937715 0
M  V30 38 H 3.975777 4.261718 1.499791 0
M  V30 39 H 0.463573 2.531433 -0.703871 0
M  V30 40 H 0.892446 -0.819645 0.971537 0
M  V30 41 H -0.493456 -2.747908 0.591265 0
M  V30 42 H -1.366527 1.493332 -1.819551 0
M  V30 43 H -3.650977 1.197244 -3.432505 0
M  V30 44 H -4.703827 2.172650 -0.987903 0
M  V30 45 H -3.285329 2.775331 -1.764837 0
M  V30 46 H -3.235980 1.480905 -0.413717 0
M  V30 47 H -5.858931 0.971615 -3.223910 0
M  V30 48 H -5.854806 0.847989 -1.499838 0
M  V30 49 H -5.510080 -0.631742 -2.328090 0
M  V30 50 H -2.375040 -1.966274 -3.653791 0
M  V30 51 H -5.230242 -2.092509 -4.176340 0
M  V30 52 H -4.458041 -0.432626 -4.546237 0
M  V30 53 H -3.906995 -1.903094 -5.272575 0
M  V30 54 H -2.128225 -3.967918 0.628591 0
M  V30 55 H -1.424736 -4.520773 -0.928823 0
M  V30 56 H -3.177897 -4.794363 -0.647808 0
M  V30 57 H 2.500820 -1.529214 2.579782 0
M  V30 58 H 3.319900 -3.316208 3.961742 0
M  V30 END ATOM
M  V30 BEGIN BOND
M  V30 1 1 1 2
M  V30 2 1 2 3
M  V30 3 2 3 4
M  V30 4 1 4 5
M  V30 5 2 5 6
M  V30 6 1 6 7
M  V30 7 2 7 8
M  V30 8 1 8 9
M  V30 9 2 9 10
M  V30 10 1 10 11
M  V30 11 1 11 12
M  V30 12 1 12 13
M  V30 13 2 13 14
M  V30 14 1 14 15
M  V30 15 2 15 16
M  V30 16 1 16 17
M  V30 17 2 17 18
M  V30 18 1 17 19
M  V30 19 1 19 20
M  V30 20 1 20 21
M  V30 21 1 20 22
M  V30 22 1 19 23
M  V30 23 1 23 24
M  V30 24 1 23 25
M  V30 25 2 25 26
M  V30 26 1 25 27
M  V30 27 1 27 28
M  V30 28 2 11 29
M  V30 29 1 6 30
M  V30 30 2 30 31
M  V30 31 1 31 3
M  V30 32 1 29 7
M  V30 33 1 18 13
M  V30 34 1 27 16
M  V30 35 1 1 32
M  V30 36 1 1 33
M  V30 37 1 1 34
M  V30 38 1 4 35
M  V30 39 1 5 36
M  V30 40 1 8 37
M  V30 41 1 9 38
M  V30 42 1 12 39
M  V30 43 1 14 40
M  V30 44 1 15 41
M  V30 45 1 18 42
M  V30 46 1 20 43
M  V30 47 1 21 44
M  V30 48 1 21 45
M  V30 49 1 21 46
M  V30 50 1 22 47
M  V30 51 1 22 48
M  V30 52 1 22 49
M  V30 53 1 23 50 CFG=3
M  V30 54 1 24 51
M  V30 55 1 24 52
M  V30 56 1 24 53
M  V30 57 1 28 54
M  V30 58 1 28 55
M  V30 59 1 28 56
M  V30 60 1 30 57
M  V30 61 1 31 58
M  V30 END BOND
M  V30 END CTAB
M  END
>  <Dataset>  (148) 
ChEMBL_Kinases

>  <Ligand_Instance>  (148) 
nan

>  <PDB_ID>  (148) 
nan

>  <Standardized_SMILES>  (148) 
COc1ccc(-c2ccnc(Nc3ccc4c(c3)N(C(C)C)[C@H](C)C(=O)N4C)n2)cc1

>  <Name>  (148) 
nan

>  <Pocket>  (148) 
nan

>  <ATP_Site>  (148) 
nan

>  <Peripheral>  (148) 
nan

>  <Num_H_Atoms_ProtBoundConf>  (148) 
nan

>  <Num_Resolved_Atoms>  (148) 
nan

>  <Num_Not_Resolved_Atoms>  (148) 
nan

$$$$
CHEMBL4796622
     RDKit          3D

  0  0  0  0  0  0  0  0  0  0999 V3000
M  V30 BEGIN CTAB
M  V30 COUNTS 30 31 0 0 0
M  V30 BEGIN ATOM
M  V30 1 C -2.554702 -3.384280 0.565355 0
M  V30 2 C -1.827045 -3.845265 1.792342 0
M  V30 3 C -0.463557 -3.209145 1.929306 0
M  V30 4 C 0.447909 -3.514954 0.763210 0
M  V30 5 N 1.745285 -2.867531 0.966050 0
M  V30 6 C 1.580791 -1.411995 1.070536 0
M  V30 7 N 1.597729 -0.614697 0.258025 0
M  V30 8 C 1.454174 0.695430 0.315332 0
M  V30 9 C 1.475621 1.657167 -0.673033 0
M  V30 10 C 1.298182 2.982991 -0.353706 0
M  V30 11 N 1.327728 3.959101 -1.420098 0 CHG=1 VAL=4
M  V30 12 O 1.171545 5.170758 -1.177084 0
M  V30 13 O 1.528056 3.582000 -2.728248 0 CHG=-1 VAL=1
M  V30 14 C 1.089834 3.458660 0.936409 0
M  V30 15 C 1.056489 2.553353 1.973683 0
M  V30 16 C 1.243825 1.217516 1.582412 0
M  V30 17 S 1.275982 -0.337276 2.637268 0
M  V30 18 H -2.000981 -2.662156 -0.056002 0
M  V30 19 H -2.763088 -4.298390 -0.062265 0
M  V30 20 H -3.566562 -2.958008 0.770629 0
M  V30 21 H -1.800719 -4.944081 1.897895 0
M  V30 22 H -2.418851 -3.467100 2.662046 0
M  V30 23 H -0.604579 -2.118787 1.995853 0
M  V30 24 H 0.008492 -3.554184 2.856368 0
M  V30 25 H 0.653931 -4.576272 0.639161 0
M  V30 26 H 0.004231 -3.039742 -0.133637 0
M  V30 27 H 2.754704 -3.112769 1.060446 0
M  V30 28 H 1.630410 1.417965 -1.728160 0
M  V30 29 H 0.947814 4.487868 1.219039 0
M  V30 30 H 0.910227 2.716682 3.023771 0
M  V30 END ATOM
M  V30 BEGIN BOND
M  V30 1 1 1 2
M  V30 2 1 2 3
M  V30 3 1 3 4
M  V30 4 1 4 5
M  V30 5 1 5 6
M  V30 6 2 6 7
M  V30 7 1 7 8
M  V30 8 2 8 9
M  V30 9 1 9 10
M  V30 10 1 10 11
M  V30 11 2 11 12
M  V30 12 1 11 13
M  V30 13 2 10 14
M  V30 14 1 14 15
M  V30 15 2 15 16
M  V30 16 1 16 17
M  V30 17 1 17 6
M  V30 18 1 16 8
M  V30 19 1 1 18
M  V30 20 1 1 19
M  V30 21 1 1 20
M  V30 22 1 2 21
M  V30 23 1 2 22
M  V30 24 1 3 23
M  V30 25 1 3 24
M  V30 26 1 4 25
M  V30 27 1 4 26
M  V30 28 1 5 27
M  V30 29 1 9 28
M  V30 30 1 14 29
M  V30 31 1 15 30
M  V30 END BOND
M  V30 END CTAB
M  END
>  <Dataset>  (149) 
ChEMBL_Kinases

>  <Ligand_Instance>  (149) 
nan

>  <PDB_ID>  (149) 
nan

>  <Standardized_SMILES>  (149) 
CCCCNc1nc2cc([N+](=O)[O-])ccc2s1

>  <Name>  (149) 
nan

>  <Pocket>  (149) 
nan

>  <ATP_Site>  (149) 
nan

>  <Peripheral>  (149) 
nan

>  <Num_H_Atoms_ProtBoundConf>  (149) 
nan

>  <Num_Resolved_Atoms>  (149) 
nan

>  <Num_Not_Resolved_Atoms>  (149) 
nan

$$$$
CHEMBL4796652
     RDKit          3D

  0  0  0  0  0  0  0  0  0  0999 V3000
M  V30 BEGIN CTAB
M  V30 COUNTS 47 51 0 0 0
M  V30 BEGIN ATOM
M  V30 1 O 1.876571 3.391066 1.110663 0
M  V30 2 C 1.267101 2.339952 0.889895 0
M  V30 3 N 1.001143 1.907988 -0.431643 0
M  V30 4 C 1.382272 2.594295 -1.660867 0
M  V30 5 C 2.831107 2.334848 -1.867418 0
M  V30 6 C 3.886824 3.105615 -1.428953 0
M  V30 7 C 5.199223 2.737052 -1.690642 0
M  V30 8 C 5.448870 1.581247 -2.400909 0
M  V30 9 C 4.411214 0.789947 -2.852746 0
M  V30 10 C 3.112062 1.182591 -2.576441 0
M  V30 11 C 0.851505 1.593691 2.068580 0
M  V30 12 C 1.158006 2.075896 3.324177 0
M  V30 13 N 0.798615 1.429471 4.472552 0
M  V30 14 C 0.109514 0.260170 4.405011 0
M  V30 15 N -0.383634 -0.606769 5.323846 0
M  V30 16 C -1.001430 -1.637921 4.711621 0
M  V30 17 C -0.927475 -1.469382 3.344691 0
M  V30 18 C -1.464433 -2.346562 2.301860 0
M  V30 19 C -0.834569 -2.765730 1.147291 0
M  V30 20 C -1.508721 -3.598528 0.272272 0
M  V30 21 Cl -0.669417 -4.104111 -1.180227 0
M  V30 22 C -2.813234 -4.021996 0.536124 0
M  V30 23 N -3.451556 -4.835054 -0.334438 0
M  V30 24 C -4.726567 -5.268430 -0.110173 0
M  V30 25 C -5.358475 -4.846752 1.050584 0
M  V30 26 C -4.715788 -4.016003 1.947037 0
M  V30 27 C -3.420419 -3.587419 1.699826 0
M  V30 28 C -2.769542 -2.744530 2.608638 0
M  V30 29 C -0.234130 -0.286041 3.185968 0
M  V30 30 C 0.152609 0.406118 2.058674 0
M  V30 31 H 0.475850 1.000237 -0.559722 0
M  V30 32 H 1.178340 3.686683 -1.556932 0
M  V30 33 H 0.796465 2.229348 -2.521835 0
M  V30 34 H 3.633683 3.993795 -0.885348 0
M  V30 35 H 5.933679 3.433755 -1.287978 0
M  V30 36 H 6.517329 1.387191 -2.548495 0
M  V30 37 H 4.699466 -0.096125 -3.400625 0
M  V30 38 H 2.373536 0.487591 -2.978544 0
M  V30 39 H 1.712149 3.012579 3.467166 0
M  V30 40 H -0.304520 -0.503817 6.370536 0
M  V30 41 H -1.475598 -2.460427 5.237147 0
M  V30 42 H 0.165531 -2.393696 1.023277 0
M  V30 43 H -5.233398 -5.918665 -0.809518 0
M  V30 44 H -6.386550 -5.203931 1.218812 0
M  V30 45 H -5.257663 -3.710103 2.850397 0
M  V30 46 H -3.333603 -2.469352 3.476729 0
M  V30 47 H -0.111855 -0.014052 1.101674 0
M  V30 END ATOM
M  V30 BEGIN BOND
M  V30 1 2 1 2
M  V30 2 1 2 3
M  V30 3 1 3 4
M  V30 4 1 4 5
M  V30 5 2 5 6
M  V30 6 1 6 7
M  V30 7 2 7 8
M  V30 8 1 8 9
M  V30 9 2 9 10
M  V30 10 1 2 11
M  V30 11 2 11 12
M  V30 12 1 12 13
M  V30 13 2 13 14
M  V30 14 1 14 15
M  V30 15 1 15 16
M  V30 16 2 16 17
M  V30 17 1 17 18
M  V30 18 2 18 19
M  V30 19 1 19 20
M  V30 20 1 20 21
M  V30 21 2 20 22
M  V30 22 1 22 23
M  V30 23 2 23 24
M  V30 24 1 24 25
M  V30 25 2 25 26
M  V30 26 1 26 27
M  V30 27 2 27 28
M  V30 28 1 17 29
M  V30 29 2 29 30
M  V30 30 1 10 5
M  V30 31 1 30 11
M  V30 32 1 29 14
M  V30 33 1 28 18
M  V30 34 1 27 22
M  V30 35 1 3 31
M  V30 36 1 4 32
M  V30 37 1 4 33
M  V30 38 1 6 34
M  V30 39 1 7 35
M  V30 40 1 8 36
M  V30 41 1 9 37
M  V30 42 1 10 38
M  V30 43 1 12 39
M  V30 44 1 15 40
M  V30 45 1 16 41
M  V30 46 1 19 42
M  V30 47 1 24 43
M  V30 48 1 25 44
M  V30 49 1 26 45
M  V30 50 1 28 46
M  V30 51 1 30 47
M  V30 END BOND
M  V30 END CTAB
M  END
>  <Dataset>  (150) 
ChEMBL_Kinases

>  <Ligand_Instance>  (150) 
nan

>  <PDB_ID>  (150) 
nan

>  <Standardized_SMILES>  (150) 
O=C(NCc1ccccc1)c1cnc2[nH]cc(-c3cc(Cl)c4ncccc4c3)c2c1

>  <Name>  (150) 
nan

>  <Pocket>  (150) 
nan

>  <ATP_Site>  (150) 
nan

>  <Peripheral>  (150) 
nan

>  <Num_H_Atoms_ProtBoundConf>  (150) 
nan

>  <Num_Resolved_Atoms>  (150) 
nan

>  <Num_Not_Resolved_Atoms>  (150) 
nan

$$$$
CHEMBL4796675
     RDKit          3D

  0  0  0  0  0  0  0  0  0  0999 V3000
M  V30 BEGIN CTAB
M  V30 COUNTS 27 28 0 0 0
M  V30 BEGIN ATOM
M  V30 1 N 2.263910 -0.616843 2.780674 0
M  V30 2 C 1.336187 -0.433264 2.116958 0
M  V30 3 C 0.180714 -0.185920 1.307993 0
M  V30 4 C 0.055806 -0.798096 0.146888 0
M  V30 5 C 1.010720 -1.740772 -0.420885 0
M  V30 6 C 1.695775 -2.728883 0.254152 0
M  V30 7 C 2.592651 -3.585355 -0.345829 0
M  V30 8 C 2.852851 -3.488227 -1.695830 0
M  V30 9 O 3.773866 -4.407596 -2.177164 0
M  V30 10 C 2.191442 -2.515064 -2.414694 0
M  V30 11 Br 2.583971 -2.420233 -4.276243 0
M  V30 12 C 1.300066 -1.673398 -1.784181 0
M  V30 13 C -0.868476 0.736933 1.757371 0
M  V30 14 O -1.857177 0.884568 0.960353 0
M  V30 15 N -0.809728 1.431299 2.995212 0
M  V30 16 C -2.042196 2.235479 3.056224 0
M  V30 17 N -2.127673 3.417100 2.619830 0
M  V30 18 N -3.157973 4.141477 2.651931 0
M  V30 19 C -4.263496 3.638985 3.187338 0
M  V30 20 Br -6.242899 3.752274 3.748788 0
M  V30 21 S -3.639893 1.893276 3.679857 0
M  V30 22 H -0.811655 -0.625148 -0.484285 0
M  V30 23 H 1.495136 -2.818533 1.309453 0
M  V30 24 H 3.065215 -4.315694 0.287862 0
M  V30 25 H 4.439117 -4.218411 -2.913485 0
M  V30 26 H 0.789459 -0.910391 -2.376983 0
M  V30 27 H 0.039939 1.206073 3.506928 0
M  V30 END ATOM
M  V30 BEGIN BOND
M  V30 1 3 1 2
M  V30 2 1 2 3
M  V30 3 2 3 4
M  V30 4 1 4 5
M  V30 5 2 5 6
M  V30 6 1 6 7
M  V30 7 2 7 8
M  V30 8 1 8 9
M  V30 9 1 8 10
M  V30 10 1 10 11
M  V30 11 2 10 12
M  V30 12 1 3 13
M  V30 13 2 13 14
M  V30 14 1 13 15
M  V30 15 1 15 16
M  V30 16 2 16 17
M  V30 17 1 17 18
M  V30 18 2 18 19
M  V30 19 1 19 20
M  V30 20 1 19 21
M  V30 21 1 12 5
M  V30 22 1 21 16
M  V30 23 1 4 22
M  V30 24 1 6 23
M  V30 25 1 7 24
M  V30 26 1 9 25
M  V30 27 1 12 26
M  V30 28 1 15 27
M  V30 END BOND
M  V30 END CTAB
M  END
>  <Dataset>  (151) 
ChEMBL_Kinases

>  <Ligand_Instance>  (151) 
nan

>  <PDB_ID>  (151) 
nan

>  <Standardized_SMILES>  (151) 
N#C/C(=C\c1ccc(O)c(Br)c1)C(=O)Nc1nnc(Br)s1

>  <Name>  (151) 
nan

>  <Pocket>  (151) 
nan

>  <ATP_Site>  (151) 
nan

>  <Peripheral>  (151) 
nan

>  <Num_H_Atoms_ProtBoundConf>  (151) 
nan

>  <Num_Resolved_Atoms>  (151) 
nan

>  <Num_Not_Resolved_Atoms>  (151) 
nan

$$$$
CHEMBL4796688
     RDKit          3D

  0  0  0  0  0  0  0  0  0  0999 V3000
M  V30 BEGIN CTAB
M  V30 COUNTS 45 48 0 0 0
M  V30 BEGIN ATOM
M  V30 1 O -1.500526 -2.457248 0.583560 0
M  V30 2 C -1.308876 -3.679699 0.273827 0
M  V30 3 N 0.020102 -4.028182 -0.009122 0
M  V30 4 C 0.902064 -2.918229 0.110822 0
M  V30 5 C 1.554674 -2.558417 1.271532 0
M  V30 6 C 2.405963 -1.445602 1.291079 0
M  V30 7 C 2.618391 -0.671504 0.142979 0
M  V30 8 O 3.497839 0.336807 0.491254 0
M  V30 9 C 3.231444 1.690727 0.415684 0
M  V30 10 C 3.467644 2.664394 -0.530811 0
M  V30 11 C 3.078518 3.948684 -0.322210 0
M  V30 12 C 2.433854 4.370964 0.821643 0
M  V30 13 C 2.074159 5.696564 0.949820 0
M  V30 14 C 1.426749 6.094156 2.111142 0
M  V30 15 C 1.159113 5.163955 3.103525 0
M  V30 16 O 0.512065 5.610520 4.241172 0
M  V30 17 C 1.541014 3.865754 2.916305 0
M  V30 18 C 2.186561 3.409263 1.786414 0
M  V30 19 C 2.577363 2.093373 1.588740 0
M  V30 20 C 1.950494 -1.060460 -0.997058 0
M  V30 21 Cl 2.316506 -0.003343 -2.341160 0
M  V30 22 C 1.129447 -2.138626 -1.004446 0
M  V30 23 C -2.467693 -4.571099 0.246329 0
M  V30 24 C -2.298499 -5.898738 -0.084077 0
M  V30 25 C -3.403100 -6.756915 -0.112215 0
M  V30 26 Cl -3.264457 -8.453855 -0.522679 0
M  V30 27 C -4.660075 -6.275839 0.190148 0
M  V30 28 C -4.828312 -4.948896 0.520248 0
M  V30 29 Cl -6.403805 -4.256753 0.919683 0
M  V30 30 C -3.734222 -4.109339 0.545721 0
M  V30 31 O -3.885259 -2.770229 0.875985 0
M  V30 32 H 0.203345 -5.022885 -0.265328 0
M  V30 33 H 1.342763 -3.200507 2.114598 0
M  V30 34 H 2.822724 -1.333287 2.305134 0
M  V30 35 H 3.978962 2.248241 -1.384567 0
M  V30 36 H 3.321266 4.626540 -1.144642 0
M  V30 37 H 2.300666 6.401600 0.148426 0
M  V30 38 H 1.172470 7.144616 2.148703 0
M  V30 39 H -0.423762 5.301218 4.454845 0
M  V30 40 H 1.324855 3.150288 3.701048 0
M  V30 41 H 2.302295 1.469158 2.453412 0
M  V30 42 H 0.668348 -2.331554 -1.966910 0
M  V30 43 H -1.352694 -6.340618 -0.329920 0
M  V30 44 H -5.542754 -6.917414 0.177803 0
M  V30 45 H -3.618792 -2.510590 1.833710 0
M  V30 END ATOM
M  V30 BEGIN BOND
M  V30 1 2 1 2
M  V30 2 1 2 3
M  V30 3 1 3 4
M  V30 4 2 4 5
M  V30 5 1 5 6
M  V30 6 2 6 7
M  V30 7 1 7 8
M  V30 8 1 8 9
M  V30 9 2 9 10
M  V30 10 1 10 11
M  V30 11 2 11 12
M  V30 12 1 12 13
M  V30 13 2 13 14
M  V30 14 1 14 15
M  V30 15 1 15 16
M  V30 16 2 15 17
M  V30 17 1 17 18
M  V30 18 2 18 19
M  V30 19 1 7 20
M  V30 20 1 20 21
M  V30 21 2 20 22
M  V30 22 1 2 23
M  V30 23 2 23 24
M  V30 24 1 24 25
M  V30 25 1 25 26
M  V30 26 2 25 27
M  V30 27 1 27 28
M  V30 28 1 28 29
M  V30 29 2 28 30
M  V30 30 1 30 31
M  V30 31 1 22 4
M  V30 32 1 30 23
M  V30 33 1 19 9
M  V30 34 1 18 12
M  V30 35 1 3 32
M  V30 36 1 5 33
M  V30 37 1 6 34
M  V30 38 1 10 35
M  V30 39 1 11 36
M  V30 40 1 13 37
M  V30 41 1 14 38
M  V30 42 1 16 39
M  V30 43 1 17 40
M  V30 44 1 19 41
M  V30 45 1 22 42
M  V30 46 1 24 43
M  V30 47 1 27 44
M  V30 48 1 31 45
M  V30 END BOND
M  V30 END CTAB
M  END
>  <Dataset>  (152) 
ChEMBL_Kinases

>  <Ligand_Instance>  (152) 
nan

>  <PDB_ID>  (152) 
nan

>  <Standardized_SMILES>  (152) 
O=C(Nc1ccc(Oc2ccc3ccc(O)cc3c2)c(Cl)c1)c1cc(Cl)cc(Cl)c1O

>  <Name>  (152) 
nan

>  <Pocket>  (152) 
nan

>  <ATP_Site>  (152) 
nan

>  <Peripheral>  (152) 
nan

>  <Num_H_Atoms_ProtBoundConf>  (152) 
nan

>  <Num_Resolved_Atoms>  (152) 
nan

>  <Num_Not_Resolved_Atoms>  (152) 
nan

$$$$
CHEMBL4796740
     RDKit          3D

  0  0  0  0  0  0  0  0  0  0999 V3000
M  V30 BEGIN CTAB
M  V30 COUNTS 51 55 0 0 0
M  V30 BEGIN ATOM
M  V30 1 C 2.333597 2.600777 -3.214684 0
M  V30 2 O 2.395541 2.414084 -1.810345 0
M  V30 3 C 3.434155 1.738680 -1.181967 0
M  V30 4 C 4.500080 1.187020 -1.858224 0
M  V30 5 C 5.503687 0.524467 -1.158454 0
M  V30 6 C 5.482810 0.389520 0.215606 0
M  V30 7 C 4.414699 0.946114 0.857737 0
M  V30 8 F 4.379297 0.820708 2.222054 0
M  V30 9 C 3.393589 1.613411 0.209355 0
M  V30 10 C 2.297371 2.168910 1.014969 0
M  V30 11 C 1.206081 1.358430 1.252349 0
M  V30 12 C 0.131727 1.810636 2.003746 0
M  V30 13 C 0.241654 3.112905 2.485324 0
M  V30 14 C 1.328634 3.932618 2.254028 0
M  V30 15 N 2.348629 3.438470 1.513806 0
M  V30 16 C -0.933847 3.342840 3.197788 0
M  V30 17 N -1.704609 2.226584 3.140240 0
M  V30 18 N -1.064004 1.301498 2.420768 0
M  V30 19 C -1.389522 -0.027573 2.041277 0
M  V30 20 C -1.396639 -1.044392 2.970107 0
M  V30 21 C -1.707826 -2.343327 2.634211 0
M  V30 22 C -2.031005 -2.702927 1.346689 0
M  V30 23 N -2.361293 -4.017362 0.933742 0
M  V30 24 C -2.692878 -4.468074 -0.398405 0
M  V30 25 C -4.107705 -5.005908 -0.390910 0
M  V30 26 O -4.178020 -6.087187 0.451784 0
M  V30 27 C -3.842509 -5.715279 1.755858 0
M  V30 28 C -2.424140 -5.159164 1.805452 0
M  V30 29 C -2.019990 -1.676529 0.428474 0
M  V30 30 C -1.711214 -0.369970 0.744956 0
M  V30 31 H 2.890839 3.533217 -3.482695 0
M  V30 32 H 2.743771 1.748832 -3.774245 0
M  V30 33 H 1.244060 2.684319 -3.471269 0
M  V30 34 H 4.551161 1.272247 -2.933180 0
M  V30 35 H 6.319118 0.108755 -1.734681 0
M  V30 36 H 6.293327 -0.136745 0.698498 0
M  V30 37 H 1.161557 0.359270 0.861952 0
M  V30 38 H 1.362839 4.942358 2.654221 0
M  V30 39 H -1.227759 4.236177 3.722071 0
M  V30 40 H -1.150379 -0.822151 4.000316 0
M  V30 41 H -1.693779 -3.084354 3.407598 0
M  V30 42 H -2.551216 -3.696820 -1.175319 0
M  V30 43 H -2.007496 -5.295799 -0.682860 0
M  V30 44 H -4.363767 -5.302482 -1.413845 0
M  V30 45 H -4.810925 -4.190876 -0.073736 0
M  V30 46 H -4.513205 -4.922026 2.104934 0
M  V30 47 H -3.961086 -6.612824 2.394001 0
M  V30 48 H -2.192666 -4.957405 2.850170 0
M  V30 49 H -1.728184 -5.970450 1.466290 0
M  V30 50 H -2.248523 -1.782988 -0.620001 0
M  V30 51 H -1.696329 0.453057 0.039107 0
M  V30 END ATOM
M  V30 BEGIN BOND
M  V30 1 1 1 2
M  V30 2 1 2 3
M  V30 3 2 3 4
M  V30 4 1 4 5
M  V30 5 2 5 6
M  V30 6 1 6 7
M  V30 7 1 7 8
M  V30 8 2 7 9
M  V30 9 1 9 10
M  V30 10 2 10 11
M  V30 11 1 11 12
M  V30 12 2 12 13
M  V30 13 1 13 14
M  V30 14 2 14 15
M  V30 15 1 13 16
M  V30 16 2 16 17
M  V30 17 1 17 18
M  V30 18 1 18 19
M  V30 19 2 19 20
M  V30 20 1 20 21
M  V30 21 2 21 22
M  V30 22 1 22 23
M  V30 23 1 23 24
M  V30 24 1 24 25
M  V30 25 1 25 26
M  V30 26 1 26 27
M  V30 27 1 27 28
M  V30 28 1 22 29
M  V30 29 2 29 30
M  V30 30 1 9 3
M  V30 31 1 15 10
M  V30 32 1 30 19
M  V30 33 1 18 12
M  V30 34 1 28 23
M  V30 35 1 1 31
M  V30 36 1 1 32
M  V30 37 1 1 33
M  V30 38 1 4 34
M  V30 39 1 5 35
M  V30 40 1 6 36
M  V30 41 1 11 37
M  V30 42 1 14 38
M  V30 43 1 16 39
M  V30 44 1 20 40
M  V30 45 1 21 41
M  V30 46 1 24 42
M  V30 47 1 24 43
M  V30 48 1 25 44
M  V30 49 1 25 45
M  V30 50 1 27 46
M  V30 51 1 27 47
M  V30 52 1 28 48
M  V30 53 1 28 49
M  V30 54 1 29 50
M  V30 55 1 30 51
M  V30 END BOND
M  V30 END CTAB
M  END
>  <Dataset>  (153) 
ChEMBL_Kinases

>  <Ligand_Instance>  (153) 
nan

>  <PDB_ID>  (153) 
nan

>  <Standardized_SMILES>  (153) 
COc1cccc(F)c1-c1cc2c(cn1)cnn2-c1ccc(N2CCOCC2)cc1

>  <Name>  (153) 
nan

>  <Pocket>  (153) 
nan

>  <ATP_Site>  (153) 
nan

>  <Peripheral>  (153) 
nan

>  <Num_H_Atoms_ProtBoundConf>  (153) 
nan

>  <Num_Resolved_Atoms>  (153) 
nan

>  <Num_Not_Resolved_Atoms>  (153) 
nan

$$$$
CHEMBL4796754
     RDKit          3D

  0  0  0  0  0  0  0  0  0  0999 V3000
M  V30 BEGIN CTAB
M  V30 COUNTS 40 42 0 0 0
M  V30 BEGIN ATOM
M  V30 1 C -2.285646 -4.625686 5.711758 0
M  V30 2 C -1.927036 -4.232901 4.634625 0
M  V30 3 C -1.503123 -3.784047 3.348208 0
M  V30 4 N -0.198368 -3.851301 3.059886 0
M  V30 5 C 0.264871 -3.456960 1.846633 0
M  V30 6 N 1.558630 -3.379670 1.212427 0
M  V30 7 C 1.892072 -1.980292 1.042641 0
M  V30 8 C 2.535932 -1.825095 -0.160870 0
M  V30 9 C 2.881946 -0.535288 -0.502885 0
M  V30 10 C 2.584612 0.518016 0.337371 0
M  V30 11 C 2.911838 1.922564 -0.066671 0
M  V30 12 C 1.700962 2.664347 -0.447286 0
M  V30 13 O 0.841905 2.984447 0.410730 0
M  V30 14 N 0.801762 3.323332 -1.316410 0
M  V30 15 C -0.378194 3.881756 -0.689444 0
M  V30 16 C 1.299396 3.263524 -2.697901 0
M  V30 17 C 1.933953 0.341884 1.558356 0
M  V30 18 C 1.589041 -0.954762 1.895368 0
M  V30 19 N -0.660960 -3.002214 0.971427 0
M  V30 20 C -1.969612 -2.928866 1.246665 0
M  V30 21 N -3.027648 -2.493798 0.483146 0
M  V30 22 C -4.111758 -2.633135 1.248105 0
M  V30 23 N -3.803100 -3.127385 2.440775 0
M  V30 24 C -2.452408 -3.323968 2.468668 0
M  V30 25 H -2.613198 -4.979099 6.666625 0
M  V30 26 H 2.099730 -4.229083 0.963138 0
M  V30 27 H 2.827159 -2.571394 -0.891742 0
M  V30 28 H 3.399151 -0.303615 -1.441773 0
M  V30 29 H 3.632544 1.959357 -0.921327 0
M  V30 30 H 3.446251 2.388137 0.781088 0
M  V30 31 H -0.935816 3.052528 -0.205165 0
M  V30 32 H -1.049294 4.281754 -1.494187 0
M  V30 33 H -0.102212 4.673864 0.033991 0
M  V30 34 H 0.438783 3.602233 -3.354263 0
M  V30 35 H 1.590985 2.232143 -2.979577 0
M  V30 36 H 2.156089 3.932935 -2.854583 0
M  V30 37 H 1.683534 1.105567 2.253851 0
M  V30 38 H 1.095161 -1.284689 2.784532 0
M  V30 39 H -2.883948 -2.132995 -0.506182 0
M  V30 40 H -5.060509 -2.340591 0.836081 0
M  V30 END ATOM
M  V30 BEGIN BOND
M  V30 1 3 1 2
M  V30 2 1 2 3
M  V30 3 2 3 4
M  V30 4 1 4 5
M  V30 5 1 5 6
M  V30 6 1 6 7
M  V30 7 2 7 8
M  V30 8 1 8 9
M  V30 9 2 9 10
M  V30 10 1 10 11
M  V30 11 1 11 12
M  V30 12 2 12 13
M  V30 13 1 12 14
M  V30 14 1 14 15
M  V30 15 1 14 16
M  V30 16 1 10 17
M  V30 17 2 17 18
M  V30 18 2 5 19
M  V30 19 1 19 20
M  V30 20 1 20 21
M  V30 21 1 21 22
M  V30 22 2 22 23
M  V30 23 1 23 24
M  V30 24 1 24 3
M  V30 25 1 18 7
M  V30 26 2 24 20
M  V30 27 1 1 25
M  V30 28 1 6 26
M  V30 29 1 8 27
M  V30 30 1 9 28
M  V30 31 1 11 29
M  V30 32 1 11 30
M  V30 33 1 15 31
M  V30 34 1 15 32
M  V30 35 1 15 33
M  V30 36 1 16 34
M  V30 37 1 16 35
M  V30 38 1 16 36
M  V30 39 1 17 37
M  V30 40 1 18 38
M  V30 41 1 21 39
M  V30 42 1 22 40
M  V30 END BOND
M  V30 END CTAB
M  END
>  <Dataset>  (154) 
ChEMBL_Kinases

>  <Ligand_Instance>  (154) 
nan

>  <PDB_ID>  (154) 
nan

>  <Standardized_SMILES>  (154) 
C#Cc1nc(Nc2ccc(CC(=O)N(C)C)cc2)nc2[nH]cnc12

>  <Name>  (154) 
nan

>  <Pocket>  (154) 
nan

>  <ATP_Site>  (154) 
nan

>  <Peripheral>  (154) 
nan

>  <Num_H_Atoms_ProtBoundConf>  (154) 
nan

>  <Num_Resolved_Atoms>  (154) 
nan

>  <Num_Not_Resolved_Atoms>  (154) 
nan

$$$$
CHEMBL4796755
     RDKit          3D

  0  0  0  0  0  0  0  0  0  0999 V3000
M  V30 BEGIN CTAB
M  V30 COUNTS 82 86 0 0 0
M  V30 BEGIN ATOM
M  V30 1 N 3.080897 -4.456418 -7.151985 0
M  V30 2 C 3.619388 -4.035359 -5.882540 0
M  V30 3 C 2.976819 -3.444342 -4.805005 0
M  V30 4 C 1.540938 -3.132571 -4.785928 0
M  V30 5 O 0.901150 -3.422310 -5.823153 0
M  V30 6 N 1.069122 -2.532495 -3.564535 0
M  V30 7 C -0.354543 -2.235393 -3.563767 0
M  V30 8 C -0.802210 -1.688487 -2.270083 0
M  V30 9 C -1.209536 -2.611220 -1.303128 0
M  V30 10 C -1.662860 -2.268865 -0.026398 0
M  V30 11 C -1.712565 -0.931329 0.303548 0
M  V30 12 C -2.187742 -0.619419 1.646670 0
M  V30 13 O -2.478103 -1.582965 2.404426 0
M  V30 14 N -2.355178 0.710606 2.187469 0
M  V30 15 C -2.832069 0.865312 3.537390 0 CFG=1
M  V30 16 C -2.085568 1.802438 4.407326 0
M  V30 17 C -0.657253 1.531259 4.661602 0
M  V30 18 C 0.278081 1.520888 3.514341 0
M  V30 19 C 0.378600 2.796117 2.753604 0
M  V30 20 C 0.640297 3.984886 3.678250 0
M  V30 21 C 1.911940 3.674802 4.434932 0
M  V30 22 C 2.570420 2.399321 4.023742 0
M  V30 23 C 1.663315 1.207283 4.081929 0
M  V30 24 C -4.255468 1.346282 3.400662 0
M  V30 25 O -4.049004 1.300898 2.149588 0
M  V30 26 N -5.415583 1.722294 4.108868 0
M  V30 27 C -5.711444 1.795266 5.526587 0
M  V30 28 C -6.796537 2.839575 5.702636 0
M  V30 29 O -7.972462 2.397230 5.119100 0
M  V30 30 C -7.775130 1.709460 3.930046 0
M  V30 31 C -6.494624 2.101117 3.215059 0
M  V30 32 C -1.318102 0.002740 -0.627172 0
M  V30 33 C -0.875067 -0.365465 -1.879659 0
M  V30 34 C 3.951613 -3.247440 -3.846971 0
M  V30 35 N 5.104799 -3.711509 -4.365445 0
M  V30 36 N 4.932988 -4.187944 -5.582790 0
M  V30 37 C 5.946196 -4.759884 -6.420595 0
M  V30 38 C 6.838540 -4.168547 -7.288820 0
M  V30 39 C 7.719595 -4.971835 -7.980528 0
M  V30 40 C 7.735646 -6.336877 -7.831892 0
M  V30 41 C 6.839079 -6.944147 -6.958275 0
M  V30 42 C 5.950084 -6.151186 -6.257862 0
M  V30 43 H 2.597510 -5.367669 -6.930914 0
M  V30 44 H 3.192545 -3.915425 -8.045408 0
M  V30 45 H 1.717144 -2.343329 -2.774873 0
M  V30 46 H -0.909722 -3.173997 -3.756663 0
M  V30 47 H -0.532867 -1.471436 -4.354763 0
M  V30 48 H -1.177076 -3.686119 -1.544942 0
M  V30 49 H -1.953873 -3.095691 0.638310 0
M  V30 50 H -2.102122 1.450474 1.504275 0
M  V30 51 H -2.955637 -0.158062 4.004937 0
M  V30 52 H -2.596981 1.758012 5.416784 0
M  V30 53 H -2.292806 2.840421 4.066824 0
M  V30 54 H -0.278106 2.332785 5.365928 0
M  V30 55 H -0.542713 0.597916 5.253382 0
M  V30 56 H 0.088833 0.713449 2.777989 0
M  V30 57 H -0.396161 3.006163 2.022573 0
M  V30 58 H 1.332514 2.717886 2.149606 0
M  V30 59 H -0.161347 4.147728 4.411785 0
M  V30 60 H 0.795664 4.873341 3.016494 0
M  V30 61 H 1.733675 3.681754 5.534223 0
M  V30 62 H 2.652508 4.493070 4.240507 0
M  V30 63 H 3.138148 2.492550 3.063049 0
M  V30 64 H 3.385628 2.218218 4.785695 0
M  V30 65 H 2.172117 0.392836 3.529300 0
M  V30 66 H 1.617948 0.863761 5.138609 0
M  V30 67 H -4.856569 1.987949 6.169398 0
M  V30 68 H -6.159630 0.826353 5.877811 0
M  V30 69 H -6.504093 3.785469 5.203502 0
M  V30 70 H -6.998047 3.061181 6.759165 0
M  V30 71 H -8.615062 2.037687 3.249149 0
M  V30 72 H -7.890875 0.609997 4.023657 0
M  V30 73 H -6.486836 1.556205 2.266102 0
M  V30 74 H -6.539631 3.207296 3.088193 0
M  V30 75 H -1.361767 1.046678 -0.354490 0
M  V30 76 H -0.559218 0.343057 -2.633384 0
M  V30 77 H 3.715157 -2.795358 -2.895182 0
M  V30 78 H 6.716356 -3.096638 -7.307920 0
M  V30 79 H 8.388753 -4.418684 -8.645457 0
M  V30 80 H 8.448142 -6.916000 -8.399874 0
M  V30 81 H 6.911039 -8.018247 -6.893428 0
M  V30 82 H 5.312618 -6.746507 -5.617469 0
M  V30 END ATOM
M  V30 BEGIN BOND
M  V30 1 1 1 2
M  V30 2 2 2 3
M  V30 3 1 3 4
M  V30 4 2 4 5
M  V30 5 1 4 6
M  V30 6 1 6 7
M  V30 7 1 7 8
M  V30 8 2 8 9
M  V30 9 1 9 10
M  V30 10 2 10 11
M  V30 11 1 11 12
M  V30 12 2 12 13
M  V30 13 1 12 14
M  V30 14 1 14 15
M  V30 15 1 15 16
M  V30 16 1 16 17
M  V30 17 1 17 18
M  V30 18 1 18 19
M  V30 19 1 19 20
M  V30 20 1 20 21
M  V30 21 1 21 22
M  V30 22 1 22 23
M  V30 23 1 15 24
M  V30 24 2 24 25
M  V30 25 1 24 26
M  V30 26 1 26 27
M  V30 27 1 27 28
M  V30 28 1 28 29
M  V30 29 1 29 30
M  V30 30 1 30 31
M  V30 31 1 11 32
M  V30 32 2 32 33
M  V30 33 1 3 34
M  V30 34 2 34 35
M  V30 35 1 35 36
M  V30 36 1 36 37
M  V30 37 2 37 38
M  V30 38 1 38 39
M  V30 39 2 39 40
M  V30 40 1 40 41
M  V30 41 2 41 42
M  V30 42 1 36 2
M  V30 43 1 42 37
M  V30 44 1 33 8
M  V30 45 1 23 18
M  V30 46 1 31 26
M  V30 47 1 1 43
M  V30 48 1 1 44
M  V30 49 1 6 45
M  V30 50 1 7 46
M  V30 51 1 7 47
M  V30 52 1 9 48
M  V30 53 1 10 49
M  V30 54 1 14 50
M  V30 55 1 15 51 CFG=1
M  V30 56 1 16 52
M  V30 57 1 16 53
M  V30 58 1 17 54
M  V30 59 1 17 55
M  V30 60 1 18 56
M  V30 61 1 19 57
M  V30 62 1 19 58
M  V30 63 1 20 59
M  V30 64 1 20 60
M  V30 65 1 21 61
M  V30 66 1 21 62
M  V30 67 1 22 63
M  V30 68 1 22 64
M  V30 69 1 23 65
M  V30 70 1 23 66
M  V30 71 1 27 67
M  V30 72 1 27 68
M  V30 73 1 28 69
M  V30 74 1 28 70
M  V30 75 1 30 71
M  V30 76 1 30 72
M  V30 77 1 31 73
M  V30 78 1 31 74
M  V30 79 1 32 75
M  V30 80 1 33 76
M  V30 81 1 34 77
M  V30 82 1 38 78
M  V30 83 1 39 79
M  V30 84 1 40 80
M  V30 85 1 41 81
M  V30 86 1 42 82
M  V30 END BOND
M  V30 END CTAB
M  END
>  <Dataset>  (155) 
ChEMBL_Kinases

>  <Ligand_Instance>  (155) 
nan

>  <PDB_ID>  (155) 
nan

>  <Standardized_SMILES>  (155) 
Nc1c(C(=O)NCc2ccc(C(=O)N[C@@H](CCC3CCCCC3)C(=O)N3CCOCC3)cc2)cnn1-c1ccccc1

>  <Name>  (155) 
nan

>  <Pocket>  (155) 
nan

>  <ATP_Site>  (155) 
nan

>  <Peripheral>  (155) 
nan

>  <Num_H_Atoms_ProtBoundConf>  (155) 
nan

>  <Num_Resolved_Atoms>  (155) 
nan

>  <Num_Not_Resolved_Atoms>  (155) 
nan

$$$$
CHEMBL480933
     RDKit          3D

  0  0  0  0  0  0  0  0  0  0999 V3000
M  V30 BEGIN CTAB
M  V30 COUNTS 48 51 0 0 0
M  V30 BEGIN ATOM
M  V30 1 C -1.212660 1.575227 3.541342 0
M  V30 2 O -0.233526 0.817554 4.209086 0
M  V30 3 C 0.699206 0.126361 3.446345 0
M  V30 4 N 1.664524 -0.618649 4.016252 0
M  V30 5 C 2.576260 -1.294884 3.294169 0
M  V30 6 C 2.559338 -1.252119 1.915524 0
M  V30 7 C 1.574299 -0.491691 1.321620 0
M  V30 8 C 1.396055 -0.326035 -0.120457 0
M  V30 9 C 1.469900 0.848850 -0.877854 0
M  V30 10 C 1.753591 2.166541 -0.311196 0
M  V30 11 C 2.995273 2.233140 0.264322 0
M  V30 12 C 3.454918 3.399562 0.859050 0
M  V30 13 C 2.600599 4.505190 0.847996 0
M  V30 14 F 2.958797 5.685198 1.402202 0
M  V30 15 C 1.334837 4.448808 0.265209 0
M  V30 16 C 0.936650 3.275569 -0.304378 0
M  V30 17 N 1.229542 0.457942 -2.147829 0
M  V30 18 C 1.021297 -0.873232 -2.168385 0
M  V30 19 N 1.124850 -1.367181 -0.900200 0
M  V30 20 C 0.946300 -2.772384 -0.624418 0
M  V30 21 C -0.503625 -3.049176 -0.332725 0
M  V30 22 C -1.411700 -3.386229 -1.315513 0
M  V30 23 C -2.724025 -3.623747 -0.958921 0
M  V30 24 C -3.133893 -3.527278 0.367029 0
M  V30 25 C -4.508341 -3.770258 0.785186 0
M  V30 26 N -5.521959 -4.124655 -0.146295 0
M  V30 27 O -4.896397 -3.687646 1.972917 0
M  V30 28 C -2.220530 -3.186547 1.367439 0
M  V30 29 C -0.913962 -2.954130 0.983976 0
M  V30 30 N 0.685252 0.166253 2.095033 0
M  V30 31 H -1.269365 2.629333 3.871030 0
M  V30 32 H -2.178468 1.022308 3.650001 0
M  V30 33 H -1.030016 1.595444 2.431740 0
M  V30 34 H 3.370789 -1.907692 3.745451 0
M  V30 35 H 3.254775 -1.765394 1.267296 0
M  V30 36 H 3.735127 1.422200 0.322699 0
M  V30 37 H 4.411181 3.555602 1.337147 0
M  V30 38 H 0.665732 5.293311 0.249338 0
M  V30 39 H -0.027763 3.117837 -0.786684 0
M  V30 40 H 0.811124 -1.363014 -3.118526 0
M  V30 41 H 1.200390 -3.393271 -1.507964 0
M  V30 42 H 1.586326 -3.114083 0.194729 0
M  V30 43 H -1.073523 -3.456276 -2.342521 0
M  V30 44 H -3.454474 -3.890340 -1.716096 0
M  V30 45 H -5.626222 -4.601840 -1.065538 0
M  V30 46 H -6.532483 -3.907535 -0.009158 0
M  V30 47 H -2.549994 -3.111744 2.414913 0
M  V30 48 H -0.249977 -2.692413 1.810343 0
M  V30 END ATOM
M  V30 BEGIN BOND
M  V30 1 1 1 2
M  V30 2 1 2 3
M  V30 3 2 3 4
M  V30 4 1 4 5
M  V30 5 2 5 6
M  V30 6 1 6 7
M  V30 7 1 7 8
M  V30 8 2 8 9
M  V30 9 1 9 10
M  V30 10 2 10 11
M  V30 11 1 11 12
M  V30 12 2 12 13
M  V30 13 1 13 14
M  V30 14 1 13 15
M  V30 15 2 15 16
M  V30 16 1 9 17
M  V30 17 2 17 18
M  V30 18 1 18 19
M  V30 19 1 19 20
M  V30 20 1 20 21
M  V30 21 2 21 22
M  V30 22 1 22 23
M  V30 23 2 23 24
M  V30 24 1 24 25
M  V30 25 1 25 26
M  V30 26 2 25 27
M  V30 27 1 24 28
M  V30 28 2 28 29
M  V30 29 2 7 30
M  V30 30 1 30 3
M  V30 31 1 19 8
M  V30 32 1 29 21
M  V30 33 1 16 10
M  V30 34 1 1 31
M  V30 35 1 1 32
M  V30 36 1 1 33
M  V30 37 1 5 34
M  V30 38 1 6 35
M  V30 39 1 11 36
M  V30 40 1 12 37
M  V30 41 1 15 38
M  V30 42 1 16 39
M  V30 43 1 18 40
M  V30 44 1 20 41
M  V30 45 1 20 42
M  V30 46 1 22 43
M  V30 47 1 23 44
M  V30 48 1 26 45
M  V30 49 1 26 46
M  V30 50 1 28 47
M  V30 51 1 29 48
M  V30 END BOND
M  V30 END CTAB
M  END
>  <Dataset>  (156) 
ChEMBL_Kinases

>  <Ligand_Instance>  (156) 
nan

>  <PDB_ID>  (156) 
nan

>  <Standardized_SMILES>  (156) 
COc1nccc(-c2c(-c3ccc(F)cc3)ncn2Cc2ccc(C(N)=O)cc2)n1

>  <Name>  (156) 
nan

>  <Pocket>  (156) 
nan

>  <ATP_Site>  (156) 
nan

>  <Peripheral>  (156) 
nan

>  <Num_H_Atoms_ProtBoundConf>  (156) 
nan

>  <Num_Resolved_Atoms>  (156) 
nan

>  <Num_Not_Resolved_Atoms>  (156) 
nan

$$$$
CHEMBL4796773
     RDKit          3D

  0  0  0  0  0  0  0  0  0  0999 V3000
M  V30 BEGIN CTAB
M  V30 COUNTS 50 53 0 0 0
M  V30 BEGIN ATOM
M  V30 1 N 5.092587 -4.798895 4.112999 0
M  V30 2 C 4.777474 -4.367241 3.070312 0
M  V30 3 C 4.380402 -3.858685 1.781123 0
M  V30 4 C 4.238821 -2.483968 1.635748 0
M  V30 5 N 3.861738 -2.050213 0.406784 0
M  V30 6 C 3.640292 -2.931650 -0.611733 0
M  V30 7 N 3.255033 -2.168573 -1.776605 0
M  V30 8 C 1.819611 -2.163305 -1.599846 0
M  V30 9 C 1.266309 -1.182693 -0.813675 0
M  V30 10 C -0.073993 -1.041409 -0.545532 0
M  V30 11 N -0.513169 0.029724 0.277272 0
M  V30 12 C 0.452707 0.949815 0.837932 0
M  V30 13 C -0.130537 2.011473 1.707571 0 CFG=1
M  V30 14 C 1.031327 2.928994 2.110730 0
M  V30 15 N 0.593466 3.556132 3.342578 0
M  V30 16 C -0.852832 3.664818 3.374625 0
M  V30 17 C -1.459853 3.793206 2.016000 0
M  V30 18 O -1.047155 2.838717 1.099621 0
M  V30 19 C -0.894011 -1.977009 -1.129588 0
M  V30 20 C -2.328753 -1.924631 -0.886707 0
M  V30 21 C -2.867057 -1.856347 0.380248 0
M  V30 22 C -4.206348 -1.790349 0.695781 0
M  V30 23 F -4.690678 -1.723838 1.948792 0
M  V30 24 C -5.108791 -1.793192 -0.371060 0
M  V30 25 C -4.613285 -1.860677 -1.654018 0
M  V30 26 F -5.509282 -1.862355 -2.680153 0
M  V30 27 C -3.246978 -1.926610 -1.940848 0
M  V30 28 C -0.349454 -2.975999 -1.929593 0
M  V30 29 N 0.977506 -3.055853 -2.151123 0
M  V30 30 C 3.789918 -4.286361 -0.432557 0
M  V30 31 N 4.162413 -4.718014 0.780788 0
M  V30 32 H 4.428413 -1.846017 2.475870 0
M  V30 33 H 3.907277 -1.759781 -2.511781 0
M  V30 34 H 1.941035 -0.458201 -0.365386 0
M  V30 35 H -1.494968 0.250349 0.536013 0
M  V30 36 H 1.121317 1.364465 0.040393 0
M  V30 37 H 1.104304 0.321711 1.497555 0
M  V30 38 H -0.573357 1.537299 2.600804 0
M  V30 39 H 1.126082 3.732606 1.350680 0
M  V30 40 H 1.970824 2.347976 2.216656 0
M  V30 41 H 0.869019 2.940917 4.156168 0
M  V30 42 H -1.052771 4.645039 3.900523 0
M  V30 43 H -1.320353 2.895818 4.023661 0
M  V30 44 H -1.281645 4.842404 1.647303 0
M  V30 45 H -2.560273 3.675258 2.134724 0
M  V30 46 H -2.240510 -1.859037 1.265639 0
M  V30 47 H -6.169004 -1.742045 -0.165059 0
M  V30 48 H -2.883507 -1.979073 -2.962844 0
M  V30 49 H -1.012106 -3.710711 -2.387442 0
M  V30 50 H 3.574319 -4.815429 -1.340079 0
M  V30 END ATOM
M  V30 BEGIN BOND
M  V30 1 3 1 2
M  V30 2 1 2 3
M  V30 3 2 3 4
M  V30 4 1 4 5
M  V30 5 2 5 6
M  V30 6 1 6 7
M  V30 7 1 7 8
M  V30 8 2 8 9
M  V30 9 1 9 10
M  V30 10 1 10 11
M  V30 11 1 11 12
M  V30 12 1 12 13
M  V30 13 1 13 14
M  V30 14 1 14 15
M  V30 15 1 15 16
M  V30 16 1 16 17
M  V30 17 1 17 18
M  V30 18 2 10 19
M  V30 19 1 19 20
M  V30 20 2 20 21
M  V30 21 1 21 22
M  V30 22 1 22 23
M  V30 23 2 22 24
M  V30 24 1 24 25
M  V30 25 1 25 26
M  V30 26 2 25 27
M  V30 27 1 19 28
M  V30 28 2 28 29
M  V30 29 1 6 30
M  V30 30 2 30 31
M  V30 31 1 31 3
M  V30 32 1 29 8
M  V30 33 1 18 13
M  V30 34 1 27 20
M  V30 35 1 4 32
M  V30 36 1 7 33
M  V30 37 1 9 34
M  V30 38 1 11 35
M  V30 39 1 12 36
M  V30 40 1 12 37
M  V30 41 1 13 38 CFG=1
M  V30 42 1 14 39
M  V30 43 1 14 40
M  V30 44 1 15 41
M  V30 45 1 16 42
M  V30 46 1 16 43
M  V30 47 1 17 44
M  V30 48 1 17 45
M  V30 49 1 21 46
M  V30 50 1 24 47
M  V30 51 1 27 48
M  V30 52 1 28 49
M  V30 53 1 30 50
M  V30 END BOND
M  V30 END CTAB
M  END
>  <Dataset>  (157) 
ChEMBL_Kinases

>  <Ligand_Instance>  (157) 
nan

>  <PDB_ID>  (157) 
nan

>  <Standardized_SMILES>  (157) 
N#Cc1cnc(Nc2cc(NC[C@H]3CNCCO3)c(-c3cc(F)cc(F)c3)cn2)cn1

>  <Name>  (157) 
nan

>  <Pocket>  (157) 
nan

>  <ATP_Site>  (157) 
nan

>  <Peripheral>  (157) 
nan

>  <Num_H_Atoms_ProtBoundConf>  (157) 
nan

>  <Num_Resolved_Atoms>  (157) 
nan

>  <Num_Not_Resolved_Atoms>  (157) 
nan

$$$$
CHEMBL4796797
     RDKit          3D

  0  0  0  0  0  0  0  0  0  0999 V3000
M  V30 BEGIN CTAB
M  V30 COUNTS 56 59 0 0 0
M  V30 BEGIN ATOM
M  V30 1 C 2.937177 -0.756829 2.490940 0
M  V30 2 O 2.096905 0.363996 2.271943 0
M  V30 3 C 1.636202 1.177016 3.257834 0
M  V30 4 O 2.275843 0.434845 4.056353 0
M  V30 5 C 0.798113 2.347662 3.326666 0
M  V30 6 C 0.711054 2.669857 4.640796 0
M  V30 7 C -0.090941 3.789492 4.884522 0
M  V30 8 S -0.696158 4.338557 3.172286 0
M  V30 9 C 0.196427 3.003042 2.321747 0
M  V30 10 N 0.204731 2.748143 0.971725 0
M  V30 11 C 1.029778 2.761619 -0.173566 0
M  V30 12 N 1.158111 1.601414 -0.888899 0
M  V30 13 C 1.904156 1.497522 -1.995784 0
M  V30 14 N 1.992322 0.255042 -2.719683 0
M  V30 15 C 1.236808 -0.834218 -2.172073 0
M  V30 16 C 1.556601 -1.696265 -1.142818 0
M  V30 17 C 0.670940 -2.671516 -0.751906 0
M  V30 18 C -0.555556 -2.828000 -1.360467 0
M  V30 19 N -1.470846 -3.845241 -0.961525 0
M  V30 20 C -2.897252 -3.752280 -1.189324 0
M  V30 21 C -3.513613 -3.576588 0.200913 0
M  V30 22 N -3.236418 -4.711871 0.990052 0
M  V30 23 C -4.327509 -5.519654 1.381481 0
M  V30 24 C -1.944849 -5.272641 0.962914 0
M  V30 25 C -1.152379 -5.113594 -0.294290 0
M  V30 26 C -0.915666 -1.989931 -2.393228 0
M  V30 27 C -0.008963 -0.996333 -2.789320 0
M  V30 28 N 2.570334 2.577588 -2.446434 0
M  V30 29 C 2.516516 3.764365 -1.827092 0
M  V30 30 C 1.738926 3.818852 -0.696252 0
M  V30 31 N 1.714163 5.083090 -0.056198 0 CHG=1 VAL=4
M  V30 32 O 1.876412 6.204708 -0.567209 0
M  V30 33 O 1.546135 5.670010 1.167856 0 CHG=-1 VAL=1
M  V30 34 H 2.520305 -1.506812 3.185320 0
M  V30 35 H 3.900669 -0.383149 2.885769 0
M  V30 36 H 3.170320 -1.287444 1.563603 0
M  V30 37 H 0.995659 2.444028 5.644616 0
M  V30 38 H -0.534390 4.504917 5.637999 0
M  V30 39 H -0.757155 2.422885 0.690986 0
M  V30 40 H 2.582843 0.213998 -3.579598 0
M  V30 41 H 2.538785 -1.494838 -0.734254 0
M  V30 42 H 0.986943 -3.311873 0.052973 0
M  V30 43 H -3.202581 -2.883588 -1.813347 0
M  V30 44 H -3.259763 -4.708491 -1.588944 0
M  V30 45 H -4.613943 -3.429385 0.121592 0
M  V30 46 H -3.115021 -2.656692 0.682671 0
M  V30 47 H -5.244691 -4.862472 1.377381 0
M  V30 48 H -4.546717 -6.371899 0.738335 0
M  V30 49 H -4.221990 -5.882776 2.441765 0
M  V30 50 H -2.072993 -6.381472 1.174963 0
M  V30 51 H -1.328154 -4.926394 1.836428 0
M  V30 52 H -0.079071 -5.205531 -0.074662 0
M  V30 53 H -1.527658 -5.913006 -1.004037 0
M  V30 54 H -1.858944 -2.017545 -2.964036 0
M  V30 55 H -0.320288 -0.335560 -3.619897 0
M  V30 56 H 3.053831 4.625371 -2.204743 0
M  V30 END ATOM
M  V30 BEGIN BOND
M  V30 1 1 1 2
M  V30 2 1 2 3
M  V30 3 2 3 4
M  V30 4 1 3 5
M  V30 5 1 5 6
M  V30 6 2 6 7
M  V30 7 1 7 8
M  V30 8 1 8 9
M  V30 9 1 9 10
M  V30 10 1 10 11
M  V30 11 2 11 12
M  V30 12 1 12 13
M  V30 13 1 13 14
M  V30 14 1 14 15
M  V30 15 2 15 16
M  V30 16 1 16 17
M  V30 17 2 17 18
M  V30 18 1 18 19
M  V30 19 1 19 20
M  V30 20 1 20 21
M  V30 21 1 21 22
M  V30 22 1 22 23
M  V30 23 1 22 24
M  V30 24 1 24 25
M  V30 25 1 18 26
M  V30 26 2 26 27
M  V30 27 2 13 28
M  V30 28 1 28 29
M  V30 29 2 29 30
M  V30 30 1 30 31
M  V30 31 2 31 32
M  V30 32 1 31 33
M  V30 33 2 9 5
M  V30 34 1 30 11
M  V30 35 1 27 15
M  V30 36 1 25 19
M  V30 37 1 1 34
M  V30 38 1 1 35
M  V30 39 1 1 36
M  V30 40 1 6 37
M  V30 41 1 7 38
M  V30 42 1 10 39
M  V30 43 1 14 40
M  V30 44 1 16 41
M  V30 45 1 17 42
M  V30 46 1 20 43
M  V30 47 1 20 44
M  V30 48 1 21 45
M  V30 49 1 21 46
M  V30 50 1 23 47
M  V30 51 1 23 48
M  V30 52 1 23 49
M  V30 53 1 24 50
M  V30 54 1 24 51
M  V30 55 1 25 52
M  V30 56 1 25 53
M  V30 57 1 26 54
M  V30 58 1 27 55
M  V30 59 1 29 56
M  V30 END BOND
M  V30 END CTAB
M  END
>  <Dataset>  (158) 
ChEMBL_Kinases

>  <Ligand_Instance>  (158) 
nan

>  <PDB_ID>  (158) 
nan

>  <Standardized_SMILES>  (158) 
COC(=O)c1ccsc1Nc1nc(Nc2ccc(N3CCN(C)CC3)cc2)ncc1[N+](=O)[O-]

>  <Name>  (158) 
nan

>  <Pocket>  (158) 
nan

>  <ATP_Site>  (158) 
nan

>  <Peripheral>  (158) 
nan

>  <Num_H_Atoms_ProtBoundConf>  (158) 
nan

>  <Num_Resolved_Atoms>  (158) 
nan

>  <Num_Not_Resolved_Atoms>  (158) 
nan

$$$$
CHEMBL4796861
     RDKit          3D

  0  0  0  0  0  0  0  0  0  0999 V3000
M  V30 BEGIN CTAB
M  V30 COUNTS 61 64 0 0 0
M  V30 BEGIN ATOM
M  V30 1 C 7.664362 1.757241 -3.524287 0
M  V30 2 C 6.878437 0.902597 -4.165092 0
M  V30 3 S 6.434424 -0.341895 -5.339651 0
M  V30 4 O 5.606307 0.283946 -6.444869 0
M  V30 5 O 7.663489 -0.886121 -6.005931 0
M  V30 6 N 5.559187 -1.614909 -4.571563 0
M  V30 7 C 4.322265 -1.605958 -3.887432 0
M  V30 8 C 3.191441 -1.833148 -4.668138 0
M  V30 9 C 3.025842 -2.101627 -6.141875 0
M  V30 10 N 2.075351 -1.793894 -3.886036 0
M  V30 11 C 2.481788 -1.543369 -2.605418 0
M  V30 12 C 1.552397 -1.381700 -1.505656 0
M  V30 13 C 1.414523 -2.027365 -0.365267 0
M  V30 14 C 2.249781 -3.133486 0.030469 0
M  V30 15 O 3.175250 -3.633100 -0.652987 0
M  V30 16 N 1.798574 -3.503667 1.303572 0
M  V30 17 C 0.708418 -2.637897 1.672477 0
M  V30 18 C -0.087466 -2.563852 2.799919 0
M  V30 19 C -1.097605 -1.628598 2.938284 0
M  V30 20 C -1.352547 -0.728839 1.953157 0
M  V30 21 C -2.355722 0.329757 1.900758 0
M  V30 22 O -2.549256 1.138815 0.929658 0
M  V30 23 N -3.257918 0.579324 2.971373 0
M  V30 24 C -4.242025 1.645253 2.880301 0 CFG=2
M  V30 25 C -3.804221 2.666795 3.943398 0
M  V30 26 C -5.599101 1.218534 3.309170 0
M  V30 27 C -5.692049 0.479761 4.467433 0
M  V30 28 C -6.962434 0.098363 4.846882 0
M  V30 29 C -8.077736 0.430693 4.118720 0
M  V30 30 C -7.948870 1.179432 2.950911 0
M  V30 31 C -6.688574 1.567264 2.559738 0
M  V30 32 C -0.562249 -0.783103 0.803311 0
M  V30 33 C 0.442205 -1.719802 0.676603 0
M  V30 34 C 3.854750 -1.427404 -2.603243 0
M  V30 35 C 4.826650 -1.132862 -1.532502 0
M  V30 36 H 7.746265 2.510148 -2.749923 0
M  V30 37 H 8.734184 1.903730 -3.736257 0
M  V30 38 H 5.974290 1.137304 -3.614293 0
M  V30 39 H 5.944377 -2.605426 -4.565214 0
M  V30 40 H 2.698170 -3.148173 -6.310178 0
M  V30 41 H 3.968302 -1.903579 -6.690531 0
M  V30 42 H 2.259563 -1.412003 -6.540095 0
M  V30 43 H 1.076208 -1.925177 -4.169164 0
M  V30 44 H 0.850477 -0.556986 -1.699191 0
M  V30 45 H 2.216467 -4.283815 1.852675 0
M  V30 46 H 0.063403 -3.251121 3.620985 0
M  V30 47 H -1.745267 -1.530899 3.797597 0
M  V30 48 H -3.232021 0.003927 3.839940 0
M  V30 49 H -4.214650 2.179528 1.928468 0
M  V30 50 H -2.710914 2.860740 3.843254 0
M  V30 51 H -3.930188 2.148308 4.920564 0
M  V30 52 H -4.371550 3.593615 3.873764 0
M  V30 53 H -4.846291 0.198416 5.067841 0
M  V30 54 H -7.053902 -0.482993 5.754834 0
M  V30 55 H -9.021445 0.098076 4.479337 0
M  V30 56 H -8.819512 1.434987 2.389461 0
M  V30 57 H -6.580958 2.142195 1.663433 0
M  V30 58 H -0.665350 -0.119198 -0.058075 0
M  V30 59 H 4.360030 -1.180598 -0.510567 0
M  V30 60 H 5.242042 -0.116343 -1.725041 0
M  V30 61 H 5.680297 -1.827198 -1.515813 0
M  V30 END ATOM
M  V30 BEGIN BOND
M  V30 1 2 1 2
M  V30 2 1 2 3
M  V30 3 2 3 4
M  V30 4 2 3 5
M  V30 5 1 3 6
M  V30 6 1 6 7
M  V30 7 2 7 8
M  V30 8 1 8 9
M  V30 9 1 8 10
M  V30 10 1 10 11
M  V30 11 1 11 12
M  V30 12 2 12 13
M  V30 13 1 13 14
M  V30 14 2 14 15
M  V30 15 1 14 16
M  V30 16 1 16 17
M  V30 17 2 17 18
M  V30 18 1 18 19
M  V30 19 2 19 20
M  V30 20 1 20 21
M  V30 21 2 21 22
M  V30 22 1 21 23
M  V30 23 1 23 24
M  V30 24 1 24 25
M  V30 25 1 24 26
M  V30 26 2 26 27
M  V30 27 1 27 28
M  V30 28 2 28 29
M  V30 29 1 29 30
M  V30 30 2 30 31
M  V30 31 1 20 32
M  V30 32 2 32 33
M  V30 33 2 11 34
M  V30 34 1 34 35
M  V30 35 1 34 7
M  V30 36 1 33 13
M  V30 37 1 33 17
M  V30 38 1 31 26
M  V30 39 1 1 36
M  V30 40 1 1 37
M  V30 41 1 2 38
M  V30 42 1 6 39
M  V30 43 1 9 40
M  V30 44 1 9 41
M  V30 45 1 9 42
M  V30 46 1 10 43
M  V30 47 1 12 44
M  V30 48 1 16 45
M  V30 49 1 18 46
M  V30 50 1 19 47
M  V30 51 1 23 48
M  V30 52 1 24 49 CFG=3
M  V30 53 1 25 50
M  V30 54 1 25 51
M  V30 55 1 25 52
M  V30 56 1 27 53
M  V30 57 1 28 54
M  V30 58 1 29 55
M  V30 59 1 30 56
M  V30 60 1 31 57
M  V30 61 1 32 58
M  V30 62 1 35 59
M  V30 63 1 35 60
M  V30 64 1 35 61
M  V30 END BOND
M  V30 END CTAB
M  END
>  <Dataset>  (159) 
ChEMBL_Kinases

>  <Ligand_Instance>  (159) 
nan

>  <PDB_ID>  (159) 
nan

>  <Standardized_SMILES>  (159) 
C=CS(=O)(=O)Nc1c(C)[nH]c(/C=C2\C(=O)Nc3ccc(C(=O)N[C@H](C)c4ccccc4)cc32)c1C

>  <Name>  (159) 
nan

>  <Pocket>  (159) 
nan

>  <ATP_Site>  (159) 
nan

>  <Peripheral>  (159) 
nan

>  <Num_H_Atoms_ProtBoundConf>  (159) 
nan

>  <Num_Resolved_Atoms>  (159) 
nan

>  <Num_Not_Resolved_Atoms>  (159) 
nan

$$$$
CHEMBL4796882
     RDKit          3D

  0  0  0  0  0  0  0  0  0  0999 V3000
M  V30 BEGIN CTAB
M  V30 COUNTS 51 54 0 0 0
M  V30 BEGIN ATOM
M  V30 1 C 4.232646 0.705226 5.822325 0
M  V30 2 C 3.483062 -0.268028 4.901338 0
M  V30 3 C 4.273537 -0.358613 3.619261 0
M  V30 4 S 3.510860 -1.460828 2.455740 0
M  V30 5 O 3.434353 -2.803134 3.152668 0
M  V30 6 O 4.371140 -1.659701 1.244750 0
M  V30 7 N 1.939876 -1.011400 1.997714 0
M  V30 8 C 1.638033 0.208501 1.334439 0
M  V30 9 C 2.685907 0.979259 0.875866 0
M  V30 10 C 2.434275 2.164795 0.224658 0
M  V30 11 C 1.118961 2.598671 0.020775 0
M  V30 12 F 0.975421 3.795511 -0.639523 0
M  V30 13 C 0.053709 1.846763 0.467954 0
M  V30 14 C -1.277264 2.369871 0.254562 0
M  V30 15 O -1.250042 3.643180 0.168147 0
M  V30 16 C -2.602237 1.842196 0.116358 0
M  V30 17 N -3.688714 2.570408 0.413443 0
M  V30 18 N -4.778694 1.849647 0.160972 0
M  V30 19 C -4.487461 0.610557 -0.316073 0
M  V30 20 N -5.235188 -0.412443 -0.704924 0
M  V30 21 C -4.635174 -1.515839 -1.154638 0
M  V30 22 C -3.246344 -1.561121 -1.202864 0
M  V30 23 C -2.605739 -2.794549 -1.705861 0
M  V30 24 C -3.197280 -4.035978 -1.507389 0
M  V30 25 C -2.559605 -5.175500 -1.998315 0
M  V30 26 C -1.357021 -5.004113 -2.664808 0
M  V30 27 C -0.783729 -3.767561 -2.853476 0
M  V30 28 O 0.424223 -3.565804 -3.519675 0
M  V30 29 C -1.399897 -2.630082 -2.374989 0
M  V30 30 C -2.490412 -0.490068 -0.794525 0
M  V30 31 C -3.110046 0.641317 -0.331644 0
M  V30 32 C 0.367046 0.685767 1.105780 0
M  V30 33 F -0.582799 -0.101029 1.624178 0
M  V30 34 H 3.601740 0.929747 6.730604 0
M  V30 35 H 5.210444 0.304101 6.147089 0
M  V30 36 H 4.356749 1.680779 5.316360 0
M  V30 37 H 2.529368 0.250143 4.641868 0
M  V30 38 H 3.344532 -1.239875 5.378080 0
M  V30 39 H 5.254847 -0.839569 3.881165 0
M  V30 40 H 4.419427 0.656843 3.264487 0
M  V30 41 H 1.103428 -1.632925 2.190033 0
M  V30 42 H 3.730705 0.728854 0.981549 0
M  V30 43 H 3.256819 2.788177 -0.144457 0
M  V30 44 H -5.728745 2.265799 0.338317 0
M  V30 45 H -5.282199 -2.326243 -1.461377 0
M  V30 46 H -4.142517 -4.118902 -0.977621 0
M  V30 47 H -2.989557 -6.162946 -1.863620 0
M  V30 48 H -0.825567 -5.875083 -3.065243 0
M  V30 49 H 1.145078 -4.281587 -3.482084 0
M  V30 50 H -0.981044 -1.635531 -2.502549 0
M  V30 51 H -1.411209 -0.514363 -0.840165 0
M  V30 END ATOM
M  V30 BEGIN BOND
M  V30 1 1 1 2
M  V30 2 1 2 3
M  V30 3 1 3 4
M  V30 4 2 4 5
M  V30 5 2 4 6
M  V30 6 1 4 7
M  V30 7 1 7 8
M  V30 8 2 8 9
M  V30 9 1 9 10
M  V30 10 2 10 11
M  V30 11 1 11 12
M  V30 12 1 11 13
M  V30 13 1 13 14
M  V30 14 2 14 15
M  V30 15 1 14 16
M  V30 16 2 16 17
M  V30 17 1 17 18
M  V30 18 1 18 19
M  V30 19 2 19 20
M  V30 20 1 20 21
M  V30 21 2 21 22
M  V30 22 1 22 23
M  V30 23 2 23 24
M  V30 24 1 24 25
M  V30 25 2 25 26
M  V30 26 1 26 27
M  V30 27 1 27 28
M  V30 28 2 27 29
M  V30 29 1 22 30
M  V30 30 2 30 31
M  V30 31 2 13 32
M  V30 32 1 32 33
M  V30 33 1 32 8
M  V30 34 1 31 16
M  V30 35 1 31 19
M  V30 36 1 29 23
M  V30 37 1 1 34
M  V30 38 1 1 35
M  V30 39 1 1 36
M  V30 40 1 2 37
M  V30 41 1 2 38
M  V30 42 1 3 39
M  V30 43 1 3 40
M  V30 44 1 7 41
M  V30 45 1 9 42
M  V30 46 1 10 43
M  V30 47 1 18 44
M  V30 48 1 21 45
M  V30 49 1 24 46
M  V30 50 1 25 47
M  V30 51 1 26 48
M  V30 52 1 28 49
M  V30 53 1 29 50
M  V30 54 1 30 51
M  V30 END BOND
M  V30 END CTAB
M  END
>  <Dataset>  (160) 
ChEMBL_Kinases

>  <Ligand_Instance>  (160) 
nan

>  <PDB_ID>  (160) 
nan

>  <Standardized_SMILES>  (160) 
CCCS(=O)(=O)Nc1ccc(F)c(C(=O)c2n[nH]c3ncc(-c4cccc(O)c4)cc23)c1F

>  <Name>  (160) 
nan

>  <Pocket>  (160) 
nan

>  <ATP_Site>  (160) 
nan

>  <Peripheral>  (160) 
nan

>  <Num_H_Atoms_ProtBoundConf>  (160) 
nan

>  <Num_Resolved_Atoms>  (160) 
nan

>  <Num_Not_Resolved_Atoms>  (160) 
nan

$$$$
CHEMBL4796946
     RDKit          3D

  0  0  0  0  0  0  0  0  0  0999 V3000
M  V30 BEGIN CTAB
M  V30 COUNTS 50 53 0 0 0
M  V30 BEGIN ATOM
M  V30 1 C 1.363245 -2.882915 2.244775 0
M  V30 2 C 2.450989 -3.011379 1.222913 0
M  V30 3 C 2.883753 -4.286199 0.876747 0
M  V30 4 C 3.888720 -4.373656 -0.068920 0
M  V30 5 C 4.472677 -3.280152 -0.674903 0
M  V30 6 C 4.025396 -2.009188 -0.314826 0
M  V30 7 C 4.596780 -0.783885 -0.915427 0
M  V30 8 C 3.012614 -1.885102 0.636424 0
M  V30 9 N 2.546061 -0.574400 1.012751 0
M  V30 10 C 1.463520 -0.214981 0.138855 0
M  V30 11 O 1.231956 -1.142577 -0.702467 0
M  V30 12 N 0.754882 1.019647 0.217849 0
M  V30 13 C 0.969754 2.110381 1.148255 0
M  V30 14 C -0.283501 2.535296 1.842285 0
M  V30 15 C -1.531478 2.202053 1.052218 0
M  V30 16 N -2.017317 0.893241 1.403431 0
M  V30 17 C -3.170815 0.343159 0.812331 0
M  V30 18 N -3.898523 0.970798 -0.103118 0
M  V30 19 C -4.994482 0.407619 -0.642161 0
M  V30 20 N -5.428365 -0.833010 -0.289082 0
M  V30 21 C -4.732432 -1.540589 0.646148 0
M  V30 22 N -4.895031 -2.755020 1.195669 0
M  V30 23 N -3.910833 -2.931982 2.059770 0
M  V30 24 C -3.124339 -1.840240 2.063860 0
M  V30 25 C -3.623456 -0.911188 1.158454 0
M  V30 26 C -1.204343 2.314612 -0.423028 0
M  V30 27 C -0.305914 1.174148 -0.767068 0
M  V30 28 H 1.504812 -3.734828 2.950092 0
M  V30 29 H 1.472794 -1.970668 2.829625 0
M  V30 30 H 0.362127 -3.023244 1.794572 0
M  V30 31 H 2.480156 -5.198300 1.303286 0
M  V30 32 H 4.255724 -5.363298 -0.366991 0
M  V30 33 H 5.263200 -3.398663 -1.416326 0
M  V30 34 H 3.969132 -0.301758 -1.672735 0
M  V30 35 H 5.546212 -1.092958 -1.438745 0
M  V30 36 H 4.957069 -0.055327 -0.133176 0
M  V30 37 H 2.822924 0.132600 1.756726 0
M  V30 38 H 1.724630 1.871089 1.910859 0
M  V30 39 H 1.372175 2.965864 0.568311 0
M  V30 40 H -0.355881 2.010094 2.814392 0
M  V30 41 H -0.255532 3.631211 1.977380 0
M  V30 42 H -2.351966 2.928786 1.232254 0
M  V30 43 H -1.495245 0.332369 2.122197 0
M  V30 44 H -5.617142 0.895394 -1.398040 0
M  V30 45 H -5.676533 -3.396430 0.944788 0
M  V30 46 H -2.248101 -1.726268 2.682031 0
M  V30 47 H -2.127311 2.277062 -1.004195 0
M  V30 48 H -0.632450 3.254475 -0.548251 0
M  V30 49 H -0.840531 0.203649 -0.839889 0
M  V30 50 H 0.231742 1.403221 -1.730633 0
M  V30 END ATOM
M  V30 BEGIN BOND
M  V30 1 1 1 2
M  V30 2 2 2 3
M  V30 3 1 3 4
M  V30 4 2 4 5
M  V30 5 1 5 6
M  V30 6 1 6 7
M  V30 7 2 6 8
M  V30 8 1 8 9
M  V30 9 1 9 10
M  V30 10 2 10 11
M  V30 11 1 10 12
M  V30 12 1 12 13
M  V30 13 1 13 14
M  V30 14 1 14 15
M  V30 15 1 15 16
M  V30 16 1 16 17
M  V30 17 2 17 18
M  V30 18 1 18 19
M  V30 19 2 19 20
M  V30 20 1 20 21
M  V30 21 1 21 22
M  V30 22 1 22 23
M  V30 23 2 23 24
M  V30 24 1 24 25
M  V30 25 1 15 26
M  V30 26 1 26 27
M  V30 27 1 8 2
M  V30 28 1 27 12
M  V30 29 1 25 17
M  V30 30 2 25 21
M  V30 31 1 1 28
M  V30 32 1 1 29
M  V30 33 1 1 30
M  V30 34 1 3 31
M  V30 35 1 4 32
M  V30 36 1 5 33
M  V30 37 1 7 34
M  V30 38 1 7 35
M  V30 39 1 7 36
M  V30 40 1 9 37
M  V30 41 1 13 38
M  V30 42 1 13 39
M  V30 43 1 14 40
M  V30 44 1 14 41
M  V30 45 1 15 42
M  V30 46 1 16 43
M  V30 47 1 19 44
M  V30 48 1 22 45
M  V30 49 1 24 46
M  V30 50 1 26 47
M  V30 51 1 26 48
M  V30 52 1 27 49
M  V30 53 1 27 50
M  V30 END BOND
M  V30 END CTAB
M  END
>  <Dataset>  (161) 
ChEMBL_Kinases

>  <Ligand_Instance>  (161) 
nan

>  <PDB_ID>  (161) 
nan

>  <Standardized_SMILES>  (161) 
Cc1cccc(C)c1NC(=O)N1CCC(Nc2ncnc3[nH]ncc23)CC1

>  <Name>  (161) 
nan

>  <Pocket>  (161) 
nan

>  <ATP_Site>  (161) 
nan

>  <Peripheral>  (161) 
nan

>  <Num_H_Atoms_ProtBoundConf>  (161) 
nan

>  <Num_Resolved_Atoms>  (161) 
nan

>  <Num_Not_Resolved_Atoms>  (161) 
nan

$$$$
CHEMBL4796952
     RDKit          3D

  0  0  0  0  0  0  0  0  0  0999 V3000
M  V30 BEGIN CTAB
M  V30 COUNTS 78 83 0 0 0
M  V30 BEGIN ATOM
M  V30 1 C 5.959059 -0.760789 3.415047 0
M  V30 2 C 6.021750 -1.127008 1.970253 0
M  V30 3 C 4.858355 -1.106290 1.120553 0 CFG=2
M  V30 4 C 5.329035 -1.594675 -0.243941 0
M  V30 5 N 6.430926 -2.382018 -0.456648 0
M  V30 6 N 6.477679 -2.718963 -1.728024 0
M  V30 7 C 5.439139 -2.182001 -2.392001 0
M  V30 8 C 5.203325 -2.365287 -3.838547 0
M  V30 9 N 4.775774 -1.507497 -1.439542 0
M  V30 10 C 3.665945 -0.655832 -1.522714 0
M  V30 11 C 2.997972 -0.535852 -2.711370 0
M  V30 12 N 1.906179 0.275525 -2.790513 0
M  V30 13 C 1.499306 0.950313 -1.688345 0
M  V30 14 N 0.417098 1.844220 -1.503900 0
M  V30 15 C -0.945590 1.411408 -1.324034 0
M  V30 16 C -1.154331 0.035987 -1.441172 0
M  V30 17 C -2.365332 -0.609959 -1.328771 0
M  V30 18 C -3.467920 0.188543 -1.075876 0
M  V30 19 C -4.848436 -0.312378 -0.932197 0
M  V30 20 O -5.811569 0.418417 -0.633927 0
M  V30 21 N -5.073877 -1.718692 -1.151262 0
M  V30 22 N -6.421418 -2.157172 -1.000621 0
M  V30 23 C -6.503806 -3.577409 -1.307138 0
M  V30 24 C -6.015429 -4.396242 -0.131895 0
M  V30 25 N -7.001878 -4.299062 0.940894 0
M  V30 26 C -7.919582 -5.412568 0.799157 0
M  V30 27 C -7.717064 -3.043402 0.813300 0
M  V30 28 C -6.845467 -1.905993 0.362985 0
M  V30 29 C -3.298301 1.556381 -0.953076 0
M  V30 30 C -2.073935 2.181414 -1.070244 0
M  V30 31 O -1.776397 3.510828 -0.970738 0
M  V30 32 C -2.626221 4.579399 -0.722120 0
M  V30 33 N 2.193196 0.792290 -0.558916 0
M  V30 34 C 3.277921 0.018363 -0.388634 0
M  V30 35 N 3.949783 -0.070467 0.911720 0
M  V30 36 C 3.572161 1.005894 1.783825 0
M  V30 37 C 4.617392 2.018053 2.126338 0
M  V30 38 C 4.395165 2.492886 3.521178 0
M  V30 39 C 3.257928 1.677398 4.038824 0
M  V30 40 C 2.895937 0.606406 3.068258 0
M  V30 41 H 6.865636 -1.306926 3.888057 0
M  V30 42 H 6.152959 0.261543 3.700409 0
M  V30 43 H 5.120181 -1.272411 3.934876 0
M  V30 44 H 6.344601 -2.229660 2.005415 0
M  V30 45 H 6.967869 -0.709921 1.516108 0
M  V30 46 H 4.231518 -2.020467 1.445165 0
M  V30 47 H 4.317497 -2.964701 -4.093484 0
M  V30 48 H 5.318653 -1.430931 -4.435554 0
M  V30 49 H 6.060275 -3.003157 -4.237951 0
M  V30 50 H 3.192011 -0.998494 -3.647478 0
M  V30 51 H 0.450421 2.893917 -1.471448 0
M  V30 52 H -0.316364 -0.631171 -1.638485 0
M  V30 53 H -2.495145 -1.674001 -1.425488 0
M  V30 54 H -4.354895 -2.420605 -1.403424 0
M  V30 55 H -7.545055 -3.884105 -1.518678 0
M  V30 56 H -5.886295 -3.819546 -2.209920 0
M  V30 57 H -5.986866 -5.443143 -0.472489 0
M  V30 58 H -5.007571 -4.064241 0.204915 0
M  V30 59 H -8.901070 -5.066947 1.231183 0
M  V30 60 H -8.085517 -5.697794 -0.258183 0
M  V30 61 H -7.585016 -6.300700 1.382656 0
M  V30 62 H -8.165698 -2.826815 1.829519 0
M  V30 63 H -8.530341 -3.171452 0.086330 0
M  V30 64 H -5.935563 -1.794982 1.009017 0
M  V30 65 H -7.464049 -0.975511 0.415192 0
M  V30 66 H -4.131234 2.245694 -0.751835 0
M  V30 67 H -3.329168 4.802821 -1.525062 0
M  V30 68 H -3.127847 4.521472 0.275967 0
M  V30 69 H -1.961446 5.488548 -0.627956 0
M  V30 70 H 2.783781 1.650792 1.288882 0
M  V30 71 H 4.555469 2.964261 1.494119 0
M  V30 72 H 5.648049 1.688714 1.881213 0
M  V30 73 H 4.124727 3.588945 3.596200 0
M  V30 74 H 5.302056 2.433129 4.164728 0
M  V30 75 H 2.381407 2.373986 4.203994 0
M  V30 76 H 3.447917 1.277693 5.066192 0
M  V30 77 H 3.046439 -0.423879 3.382129 0
M  V30 78 H 1.758055 0.665408 2.970916 0
M  V30 END ATOM
M  V30 BEGIN BOND
M  V30 1 1 1 2
M  V30 2 1 2 3
M  V30 3 1 3 4
M  V30 4 2 4 5
M  V30 5 1 5 6
M  V30 6 2 6 7
M  V30 7 1 7 8
M  V30 8 1 7 9
M  V30 9 1 9 10
M  V30 10 2 10 11
M  V30 11 1 11 12
M  V30 12 2 12 13
M  V30 13 1 13 14
M  V30 14 1 14 15
M  V30 15 2 15 16
M  V30 16 1 16 17
M  V30 17 2 17 18
M  V30 18 1 18 19
M  V30 19 2 19 20
M  V30 20 1 19 21
M  V30 21 1 21 22
M  V30 22 1 22 23
M  V30 23 1 23 24
M  V30 24 1 24 25
M  V30 25 1 25 26
M  V30 26 1 25 27
M  V30 27 1 27 28
M  V30 28 1 18 29
M  V30 29 2 29 30
M  V30 30 1 30 31
M  V30 31 1 31 32
M  V30 32 1 13 33
M  V30 33 2 33 34
M  V30 34 1 34 35
M  V30 35 1 35 36
M  V30 36 1 36 37
M  V30 37 1 37 38
M  V30 38 1 38 39
M  V30 39 1 39 40
M  V30 40 1 35 3
M  V30 41 1 40 36
M  V30 42 1 9 4
M  V30 43 1 34 10
M  V30 44 1 30 15
M  V30 45 1 28 22
M  V30 46 1 1 41
M  V30 47 1 1 42
M  V30 48 1 1 43
M  V30 49 1 2 44
M  V30 50 1 2 45
M  V30 51 1 3 46 CFG=1
M  V30 52 1 8 47
M  V30 53 1 8 48
M  V30 54 1 8 49
M  V30 55 1 11 50
M  V30 56 1 14 51
M  V30 57 1 16 52
M  V30 58 1 17 53
M  V30 59 1 21 54
M  V30 60 1 23 55
M  V30 61 1 23 56
M  V30 62 1 24 57
M  V30 63 1 24 58
M  V30 64 1 26 59
M  V30 65 1 26 60
M  V30 66 1 26 61
M  V30 67 1 27 62
M  V30 68 1 27 63
M  V30 69 1 28 64
M  V30 70 1 28 65
M  V30 71 1 29 66
M  V30 72 1 32 67
M  V30 73 1 32 68
M  V30 74 1 32 69
M  V30 75 1 36 70
M  V30 76 1 37 71
M  V30 77 1 37 72
M  V30 78 1 38 73
M  V30 79 1 38 74
M  V30 80 1 39 75
M  V30 81 1 39 76
M  V30 82 1 40 77
M  V30 83 1 40 78
M  V30 END BOND
M  V30 END CTAB
M  END
>  <Dataset>  (162) 
ChEMBL_Kinases

>  <Ligand_Instance>  (162) 
nan

>  <PDB_ID>  (162) 
nan

>  <Standardized_SMILES>  (162) 
CC[C@@H]1c2nnc(C)n2-c2cnc(Nc3ccc(C(=O)NN4CCN(C)CC4)cc3OC)nc2N1C1CCCC1

>  <Name>  (162) 
nan

>  <Pocket>  (162) 
nan

>  <ATP_Site>  (162) 
nan

>  <Peripheral>  (162) 
nan

>  <Num_H_Atoms_ProtBoundConf>  (162) 
nan

>  <Num_Resolved_Atoms>  (162) 
nan

>  <Num_Not_Resolved_Atoms>  (162) 
nan

$$$$
CHEMBL4796986
     RDKit          3D

  0  0  0  0  0  0  0  0  0  0999 V3000
M  V30 BEGIN CTAB
M  V30 COUNTS 82 87 0 0 0
M  V30 BEGIN ATOM
M  V30 1 C 1.082809 -4.519972 5.153680 0
M  V30 2 C 2.234452 -3.766969 5.811610 0
M  V30 3 O 2.100251 -2.386382 5.623901 0
M  V30 4 C 2.089155 -1.796673 4.376801 0
M  V30 5 C 1.931143 -0.416861 4.433464 0
M  V30 6 C 1.893342 0.379306 3.300185 0
M  V30 7 C 2.025420 -0.293893 2.073675 0
M  V30 8 C 1.953819 0.513383 0.870076 0
M  V30 9 N 3.178472 1.087928 0.354393 0
M  V30 10 C 2.832502 1.898802 -0.816490 0
M  V30 11 N 1.629632 1.871366 -1.406256 0
M  V30 12 C 1.304728 2.650000 -2.439923 0
M  V30 13 N 0.044920 2.624143 -3.091035 0
M  V30 14 C -1.081738 1.773350 -2.957307 0
M  V30 15 C -1.041625 0.683180 -2.118773 0
M  V30 16 C -2.079025 -0.209173 -1.943314 0
M  V30 17 C -3.254513 -0.036092 -2.634972 0
M  V30 18 C -4.428197 -0.895341 -2.567310 0
M  V30 19 O -5.528249 -0.616447 -3.155050 0
M  V30 20 N -4.483789 -2.124186 -1.851296 0
M  V30 21 N -5.553275 -2.976249 -1.744773 0
M  V30 22 C -6.418271 -2.793094 -0.633456 0
M  V30 23 C -6.281033 -3.856714 0.433860 0
M  V30 24 N -4.928047 -4.282389 0.620170 0
M  V30 25 C -4.131320 -3.371243 1.401893 0
M  V30 26 C -4.290727 -4.678194 -0.602395 0
M  V30 27 C -5.120082 -4.345813 -1.815393 0
M  V30 28 C -3.313903 1.049982 -3.478703 0
M  V30 29 C -2.291268 1.943589 -3.661858 0
M  V30 30 O -2.381394 3.010839 -4.505499 0
M  V30 31 C -3.448436 3.400762 -5.307030 0
M  V30 32 N 2.199639 3.519842 -2.946403 0
M  V30 33 C 3.439546 3.637899 -2.441323 0
M  V30 34 C 3.734997 2.814256 -1.374767 0
M  V30 35 N 5.065638 2.900257 -0.886223 0
M  V30 36 C 6.114080 3.676761 -1.192673 0
M  V30 37 N 7.086205 3.297841 -0.360096 0
M  V30 38 N 6.646319 2.351780 0.398424 0
M  V30 39 C 5.348800 2.047806 0.108840 0
M  V30 40 C 4.579276 1.001370 0.768970 0 CFG=1
M  V30 41 C 4.812913 0.857699 2.218216 0
M  V30 42 C 6.335892 0.795105 2.459857 0
M  V30 43 C 2.187024 -1.684984 1.963460 0
M  V30 44 C 2.213781 -2.400125 3.140861 0
M  V30 45 H 0.461022 -5.013229 5.939730 0
M  V30 46 H 1.495134 -5.289035 4.474495 0
M  V30 47 H 0.449116 -3.838182 4.575634 0
M  V30 48 H 3.198137 -4.137389 5.364184 0
M  V30 49 H 2.270350 -4.050982 6.875865 0
M  V30 50 H 1.824903 0.142729 5.371080 0
M  V30 51 H 1.770945 1.444816 3.307452 0
M  V30 52 H 1.494179 -0.104268 0.056848 0
M  V30 53 H 1.211477 1.365411 0.979619 0
M  V30 54 H -0.154247 3.357093 -3.828671 0
M  V30 55 H -0.194751 0.413837 -1.515131 0
M  V30 56 H -2.053360 -1.072780 -1.283423 0
M  V30 57 H -3.622069 -2.435193 -1.338754 0
M  V30 58 H -6.289287 -1.821905 -0.110962 0
M  V30 59 H -7.470330 -2.804801 -0.982572 0
M  V30 60 H -6.638760 -3.465205 1.415150 0
M  V30 61 H -6.893383 -4.762461 0.213835 0
M  V30 62 H -3.923449 -3.878770 2.367625 0
M  V30 63 H -4.639752 -2.406724 1.585197 0
M  V30 64 H -3.129908 -3.263524 0.915164 0
M  V30 65 H -3.237585 -4.351580 -0.664853 0
M  V30 66 H -4.227434 -5.807832 -0.597108 0
M  V30 67 H -4.489101 -4.545892 -2.709832 0
M  V30 68 H -5.968672 -5.065261 -1.860958 0
M  V30 69 H -4.203023 1.258237 -4.057828 0
M  V30 70 H -4.031755 4.215690 -4.850188 0
M  V30 71 H -3.061326 3.811398 -6.285215 0
M  V30 72 H -4.136396 2.583318 -5.606738 0
M  V30 73 H 4.166726 4.329580 -2.838614 0
M  V30 74 H 6.121059 4.435693 -1.963981 0
M  V30 75 H 4.924473 0.016335 0.301597 0
M  V30 76 H 4.501004 -0.179553 2.500437 0
M  V30 77 H 4.455635 1.647326 2.873393 0
M  V30 78 H 6.738342 1.780905 2.651414 0
M  V30 79 H 6.540401 0.176049 3.366215 0
M  V30 80 H 6.805321 0.352539 1.577736 0
M  V30 81 H 2.284330 -2.161067 1.014717 0
M  V30 82 H 2.335794 -3.470936 3.161145 0
M  V30 END ATOM
M  V30 BEGIN BOND
M  V30 1 1 1 2
M  V30 2 1 2 3
M  V30 3 1 3 4
M  V30 4 2 4 5
M  V30 5 1 5 6
M  V30 6 2 6 7
M  V30 7 1 7 8
M  V30 8 1 8 9
M  V30 9 1 9 10
M  V30 10 2 10 11
M  V30 11 1 11 12
M  V30 12 1 12 13
M  V30 13 1 13 14
M  V30 14 2 14 15
M  V30 15 1 15 16
M  V30 16 2 16 17
M  V30 17 1 17 18
M  V30 18 2 18 19
M  V30 19 1 18 20
M  V30 20 1 20 21
M  V30 21 1 21 22
M  V30 22 1 22 23
M  V30 23 1 23 24
M  V30 24 1 24 25
M  V30 25 1 24 26
M  V30 26 1 26 27
M  V30 27 1 17 28
M  V30 28 2 28 29
M  V30 29 1 29 30
M  V30 30 1 30 31
M  V30 31 2 12 32
M  V30 32 1 32 33
M  V30 33 2 33 34
M  V30 34 1 34 35
M  V30 35 1 35 36
M  V30 36 2 36 37
M  V30 37 1 37 38
M  V30 38 2 38 39
M  V30 39 1 39 40
M  V30 40 1 40 41
M  V30 41 1 41 42
M  V30 42 1 7 43
M  V30 43 2 43 44
M  V30 44 1 44 4
M  V30 45 1 40 9
M  V30 46 1 34 10
M  V30 47 1 39 35
M  V30 48 1 29 14
M  V30 49 1 27 21
M  V30 50 1 1 45
M  V30 51 1 1 46
M  V30 52 1 1 47
M  V30 53 1 2 48
M  V30 54 1 2 49
M  V30 55 1 5 50
M  V30 56 1 6 51
M  V30 57 1 8 52
M  V30 58 1 8 53
M  V30 59 1 13 54
M  V30 60 1 15 55
M  V30 61 1 16 56
M  V30 62 1 20 57
M  V30 63 1 22 58
M  V30 64 1 22 59
M  V30 65 1 23 60
M  V30 66 1 23 61
M  V30 67 1 25 62
M  V30 68 1 25 63
M  V30 69 1 25 64
M  V30 70 1 26 65
M  V30 71 1 26 66
M  V30 72 1 27 67
M  V30 73 1 27 68
M  V30 74 1 28 69
M  V30 75 1 31 70
M  V30 76 1 31 71
M  V30 77 1 31 72
M  V30 78 1 33 73
M  V30 79 1 36 74
M  V30 80 1 40 75 CFG=3
M  V30 81 1 41 76
M  V30 82 1 41 77
M  V30 83 1 42 78
M  V30 84 1 42 79
M  V30 85 1 42 80
M  V30 86 1 43 81
M  V30 87 1 44 82
M  V30 END BOND
M  V30 END CTAB
M  END
>  <Dataset>  (163) 
ChEMBL_Kinases

>  <Ligand_Instance>  (163) 
nan

>  <PDB_ID>  (163) 
nan

>  <Standardized_SMILES>  (163) 
CCOc1ccc(CN2c3nc(Nc4ccc(C(=O)NN5CCN(C)CC5)cc4OC)ncc3-n3cnnc3[C@H]2CC)cc1

>  <Name>  (163) 
nan

>  <Pocket>  (163) 
nan

>  <ATP_Site>  (163) 
nan

>  <Peripheral>  (163) 
nan

>  <Num_H_Atoms_ProtBoundConf>  (163) 
nan

>  <Num_Resolved_Atoms>  (163) 
nan

>  <Num_Not_Resolved_Atoms>  (163) 
nan

$$$$
CHEMBL4797026
     RDKit          3D

  0  0  0  0  0  0  0  0  0  0999 V3000
M  V30 BEGIN CTAB
M  V30 COUNTS 83 86 0 0 0
M  V30 BEGIN ATOM
M  V30 1 C 0.207755 -6.530311 -1.155490 0
M  V30 2 C -1.242868 -6.315678 -0.885172 0
M  V30 3 C -2.151323 -6.635933 -2.054966 0
M  V30 4 C -1.787381 -5.754191 -3.228998 0
M  V30 5 N -1.918981 -4.348282 -2.909667 0
M  V30 6 C -1.577683 -3.528923 -4.007377 0
M  V30 7 O -1.201884 -3.984584 -5.139892 0
M  V30 8 C -1.612893 -2.043815 -3.979722 0 CFG=2
M  V30 9 C -0.269533 -1.549201 -4.420904 0
M  V30 10 C -0.223543 -0.034835 -4.430195 0
M  V30 11 C 1.121381 0.515391 -4.861523 0
M  V30 12 C 1.110826 2.030579 -4.866336 0
M  V30 13 C 1.494754 2.628622 -3.527444 0
M  V30 14 C 2.914052 2.233979 -3.154078 0
M  V30 15 C 3.358952 1.057136 -4.048189 0
M  V30 16 C 2.234565 0.049874 -3.965196 0
M  V30 17 N -2.002821 -1.658052 -2.662885 0
M  V30 18 C -2.991780 -0.871575 -2.055148 0
M  V30 19 O -3.804951 -0.304879 -2.826761 0
M  V30 20 C -3.080425 -0.712762 -0.612527 0
M  V30 21 C -2.346046 -1.418385 0.314399 0
M  V30 22 C -2.427294 -1.254264 1.679222 0
M  V30 23 C -3.301032 -0.320632 2.187566 0
M  V30 24 C -3.489902 -0.050430 3.632377 0
M  V30 25 N -2.603273 0.931209 4.181842 0
M  V30 26 C -1.256161 0.633616 4.501904 0
M  V30 27 O -0.661205 -0.444119 4.373180 0
M  V30 28 C -0.385067 1.666615 5.060029 0
M  V30 29 C -0.656049 2.990307 5.339464 0
M  V30 30 N 0.436269 3.578143 5.843749 0
M  V30 31 N 1.445917 2.723655 5.924999 0
M  V30 32 C 2.773767 2.926547 6.400701 0
M  V30 33 C 3.081200 3.325143 7.697966 0
M  V30 34 C 4.410220 3.486422 8.036287 0
M  V30 35 C 5.466023 3.286711 7.200696 0
M  V30 36 C 5.175814 2.889324 5.906770 0
M  V30 37 C 3.857630 2.721874 5.544952 0
M  V30 38 C 0.939197 1.553493 5.443816 0
M  V30 39 N 1.743081 0.366795 5.370574 0
M  V30 40 C -4.063011 0.415252 1.269293 0
M  V30 41 C -3.955161 0.222636 -0.107121 0
M  V30 42 H 0.636634 -7.394223 -0.571350 0
M  V30 43 H 0.776271 -5.628152 -0.812970 0
M  V30 44 H 0.479400 -6.741455 -2.199438 0
M  V30 45 H -1.434593 -5.223347 -0.669263 0
M  V30 46 H -1.539851 -6.902351 0.009684 0
M  V30 47 H -1.987487 -7.711262 -2.281972 0
M  V30 48 H -3.193817 -6.490376 -1.730857 0
M  V30 49 H -2.471838 -6.046845 -4.071579 0
M  V30 50 H -0.771130 -5.981817 -3.605340 0
M  V30 51 H -2.218180 -3.926723 -2.025374 0
M  V30 52 H -2.352128 -1.684348 -4.697299 0
M  V30 53 H 0.596505 -2.037183 -3.974994 0
M  V30 54 H -0.215302 -1.836995 -5.515288 0
M  V30 55 H -0.569693 0.436105 -3.498110 0
M  V30 56 H -0.963525 0.302230 -5.215348 0
M  V30 57 H 1.367674 0.195422 -5.894304 0
M  V30 58 H 1.789849 2.472976 -5.622639 0
M  V30 59 H 0.096311 2.423370 -5.105643 0
M  V30 60 H 1.491223 3.730044 -3.651526 0
M  V30 61 H 0.761393 2.395904 -2.727765 0
M  V30 62 H 2.870943 1.822969 -2.128584 0
M  V30 63 H 3.626688 3.059978 -3.162833 0
M  V30 64 H 3.497323 1.472189 -5.069970 0
M  V30 65 H 4.294926 0.613142 -3.640160 0
M  V30 66 H 2.567528 -0.984420 -4.195484 0
M  V30 67 H 1.922883 0.048942 -2.877128 0
M  V30 68 H -1.315945 -2.114266 -1.994779 0
M  V30 69 H -1.646237 -2.164353 -0.024438 0
M  V30 70 H -1.823181 -1.844953 2.351241 0
M  V30 71 H -4.526700 0.312715 3.843852 0
M  V30 72 H -3.314065 -0.996305 4.191468 0
M  V30 73 H -2.914479 1.919883 4.372301 0
M  V30 74 H -1.630676 3.447446 5.157706 0
M  V30 75 H 2.269780 3.491022 8.384921 0
M  V30 76 H 4.643088 3.797176 9.052000 0
M  V30 77 H 6.505461 3.414165 7.464851 0
M  V30 78 H 5.957395 2.704393 5.161086 0
M  V30 79 H 3.611100 2.411100 4.524925 0
M  V30 80 H 2.099084 0.115170 4.422384 0
M  V30 81 H 2.063607 -0.332815 6.094093 0
M  V30 82 H -4.768832 1.165467 1.618102 0
M  V30 83 H -4.552093 0.799242 -0.784970 0
M  V30 END ATOM
M  V30 BEGIN BOND
M  V30 1 1 1 2
M  V30 2 1 2 3
M  V30 3 1 3 4
M  V30 4 1 4 5
M  V30 5 1 5 6
M  V30 6 2 6 7
M  V30 7 1 6 8
M  V30 8 1 8 9
M  V30 9 1 9 10
M  V30 10 1 10 11
M  V30 11 1 11 12
M  V30 12 1 12 13
M  V30 13 1 13 14
M  V30 14 1 14 15
M  V30 15 1 15 16
M  V30 16 1 8 17
M  V30 17 1 17 18
M  V30 18 2 18 19
M  V30 19 1 18 20
M  V30 20 2 20 21
M  V30 21 1 21 22
M  V30 22 2 22 23
M  V30 23 1 23 24
M  V30 24 1 24 25
M  V30 25 1 25 26
M  V30 26 2 26 27
M  V30 27 1 26 28
M  V30 28 1 28 29
M  V30 29 2 29 30
M  V30 30 1 30 31
M  V30 31 1 31 32
M  V30 32 2 32 33
M  V30 33 1 33 34
M  V30 34 2 34 35
M  V30 35 1 35 36
M  V30 36 2 36 37
M  V30 37 1 31 38
M  V30 38 1 38 39
M  V30 39 1 23 40
M  V30 40 2 40 41
M  V30 41 1 16 11
M  V30 42 1 41 20
M  V30 43 2 38 28
M  V30 44 1 37 32
M  V30 45 1 1 42
M  V30 46 1 1 43
M  V30 47 1 1 44
M  V30 48 1 2 45
M  V30 49 1 2 46
M  V30 50 1 3 47
M  V30 51 1 3 48
M  V30 52 1 4 49
M  V30 53 1 4 50
M  V30 54 1 5 51
M  V30 55 1 8 52 CFG=3
M  V30 56 1 9 53
M  V30 57 1 9 54
M  V30 58 1 10 55
M  V30 59 1 10 56
M  V30 60 1 11 57
M  V30 61 1 12 58
M  V30 62 1 12 59
M  V30 63 1 13 60
M  V30 64 1 13 61
M  V30 65 1 14 62
M  V30 66 1 14 63
M  V30 67 1 15 64
M  V30 68 1 15 65
M  V30 69 1 16 66
M  V30 70 1 16 67
M  V30 71 1 17 68
M  V30 72 1 21 69
M  V30 73 1 22 70
M  V30 74 1 24 71
M  V30 75 1 24 72
M  V30 76 1 25 73
M  V30 77 1 29 74
M  V30 78 1 33 75
M  V30 79 1 34 76
M  V30 80 1 35 77
M  V30 81 1 36 78
M  V30 82 1 37 79
M  V30 83 1 39 80
M  V30 84 1 39 81
M  V30 85 1 40 82
M  V30 86 1 41 83
M  V30 END BOND
M  V30 END CTAB
M  END
>  <Dataset>  (164) 
ChEMBL_Kinases

>  <Ligand_Instance>  (164) 
nan

>  <PDB_ID>  (164) 
nan

>  <Standardized_SMILES>  (164) 
CCCCNC(=O)[C@H](CCC1CCCCC1)NC(=O)c1ccc(CNC(=O)c2cnn(-c3ccccc3)c2N)cc1

>  <Name>  (164) 
nan

>  <Pocket>  (164) 
nan

>  <ATP_Site>  (164) 
nan

>  <Peripheral>  (164) 
nan

>  <Num_H_Atoms_ProtBoundConf>  (164) 
nan

>  <Num_Resolved_Atoms>  (164) 
nan

>  <Num_Not_Resolved_Atoms>  (164) 
nan

$$$$
CHEMBL4797075
     RDKit          3D

  0  0  0  0  0  0  0  0  0  0999 V3000
M  V30 BEGIN CTAB
M  V30 COUNTS 58 63 0 0 0
M  V30 BEGIN ATOM
M  V30 1 C 3.590005 -2.088163 1.997684 0
M  V30 2 O 3.026943 -0.792150 2.082275 0
M  V30 3 C 2.540739 -0.248106 3.245828 0
M  V30 4 C 2.575140 -0.953073 4.427319 0
M  V30 5 C 2.090587 -0.416460 5.597493 0
M  V30 6 C 1.574622 0.857927 5.510471 0
M  V30 7 C 1.519255 1.603303 4.347015 0
M  V30 8 F 0.988708 2.864215 4.351337 0
M  V30 9 C 2.020533 1.027778 3.175117 0
M  V30 10 C 1.966548 1.808168 1.939117 0
M  V30 11 C 0.874915 1.763894 1.065780 0
M  V30 12 C 0.934939 2.543697 -0.071076 0
M  V30 13 C 2.002693 3.361353 -0.397113 0
M  V30 14 C 3.049293 3.362565 0.503050 0
M  V30 15 N 2.990354 2.600222 1.614227 0
M  V30 16 C 1.729198 4.000931 -1.607667 0
M  V30 17 N 0.497330 3.555219 -1.989991 0
M  V30 18 N 0.041325 2.704045 -1.085633 0
M  V30 19 C -1.240417 2.047715 -1.189919 0
M  V30 20 C -2.489237 2.608202 -1.403180 0
M  V30 21 C -3.549117 1.745534 -1.459658 0
M  V30 22 C -3.384783 0.393916 -1.312704 0
M  V30 23 C -2.138466 -0.158709 -1.100496 0
M  V30 24 N -1.944418 -1.567937 -0.944344 0
M  V30 25 C -3.067396 -2.450872 -1.007067 0
M  V30 26 C -2.662261 -3.879030 -1.317345 0
M  V30 27 C -2.399532 -4.643527 -0.018434 0
M  V30 28 C -0.979132 -4.195105 0.303315 0
M  V30 29 C -0.479388 -3.532753 -0.951075 0
M  V30 30 C -0.593339 -2.037763 -0.726330 0
M  V30 31 N -1.417964 -3.831086 -2.013894 0
M  V30 32 C -1.070095 -4.987072 -2.772393 0
M  V30 33 N -1.122638 0.714310 -1.050665 0
M  V30 34 H 4.020077 -2.216295 0.978580 0
M  V30 35 H 4.388436 -2.272645 2.729950 0
M  V30 36 H 2.785490 -2.855855 2.087553 0
M  V30 37 H 2.994670 -1.954427 4.431983 0
M  V30 38 H 2.112390 -0.963043 6.535500 0
M  V30 39 H 1.173286 1.344877 6.399102 0
M  V30 40 H 0.033794 1.130005 1.307039 0
M  V30 41 H 3.906928 3.991642 0.283361 0
M  V30 42 H 2.402565 4.697691 -2.089332 0
M  V30 43 H -2.451777 3.676349 -1.497720 0
M  V30 44 H -4.514885 2.234114 -1.629714 0
M  V30 45 H -4.257578 -0.241929 -1.366145 0
M  V30 46 H -3.712555 -2.387659 -0.109190 0
M  V30 47 H -3.716941 -2.144631 -1.865790 0
M  V30 48 H -3.451520 -4.408814 -1.894660 0
M  V30 49 H -3.127848 -4.357521 0.757862 0
M  V30 50 H -2.477544 -5.717355 -0.207767 0
M  V30 51 H -1.082163 -3.475152 1.158245 0
M  V30 52 H -0.339849 -5.011469 0.650319 0
M  V30 53 H 0.552403 -3.829422 -1.216107 0
M  V30 54 H 0.058712 -1.560523 -1.499852 0
M  V30 55 H -0.201886 -1.730515 0.244608 0
M  V30 56 H -0.175530 -4.692906 -3.389372 0
M  V30 57 H -0.766454 -5.872251 -2.173870 0
M  V30 58 H -1.882559 -5.201307 -3.478364 0
M  V30 END ATOM
M  V30 BEGIN BOND
M  V30 1 1 1 2
M  V30 2 1 2 3
M  V30 3 2 3 4
M  V30 4 1 4 5
M  V30 5 2 5 6
M  V30 6 1 6 7
M  V30 7 1 7 8
M  V30 8 2 7 9
M  V30 9 1 9 10
M  V30 10 2 10 11
M  V30 11 1 11 12
M  V30 12 2 12 13
M  V30 13 1 13 14
M  V30 14 2 14 15
M  V30 15 1 13 16
M  V30 16 2 16 17
M  V30 17 1 17 18
M  V30 18 1 18 19
M  V30 19 2 19 20
M  V30 20 1 20 21
M  V30 21 2 21 22
M  V30 22 1 22 23
M  V30 23 1 23 24
M  V30 24 1 24 25
M  V30 25 1 25 26
M  V30 26 1 26 27
M  V30 27 1 27 28
M  V30 28 1 28 29
M  V30 29 1 29 30
M  V30 30 1 29 31
M  V30 31 1 31 32
M  V30 32 2 23 33
M  V30 33 1 9 3
M  V30 34 1 15 10
M  V30 35 1 33 19
M  V30 36 1 18 12
M  V30 37 1 30 24
M  V30 38 1 31 26
M  V30 39 1 1 34
M  V30 40 1 1 35
M  V30 41 1 1 36
M  V30 42 1 4 37
M  V30 43 1 5 38
M  V30 44 1 6 39
M  V30 45 1 11 40
M  V30 46 1 14 41
M  V30 47 1 16 42
M  V30 48 1 20 43
M  V30 49 1 21 44
M  V30 50 1 22 45
M  V30 51 1 25 46
M  V30 52 1 25 47
M  V30 53 1 26 48
M  V30 54 1 27 49
M  V30 55 1 27 50
M  V30 56 1 28 51
M  V30 57 1 28 52
M  V30 58 1 29 53
M  V30 59 1 30 54
M  V30 60 1 30 55
M  V30 61 1 32 56
M  V30 62 1 32 57
M  V30 63 1 32 58
M  V30 END BOND
M  V30 END CTAB
M  END
>  <Dataset>  (165) 
ChEMBL_Kinases

>  <Ligand_Instance>  (165) 
nan

>  <PDB_ID>  (165) 
nan

>  <Standardized_SMILES>  (165) 
COc1cccc(F)c1-c1cc2c(cn1)cnn2-c1cccc(N2CC3CCC(C2)N3C)n1

>  <Name>  (165) 
nan

>  <Pocket>  (165) 
nan

>  <ATP_Site>  (165) 
nan

>  <Peripheral>  (165) 
nan

>  <Num_H_Atoms_ProtBoundConf>  (165) 
nan

>  <Num_Resolved_Atoms>  (165) 
nan

>  <Num_Not_Resolved_Atoms>  (165) 
nan

$$$$
CHEMBL4797086
     RDKit          3D

  0  0  0  0  0  0  0  0  0  0999 V3000
M  V30 BEGIN CTAB
M  V30 COUNTS 46 49 0 0 0
M  V30 BEGIN ATOM
M  V30 1 O -2.831130 -0.901961 1.696595 0
M  V30 2 C -2.576186 -1.389561 2.825992 0
M  V30 3 N -1.261046 -1.265979 3.274864 0
M  V30 4 C -0.343637 -0.571926 2.353297 0
M  V30 5 N -0.430368 -0.043440 1.269810 0
M  V30 6 C 0.590436 0.520781 0.642473 0
M  V30 7 C 0.280722 1.108469 -0.657719 0
M  V30 8 C -0.434862 0.447210 -1.660895 0
M  V30 9 C -0.744372 1.001166 -2.868877 0
M  V30 10 N -0.360230 2.247101 -3.151671 0
M  V30 11 C 0.340198 2.970670 -2.239942 0
M  V30 12 C 0.631260 2.372982 -1.032931 0
M  V30 13 C 1.807994 0.519909 1.220602 0
M  V30 14 C 3.139606 0.981518 0.887192 0
M  V30 15 N 3.896980 0.192290 -0.020950 0
M  V30 16 C 4.133310 -1.152656 0.405855 0
M  V30 17 C 3.245135 -2.080982 -0.388120 0
M  V30 18 O 3.685420 -1.981669 -1.714707 0
M  V30 19 C 3.225711 -0.756531 -2.188066 0
M  V30 20 C 3.767083 0.404333 -1.396609 0
M  V30 21 S 1.391940 -0.357038 2.754575 0
M  V30 22 C -3.623873 -2.045348 3.602813 0
M  V30 23 C -4.867051 -2.105514 2.974011 0
M  V30 24 C -5.836687 -2.740288 3.758599 0
M  V30 25 N -5.599304 -3.233019 4.972053 0
M  V30 26 C -4.393878 -3.163702 5.557796 0
M  V30 27 C -3.354420 -2.547565 4.856493 0
M  V30 28 H -0.942232 -1.625152 4.174319 0
M  V30 29 H -0.765924 -0.584398 -1.456429 0
M  V30 30 H -1.302441 0.423294 -3.593774 0
M  V30 31 H 0.624159 3.964282 -2.515374 0
M  V30 32 H 1.177489 3.014294 -0.374487 0
M  V30 33 H 3.734281 0.999013 1.853829 0
M  V30 34 H 3.103152 2.008729 0.541568 0
M  V30 35 H 4.008742 -1.254673 1.486924 0
M  V30 36 H 5.200572 -1.425889 0.173439 0
M  V30 37 H 3.274674 -3.119999 -0.000487 0
M  V30 38 H 2.218107 -1.658323 -0.360416 0
M  V30 39 H 3.514319 -0.683513 -3.254817 0
M  V30 40 H 2.117165 -0.822826 -2.160054 0
M  V30 41 H 4.802433 0.582200 -1.817963 0
M  V30 42 H 3.206737 1.303526 -1.705498 0
M  V30 43 H -5.055936 -1.709417 1.998681 0
M  V30 44 H -6.834142 -2.808618 3.297776 0
M  V30 45 H -4.288144 -3.590792 6.548321 0
M  V30 46 H -2.383467 -2.487456 5.319807 0
M  V30 END ATOM
M  V30 BEGIN BOND
M  V30 1 2 1 2
M  V30 2 1 2 3
M  V30 3 1 3 4
M  V30 4 2 4 5
M  V30 5 1 5 6
M  V30 6 1 6 7
M  V30 7 2 7 8
M  V30 8 1 8 9
M  V30 9 2 9 10
M  V30 10 1 10 11
M  V30 11 2 11 12
M  V30 12 2 6 13
M  V30 13 1 13 14
M  V30 14 1 14 15
M  V30 15 1 15 16
M  V30 16 1 16 17
M  V30 17 1 17 18
M  V30 18 1 18 19
M  V30 19 1 19 20
M  V30 20 1 13 21
M  V30 21 1 2 22
M  V30 22 2 22 23
M  V30 23 1 23 24
M  V30 24 2 24 25
M  V30 25 1 25 26
M  V30 26 2 26 27
M  V30 27 1 21 4
M  V30 28 1 27 22
M  V30 29 1 12 7
M  V30 30 1 20 15
M  V30 31 1 3 28
M  V30 32 1 8 29
M  V30 33 1 9 30
M  V30 34 1 11 31
M  V30 35 1 12 32
M  V30 36 1 14 33
M  V30 37 1 14 34
M  V30 38 1 16 35
M  V30 39 1 16 36
M  V30 40 1 17 37
M  V30 41 1 17 38
M  V30 42 1 19 39
M  V30 43 1 19 40
M  V30 44 1 20 41
M  V30 45 1 20 42
M  V30 46 1 23 43
M  V30 47 1 24 44
M  V30 48 1 26 45
M  V30 49 1 27 46
M  V30 END BOND
M  V30 END CTAB
M  END
>  <Dataset>  (166) 
ChEMBL_Kinases

>  <Ligand_Instance>  (166) 
nan

>  <PDB_ID>  (166) 
nan

>  <Standardized_SMILES>  (166) 
O=C(Nc1nc(-c2ccncc2)c(CN2CCOCC2)s1)c1ccncc1

>  <Name>  (166) 
nan

>  <Pocket>  (166) 
nan

>  <ATP_Site>  (166) 
nan

>  <Peripheral>  (166) 
nan

>  <Num_H_Atoms_ProtBoundConf>  (166) 
nan

>  <Num_Resolved_Atoms>  (166) 
nan

>  <Num_Not_Resolved_Atoms>  (166) 
nan

$$$$
CHEMBL4797117
     RDKit          3D

  0  0  0  0  0  0  0  0  0  0999 V3000
M  V30 BEGIN CTAB
M  V30 COUNTS 37 41 0 0 0
M  V30 BEGIN ATOM
M  V30 1 N 3.384550 -3.340329 4.277292 0
M  V30 2 C 2.948018 -2.407647 3.746605 0
M  V30 3 C 2.411651 -1.269786 3.072859 0
M  V30 4 C 2.735348 0.034384 3.378032 0
M  V30 5 O 3.658300 0.169589 4.430748 0
M  V30 6 N 2.236289 1.114822 2.750032 0
M  V30 7 C 1.344841 0.990121 1.732951 0
M  V30 8 N 0.673381 1.819767 0.919809 0
M  V30 9 N -0.089500 1.120373 0.079611 0
M  V30 10 C -0.901506 1.606473 -0.877404 0
M  V30 11 C -1.024917 2.973226 -1.088712 0
M  V30 12 C -1.898048 3.355893 -2.110621 0
M  V30 13 O -1.971930 4.748018 -2.266356 0
M  V30 14 C -2.605328 2.452251 -2.876597 0
M  V30 15 C -2.427660 1.111054 -2.604300 0
M  V30 16 C -1.580155 0.646846 -1.607656 0
M  V30 17 N -1.424409 -0.669396 -1.361789 0
M  V30 18 N -0.601711 -1.062124 -0.397257 0
M  V30 19 C 0.101957 -0.180282 0.365683 0
M  V30 20 C 1.002215 -0.308545 1.405765 0
M  V30 21 C 1.502588 -1.435160 2.037624 0
M  V30 22 C 1.103581 -2.776561 1.647885 0
M  V30 23 C 1.860725 -3.407545 0.664279 0
M  V30 24 C 1.411039 -4.688799 0.350085 0
M  V30 25 C 0.330906 -5.332279 0.915867 0
M  V30 26 C -0.358590 -4.634467 1.878431 0
M  V30 27 C 0.028330 -3.351058 2.246956 0
M  V30 28 Cl -0.894622 -2.524481 3.477115 0
M  V30 29 H 3.465074 0.912761 5.104407 0
M  V30 30 H -0.469606 3.665663 -0.486454 0
M  V30 31 H -1.676964 5.112162 -3.182357 0
M  V30 32 H -3.247774 2.849139 -3.634365 0
M  V30 33 H -2.995252 0.399320 -3.219685 0
M  V30 34 H 2.722288 -2.993986 0.158876 0
M  V30 35 H 1.970364 -5.219006 -0.411302 0
M  V30 36 H 0.086075 -6.336395 0.578513 0
M  V30 37 H -1.211901 -5.100438 2.348399 0
M  V30 END ATOM
M  V30 BEGIN BOND
M  V30 1 3 1 2
M  V30 2 1 2 3
M  V30 3 1 3 4
M  V30 4 1 4 5
M  V30 5 2 4 6
M  V30 6 1 6 7
M  V30 7 2 7 8
M  V30 8 1 8 9
M  V30 9 1 9 10
M  V30 10 2 10 11
M  V30 11 1 11 12
M  V30 12 1 12 13
M  V30 13 2 12 14
M  V30 14 1 14 15
M  V30 15 2 15 16
M  V30 16 1 16 17
M  V30 17 2 17 18
M  V30 18 1 18 19
M  V30 19 2 19 20
M  V30 20 1 20 21
M  V30 21 1 21 22
M  V30 22 2 22 23
M  V30 23 1 23 24
M  V30 24 2 24 25
M  V30 25 1 25 26
M  V30 26 2 26 27
M  V30 27 1 27 28
M  V30 28 2 21 3
M  V30 29 1 27 22
M  V30 30 1 20 7
M  V30 31 1 19 9
M  V30 32 1 16 10
M  V30 33 1 5 29
M  V30 34 1 11 30
M  V30 35 1 13 31
M  V30 36 1 14 32
M  V30 37 1 15 33
M  V30 38 1 23 34
M  V30 39 1 24 35
M  V30 40 1 25 36
M  V30 41 1 26 37
M  V30 END BOND
M  V30 END CTAB
M  END
>  <Dataset>  (167) 
ChEMBL_Kinases

>  <Ligand_Instance>  (167) 
nan

>  <PDB_ID>  (167) 
nan

>  <Standardized_SMILES>  (167) 
N#Cc1c(O)nc2nn3c4cc(O)ccc4nnc3c2c1-c1ccccc1Cl

>  <Name>  (167) 
nan

>  <Pocket>  (167) 
nan

>  <ATP_Site>  (167) 
nan

>  <Peripheral>  (167) 
nan

>  <Num_H_Atoms_ProtBoundConf>  (167) 
nan

>  <Num_Resolved_Atoms>  (167) 
nan

>  <Num_Not_Resolved_Atoms>  (167) 
nan

$$$$
CHEMBL4796768
     RDKit          3D

  0  0  0  0  0  0  0  0  0  0999 V3000
M  V30 BEGIN CTAB
M  V30 COUNTS 52 56 0 0 0
M  V30 BEGIN ATOM
M  V30 1 C 0.421225 -1.776918 5.580133 0
M  V30 2 C 0.777267 -0.568596 4.775024 0
M  V30 3 N 1.251252 0.590222 5.319721 0
M  V30 4 C 1.475012 1.482481 4.336294 0
M  V30 5 C 1.927945 2.777598 4.181962 0
M  V30 6 C 2.014268 3.363062 2.935489 0
M  V30 7 C 1.655469 2.690481 1.787752 0
M  V30 8 C 1.720270 3.244742 0.439565 0
M  V30 9 C 1.320028 2.425904 -0.594371 0
M  V30 10 C 1.347040 2.869347 -1.920303 0
M  V30 11 N 1.772823 4.122333 -2.193462 0
M  V30 12 C 2.157034 4.895919 -1.156137 0
M  V30 13 C 2.156676 4.525360 0.172648 0
M  V30 14 N 1.214563 1.430021 1.937076 0
M  V30 15 C 1.122620 0.835627 3.159776 0
M  V30 16 N 0.695976 -0.421208 3.437665 0
M  V30 17 C 0.249833 -1.392825 2.496708 0
M  V30 18 C 0.934203 -1.388203 1.272911 0
M  V30 19 C 0.533445 -2.314429 0.331734 0
M  V30 20 C -0.483043 -3.234871 0.509464 0
M  V30 21 C -0.910171 -4.218488 -0.487227 0
M  V30 22 N -1.950825 -3.672929 -1.330422 0
M  V30 23 C -1.530454 -2.497296 -2.049696 0
M  V30 24 C -2.775635 -1.897141 -2.684085 0
M  V30 25 O -3.433487 -2.800377 -3.478865 0
M  V30 26 C -2.799785 -4.011018 -3.612831 0
M  V30 27 C -2.412902 -4.633452 -2.296445 0
M  V30 28 C -1.138607 -3.203915 1.745271 0
M  V30 29 C -0.760063 -2.294306 2.696607 0
M  V30 30 H 1.009168 -1.771278 6.533530 0
M  V30 31 H -0.630694 -1.767843 5.917943 0
M  V30 32 H 0.726547 -2.727489 5.082422 0
M  V30 33 H 2.207122 3.297834 5.086093 0
M  V30 34 H 2.371750 4.378243 2.838772 0
M  V30 35 H 0.964953 1.409010 -0.467263 0
M  V30 36 H 1.046757 2.274687 -2.766805 0
M  V30 37 H 2.509653 5.921490 -1.338915 0
M  V30 38 H 2.467783 5.165531 0.963036 0
M  V30 39 H 1.743856 -0.709896 1.032881 0
M  V30 40 H 1.055487 -2.318560 -0.615541 0
M  V30 41 H -0.053654 -4.433381 -1.185686 0
M  V30 42 H -1.293976 -5.136793 -0.024255 0
M  V30 43 H -0.761626 -2.747895 -2.804066 0
M  V30 44 H -1.154058 -1.688559 -1.361976 0
M  V30 45 H -2.525715 -0.947375 -3.190441 0
M  V30 46 H -3.451989 -1.645203 -1.831616 0
M  V30 47 H -3.520811 -4.713868 -4.103841 0
M  V30 48 H -1.924516 -3.952489 -4.318014 0
M  V30 49 H -1.538554 -5.306557 -2.525257 0
M  V30 50 H -3.225272 -5.264742 -1.902264 0
M  V30 51 H -1.944504 -3.871244 1.998239 0
M  V30 52 H -1.265342 -2.267290 3.654759 0
M  V30 END ATOM
M  V30 BEGIN BOND
M  V30 1 1 1 2
M  V30 2 2 2 3
M  V30 3 1 3 4
M  V30 4 2 4 5
M  V30 5 1 5 6
M  V30 6 2 6 7
M  V30 7 1 7 8
M  V30 8 2 8 9
M  V30 9 1 9 10
M  V30 10 2 10 11
M  V30 11 1 11 12
M  V30 12 2 12 13
M  V30 13 1 7 14
M  V30 14 2 14 15
M  V30 15 1 15 16
M  V30 16 1 16 17
M  V30 17 2 17 18
M  V30 18 1 18 19
M  V30 19 2 19 20
M  V30 20 1 20 21
M  V30 21 1 21 22
M  V30 22 1 22 23
M  V30 23 1 23 24
M  V30 24 1 24 25
M  V30 25 1 25 26
M  V30 26 1 26 27
M  V30 27 1 20 28
M  V30 28 2 28 29
M  V30 29 1 16 2
M  V30 30 1 29 17
M  V30 31 1 15 4
M  V30 32 1 27 22
M  V30 33 1 13 8
M  V30 34 1 1 30
M  V30 35 1 1 31
M  V30 36 1 1 32
M  V30 37 1 5 33
M  V30 38 1 6 34
M  V30 39 1 9 35
M  V30 40 1 10 36
M  V30 41 1 12 37
M  V30 42 1 13 38
M  V30 43 1 18 39
M  V30 44 1 19 40
M  V30 45 1 21 41
M  V30 46 1 21 42
M  V30 47 1 23 43
M  V30 48 1 23 44
M  V30 49 1 24 45
M  V30 50 1 24 46
M  V30 51 1 26 47
M  V30 52 1 26 48
M  V30 53 1 27 49
M  V30 54 1 27 50
M  V30 55 1 28 51
M  V30 56 1 29 52
M  V30 END BOND
M  V30 END CTAB
M  END
>  <Dataset>  (168) 
ChEMBL_Kinases

>  <Ligand_Instance>  (168) 
nan

>  <PDB_ID>  (168) 
nan

>  <Standardized_SMILES>  (168) 
Cc1nc2ccc(-c3ccncc3)nc2n1-c1ccc(CN2CCOCC2)cc1

>  <Name>  (168) 
nan

>  <Pocket>  (168) 
nan

>  <ATP_Site>  (168) 
nan

>  <Peripheral>  (168) 
nan

>  <Num_H_Atoms_ProtBoundConf>  (168) 
nan

>  <Num_Resolved_Atoms>  (168) 
nan

>  <Num_Not_Resolved_Atoms>  (168) 
nan

$$$$
CHEMBL4795514
     RDKit          3D

  0  0  0  0  0  0  0  0  0  0999 V3000
M  V30 BEGIN CTAB
M  V30 COUNTS 58 61 0 0 0
M  V30 BEGIN ATOM
M  V30 1 C 6.047090 0.203267 4.372924 0
M  V30 2 C 5.278288 -0.107676 3.097661 0
M  V30 3 C 4.906027 -1.559111 3.070397 0
M  V30 4 S 4.025111 -2.017630 1.607353 0
M  V30 5 O 4.905246 -1.931568 0.387855 0
M  V30 6 O 3.681574 -3.492694 1.782179 0
M  V30 7 N 2.567945 -1.169422 1.397772 0
M  V30 8 C 2.237558 0.192689 1.218579 0
M  V30 9 C 3.238647 0.922359 0.610860 0
M  V30 10 C 3.128262 2.276539 0.310262 0
M  V30 11 C 1.915634 2.875626 0.664860 0
M  V30 12 F 1.820737 4.204427 0.365338 0
M  V30 13 C 0.897600 2.183154 1.269463 0
M  V30 14 C -0.301246 2.878265 1.628734 0
M  V30 15 O -0.026119 4.120032 1.828078 0
M  V30 16 C -1.703472 2.620566 1.833437 0
M  V30 17 N -2.449447 3.429267 2.602784 0
M  V30 18 N -3.713338 2.987238 2.605838 0
M  V30 19 C -3.865383 1.885726 1.852185 0
M  V30 20 N -4.880449 1.079698 1.518461 0
M  V30 21 C -4.694349 0.012046 0.689451 0
M  V30 22 C -3.427386 -0.246722 0.178940 0
M  V30 23 C -3.238781 -1.398055 -0.697867 0
M  V30 24 C -4.070669 -2.457038 -0.404418 0
M  V30 25 C -4.039669 -3.641795 -1.119263 0
M  V30 26 C -3.149421 -3.782832 -2.166157 0
M  V30 27 S -3.085420 -5.270561 -3.086879 0
M  V30 28 N -3.435147 -5.001691 -4.764162 0
M  V30 29 O -4.163432 -6.198166 -2.573394 0
M  V30 30 O -1.720078 -5.904444 -2.932197 0
M  V30 31 C -2.304057 -2.722580 -2.474405 0
M  V30 32 C -1.328841 -2.805435 -3.587295 0
M  V30 33 C -2.348933 -1.531622 -1.740534 0
M  V30 34 C -2.402722 0.596488 0.537630 0
M  V30 35 C -2.588141 1.672205 1.374710 0
M  V30 36 C 1.050491 0.847232 1.549839 0
M  V30 37 F 0.181734 0.037094 2.171927 0
M  V30 38 H 5.665412 -0.473897 5.167237 0
M  V30 39 H 7.145031 0.110488 4.235403 0
M  V30 40 H 5.806420 1.233379 4.687517 0
M  V30 41 H 5.855955 0.131367 2.202932 0
M  V30 42 H 4.323317 0.465138 3.205455 0
M  V30 43 H 4.310393 -1.841515 3.981315 0
M  V30 44 H 5.874964 -2.127096 3.126846 0
M  V30 45 H 1.635066 -1.688319 1.381764 0
M  V30 46 H 4.209706 0.503790 0.308109 0
M  V30 47 H 3.905964 2.844953 -0.162342 0
M  V30 48 H -4.453461 3.480912 3.148054 0
M  V30 49 H -5.567639 -0.599262 0.462969 0
M  V30 50 H -4.813079 -2.489471 0.379995 0
M  V30 51 H -4.679119 -4.503396 -0.918132 0
M  V30 52 H -3.806196 -5.901107 -5.178889 0
M  V30 53 H -4.257989 -4.347700 -4.828722 0
M  V30 54 H -0.403773 -2.266146 -3.233087 0
M  V30 55 H -1.703015 -2.243777 -4.456782 0
M  V30 56 H -1.079680 -3.850731 -3.833050 0
M  V30 57 H -1.734806 -0.674723 -1.910611 0
M  V30 58 H -1.434311 0.414386 0.140341 0
M  V30 END ATOM
M  V30 BEGIN BOND
M  V30 1 1 1 2
M  V30 2 1 2 3
M  V30 3 1 3 4
M  V30 4 2 4 5
M  V30 5 2 4 6
M  V30 6 1 4 7
M  V30 7 1 7 8
M  V30 8 2 8 9
M  V30 9 1 9 10
M  V30 10 2 10 11
M  V30 11 1 11 12
M  V30 12 1 11 13
M  V30 13 1 13 14
M  V30 14 2 14 15
M  V30 15 1 14 16
M  V30 16 2 16 17
M  V30 17 1 17 18
M  V30 18 1 18 19
M  V30 19 2 19 20
M  V30 20 1 20 21
M  V30 21 2 21 22
M  V30 22 1 22 23
M  V30 23 2 23 24
M  V30 24 1 24 25
M  V30 25 2 25 26
M  V30 26 1 26 27
M  V30 27 1 27 28
M  V30 28 2 27 29
M  V30 29 2 27 30
M  V30 30 1 26 31
M  V30 31 1 31 32
M  V30 32 2 31 33
M  V30 33 1 22 34
M  V30 34 2 34 35
M  V30 35 2 13 36
M  V30 36 1 36 37
M  V30 37 1 36 8
M  V30 38 1 35 16
M  V30 39 1 35 19
M  V30 40 1 33 23
M  V30 41 1 1 38
M  V30 42 1 1 39
M  V30 43 1 1 40
M  V30 44 1 2 41
M  V30 45 1 2 42
M  V30 46 1 3 43
M  V30 47 1 3 44
M  V30 48 1 7 45
M  V30 49 1 9 46
M  V30 50 1 10 47
M  V30 51 1 18 48
M  V30 52 1 21 49
M  V30 53 1 24 50
M  V30 54 1 25 51
M  V30 55 1 28 52
M  V30 56 1 28 53
M  V30 57 1 32 54
M  V30 58 1 32 55
M  V30 59 1 32 56
M  V30 60 1 33 57
M  V30 61 1 34 58
M  V30 END BOND
M  V30 END CTAB
M  END
>  <Dataset>  (169) 
ChEMBL_Kinases

>  <Ligand_Instance>  (169) 
nan

>  <PDB_ID>  (169) 
nan

>  <Standardized_SMILES>  (169) 
CCCS(=O)(=O)Nc1ccc(F)c(C(=O)c2n[nH]c3ncc(-c4ccc(S(N)(=O)=O)c(C)c4)cc23)c1F

>  <Name>  (169) 
nan

>  <Pocket>  (169) 
nan

>  <ATP_Site>  (169) 
nan

>  <Peripheral>  (169) 
nan

>  <Num_H_Atoms_ProtBoundConf>  (169) 
nan

>  <Num_Resolved_Atoms>  (169) 
nan

>  <Num_Not_Resolved_Atoms>  (169) 
nan

$$$$
CHEMBL4795574
     RDKit          3D

  0  0  0  0  0  0  0  0  0  0999 V3000
M  V30 BEGIN CTAB
M  V30 COUNTS 39 42 0 0 0
M  V30 BEGIN ATOM
M  V30 1 N 3.112568 -2.952480 5.348290 0
M  V30 2 C 3.006230 -2.984596 4.192050 0
M  V30 3 C 2.862360 -3.024880 2.768797 0
M  V30 4 C 3.491105 -4.009028 2.025769 0
M  V30 5 C 3.398431 -4.114259 0.633126 0
M  V30 6 C 2.631803 -3.173473 -0.016446 0
M  V30 7 C 1.992710 -2.174757 0.729104 0
M  V30 8 C 2.093801 -2.084312 2.102089 0
M  V30 9 N 1.240040 -1.269629 -0.017368 0
M  V30 10 C 0.998300 -1.175792 -1.405725 0
M  V30 11 C 0.173660 -0.275277 -1.937093 0
M  V30 12 C -0.607926 0.701208 -1.317556 0
M  V30 13 O -0.866204 1.201846 -2.484574 0
M  V30 14 C -1.309182 1.537497 -0.441720 0
M  V30 15 C -1.492956 2.910130 -0.754380 0
M  V30 16 C -1.945889 3.891675 0.100789 0
M  V30 17 C -2.226732 3.431751 1.346275 0
M  V30 18 C -2.117246 2.152462 1.823435 0
M  V30 19 C -2.508560 1.836931 3.090245 0
M  V30 20 C -2.452531 0.512315 3.470948 0
M  V30 21 C -2.011050 -0.438591 2.573584 0
M  V30 22 C -1.643452 -0.016989 1.338923 0
M  V30 23 C -1.658102 1.300675 0.859133 0
M  V30 24 C 1.695731 -2.246244 -2.122724 0
M  V30 25 O 1.511413 -2.203776 -3.379217 0
M  V30 26 N 2.494338 -3.219687 -1.423561 0
M  V30 27 H 4.080537 -4.721889 2.588108 0
M  V30 28 H 3.903484 -4.895731 0.090679 0
M  V30 29 H 1.581260 -1.293334 2.640068 0
M  V30 30 H 0.825605 -0.477401 0.517080 0
M  V30 31 H 0.238106 -0.485088 -3.022145 0
M  V30 32 H -1.274824 3.330535 -1.761293 0
M  V30 33 H -2.067528 4.924081 -0.184148 0
M  V30 34 H -2.579540 4.194862 2.042811 0
M  V30 35 H -2.847418 2.625499 3.751541 0
M  V30 36 H -2.765978 0.287652 4.477704 0
M  V30 37 H -1.971338 -1.472821 2.874097 0
M  V30 38 H -1.354526 -0.819884 0.653786 0
M  V30 39 H 2.956462 -3.950004 -2.024368 0
M  V30 END ATOM
M  V30 BEGIN BOND
M  V30 1 3 1 2
M  V30 2 1 2 3
M  V30 3 2 3 4
M  V30 4 1 4 5
M  V30 5 2 5 6
M  V30 6 1 6 7
M  V30 7 2 7 8
M  V30 8 1 7 9
M  V30 9 1 9 10
M  V30 10 2 10 11
M  V30 11 1 11 12
M  V30 12 2 12 13
M  V30 13 1 12 14
M  V30 14 2 14 15
M  V30 15 1 15 16
M  V30 16 2 16 17
M  V30 17 1 17 18
M  V30 18 2 18 19
M  V30 19 1 19 20
M  V30 20 2 20 21
M  V30 21 1 21 22
M  V30 22 2 22 23
M  V30 23 1 10 24
M  V30 24 2 24 25
M  V30 25 1 24 26
M  V30 26 1 8 3
M  V30 27 1 23 14
M  V30 28 1 26 6
M  V30 29 1 23 18
M  V30 30 1 4 27
M  V30 31 1 5 28
M  V30 32 1 8 29
M  V30 33 1 9 30
M  V30 34 1 11 31
M  V30 35 1 15 32
M  V30 36 1 16 33
M  V30 37 1 17 34
M  V30 38 1 19 35
M  V30 39 1 20 36
M  V30 40 1 21 37
M  V30 41 1 22 38
M  V30 42 1 26 39
M  V30 END BOND
M  V30 END CTAB
M  END
>  <Dataset>  (170) 
ChEMBL_Kinases

>  <Ligand_Instance>  (170) 
nan

>  <PDB_ID>  (170) 
nan

>  <Standardized_SMILES>  (170) 
N#Cc1ccc2c(c1)N/C(=C\C(=O)c1cccc3ccccc13)C(=O)N2

>  <Name>  (170) 
nan

>  <Pocket>  (170) 
nan

>  <ATP_Site>  (170) 
nan

>  <Peripheral>  (170) 
nan

>  <Num_H_Atoms_ProtBoundConf>  (170) 
nan

>  <Num_Resolved_Atoms>  (170) 
nan

>  <Num_Not_Resolved_Atoms>  (170) 
nan

$$$$
CHEMBL4795601
     RDKit          3D

  0  0  0  0  0  0  0  0  0  0999 V3000
M  V30 BEGIN CTAB
M  V30 COUNTS 42 45 0 0 0
M  V30 BEGIN ATOM
M  V30 1 N 0.979015 -4.008347 3.095048 0
M  V30 2 C 0.641565 -3.167502 1.999878 0
M  V30 3 N 0.887395 -3.684144 0.792698 0
M  V30 4 C 0.612782 -2.988697 -0.351004 0
M  V30 5 N 0.851042 -3.502016 -1.651394 0
M  V30 6 C 0.716481 -2.993126 -2.988583 0
M  V30 7 C 1.613815 -1.854011 -3.302656 0
M  V30 8 C 1.434473 -0.494636 -3.276352 0
M  V30 9 C 2.400372 0.428056 -3.587540 0
M  V30 10 C 3.651479 -0.046165 -3.957491 0
M  V30 11 C 3.889212 -1.416972 -4.001886 0
M  V30 12 C 2.881520 -2.314118 -3.677944 0
M  V30 13 C 0.074034 -1.742370 -0.115458 0
M  V30 14 C -0.185691 -1.194252 1.121804 0
M  V30 15 N -0.686642 -0.044174 1.588741 0
M  V30 16 C -0.701998 -0.070732 2.954725 0
M  V30 17 C -1.201028 1.061884 3.728064 0
M  V30 18 C -2.485876 1.563302 3.744144 0
M  V30 19 C -2.775071 2.664978 4.554160 0
M  V30 20 O -4.085992 3.122197 4.525998 0
M  V30 21 C -1.765684 3.230514 5.324098 0
M  V30 22 C -0.475949 2.743813 5.321659 0
M  V30 23 O 0.480951 3.359483 6.116625 0
M  V30 24 C -0.211406 1.657219 4.516362 0
M  V30 25 N -0.194886 -1.272167 3.287058 0
M  V30 26 N 0.116277 -1.949659 2.195044 0
M  V30 27 H 0.419088 -4.730856 3.591723 0
M  V30 28 H 1.901634 -4.045845 3.618792 0
M  V30 29 H 1.213591 -4.493412 -1.595246 0
M  V30 30 H 0.854636 -3.830498 -3.703190 0
M  V30 31 H -0.352056 -2.676104 -3.164277 0
M  V30 32 H 0.437936 -0.213341 -2.991926 0
M  V30 33 H 2.098145 1.461429 -3.517007 0
M  V30 34 H 4.397188 0.712131 -4.198887 0
M  V30 35 H 4.899111 -1.653104 -4.303545 0
M  V30 36 H 3.268499 -3.330264 -3.775023 0
M  V30 37 H -0.195681 -1.090203 -0.928936 0
M  V30 38 H -3.184891 1.036843 3.101352 0
M  V30 39 H -4.547024 3.319525 3.630780 0
M  V30 40 H -2.097866 4.090242 5.922930 0
M  V30 41 H 1.460903 3.245794 5.830729 0
M  V30 42 H 0.831487 1.316758 4.557648 0
M  V30 END ATOM
M  V30 BEGIN BOND
M  V30 1 1 1 2
M  V30 2 2 2 3
M  V30 3 1 3 4
M  V30 4 1 4 5
M  V30 5 1 5 6
M  V30 6 1 6 7
M  V30 7 2 7 8
M  V30 8 1 8 9
M  V30 9 2 9 10
M  V30 10 1 10 11
M  V30 11 2 11 12
M  V30 12 2 4 13
M  V30 13 1 13 14
M  V30 14 2 14 15
M  V30 15 1 15 16
M  V30 16 1 16 17
M  V30 17 2 17 18
M  V30 18 1 18 19
M  V30 19 1 19 20
M  V30 20 2 19 21
M  V30 21 1 21 22
M  V30 22 1 22 23
M  V30 23 2 22 24
M  V30 24 2 16 25
M  V30 25 1 25 26
M  V30 26 1 26 2
M  V30 27 1 12 7
M  V30 28 1 26 14
M  V30 29 1 24 17
M  V30 30 1 1 27
M  V30 31 1 1 28
M  V30 32 1 5 29
M  V30 33 1 6 30
M  V30 34 1 6 31
M  V30 35 1 8 32
M  V30 36 1 9 33
M  V30 37 1 10 34
M  V30 38 1 11 35
M  V30 39 1 12 36
M  V30 40 1 13 37
M  V30 41 1 18 38
M  V30 42 1 20 39
M  V30 43 1 21 40
M  V30 44 1 23 41
M  V30 45 1 24 42
M  V30 END BOND
M  V30 END CTAB
M  END
>  <Dataset>  (171) 
ChEMBL_Kinases

>  <Ligand_Instance>  (171) 
nan

>  <PDB_ID>  (171) 
nan

>  <Standardized_SMILES>  (171) 
Nc1nc(NCc2ccccc2)cc2nc(-c3cc(O)cc(O)c3)nn12

>  <Name>  (171) 
nan

>  <Pocket>  (171) 
nan

>  <ATP_Site>  (171) 
nan

>  <Peripheral>  (171) 
nan

>  <Num_H_Atoms_ProtBoundConf>  (171) 
nan

>  <Num_Resolved_Atoms>  (171) 
nan

>  <Num_Not_Resolved_Atoms>  (171) 
nan

$$$$
CHEMBL4795653
     RDKit          3D

  0  0  0  0  0  0  0  0  0  0999 V3000
M  V30 BEGIN CTAB
M  V30 COUNTS 52 56 0 0 0
M  V30 BEGIN ATOM
M  V30 1 O 4.122479 0.007039 3.178613 0
M  V30 2 C 2.918059 0.409184 3.312202 0
M  V30 3 N 2.030982 -0.621532 3.669874 0
M  V30 4 C 2.350503 -2.004387 3.880793 0
M  V30 5 C 2.867970 -2.621938 2.612556 0
M  V30 6 N 1.931816 -2.655935 1.523059 0
M  V30 7 C 1.213530 -1.781051 0.680007 0
M  V30 8 N 1.284173 -0.447048 0.715269 0
M  V30 9 C 0.596185 0.357347 -0.093759 0
M  V30 10 C -0.213477 -0.245227 -0.992884 0
M  V30 11 C -0.350905 -1.606861 -1.102646 0
M  V30 12 C -1.185003 -2.373383 -2.020114 0
M  V30 13 C -2.539647 -2.215416 -1.862260 0
M  V30 14 C -3.523100 -1.507180 -1.059902 0
M  V30 15 C -3.772990 -0.163708 -1.036968 0
M  V30 16 C -4.701791 0.468485 -0.265671 0
M  V30 17 C -5.457143 -0.343421 0.570182 0
M  V30 18 C -5.294330 -1.699261 0.631007 0
M  V30 19 F -6.049967 -2.456855 1.456688 0
M  V30 20 C -4.321663 -2.265002 -0.192102 0
M  V30 21 N -3.144848 -2.988670 -2.777550 0
M  V30 22 C -2.174833 -3.626507 -3.503533 0
M  V30 23 S -1.725738 -4.795159 -4.857714 0
M  V30 24 C 0.140356 -4.589259 -4.580124 0
M  V30 25 C 0.197120 -3.662828 -3.498328 0
M  V30 26 N -0.965735 -3.237433 -3.025420 0
M  V30 27 N 0.390232 -2.312522 -0.236968 0
M  V30 28 C 2.617255 1.811847 3.091140 0
M  V30 29 C 1.417114 2.474456 3.175082 0
M  V30 30 F 0.352325 1.724529 3.512029 0
M  V30 31 C 1.200499 3.814460 2.951410 0
M  V30 32 C 2.300478 4.573351 2.606800 0
M  V30 33 C 3.535407 3.982320 2.502714 0
M  V30 34 C 3.678354 2.654734 2.737266 0
M  V30 35 F 4.950998 2.165193 2.608184 0
M  V30 36 H 1.031630 -0.364750 3.796653 0
M  V30 37 H 1.464868 -2.604535 4.183344 0
M  V30 38 H 3.159605 -2.138540 4.643310 0
M  V30 39 H 3.267655 -3.624764 2.887711 0
M  V30 40 H 3.811837 -2.074916 2.275188 0
M  V30 41 H 1.756774 -3.697791 1.330789 0
M  V30 42 H 0.651904 1.439698 -0.066819 0
M  V30 43 H -0.804134 0.331557 -1.689607 0
M  V30 44 H -3.180264 0.446464 -1.693860 0
M  V30 45 H -4.831513 1.547150 -0.313684 0
M  V30 46 H -6.205521 0.122240 1.199033 0
M  V30 47 H -4.205755 -3.355230 -0.130184 0
M  V30 48 H 0.871892 -5.127463 -5.193027 0
M  V30 49 H 1.228664 -3.484151 -3.268892 0
M  V30 50 H 0.200571 4.216080 3.051671 0
M  V30 51 H 2.106356 5.633092 2.433374 0
M  V30 52 H 4.365109 4.616955 2.229756 0
M  V30 END ATOM
M  V30 BEGIN BOND
M  V30 1 2 1 2
M  V30 2 1 2 3
M  V30 3 1 3 4
M  V30 4 1 4 5
M  V30 5 1 5 6
M  V30 6 1 6 7
M  V30 7 2 7 8
M  V30 8 1 8 9
M  V30 9 2 9 10
M  V30 10 1 10 11
M  V30 11 1 11 12
M  V30 12 2 12 13
M  V30 13 1 13 14
M  V30 14 2 14 15
M  V30 15 1 15 16
M  V30 16 2 16 17
M  V30 17 1 17 18
M  V30 18 1 18 19
M  V30 19 2 18 20
M  V30 20 1 13 21
M  V30 21 2 21 22
M  V30 22 1 22 23
M  V30 23 1 23 24
M  V30 24 2 24 25
M  V30 25 1 25 26
M  V30 26 2 11 27
M  V30 27 1 2 28
M  V30 28 2 28 29
M  V30 29 1 29 30
M  V30 30 1 29 31
M  V30 31 2 31 32
M  V30 32 1 32 33
M  V30 33 2 33 34
M  V30 34 1 34 35
M  V30 35 1 27 7
M  V30 36 1 34 28
M  V30 37 1 26 12
M  V30 38 1 20 14
M  V30 39 1 26 22
M  V30 40 1 3 36
M  V30 41 1 4 37
M  V30 42 1 4 38
M  V30 43 1 5 39
M  V30 44 1 5 40
M  V30 45 1 6 41
M  V30 46 1 9 42
M  V30 47 1 10 43
M  V30 48 1 15 44
M  V30 49 1 16 45
M  V30 50 1 17 46
M  V30 51 1 20 47
M  V30 52 1 24 48
M  V30 53 1 25 49
M  V30 54 1 31 50
M  V30 55 1 32 51
M  V30 56 1 33 52
M  V30 END BOND
M  V30 END CTAB
M  END
>  <Dataset>  (172) 
ChEMBL_Kinases

>  <Ligand_Instance>  (172) 
nan

>  <PDB_ID>  (172) 
nan

>  <Standardized_SMILES>  (172) 
O=C(NCCNc1nccc(-c2c(-c3cccc(F)c3)nc3sccn23)n1)c1c(F)cccc1F

>  <Name>  (172) 
nan

>  <Pocket>  (172) 
nan

>  <ATP_Site>  (172) 
nan

>  <Peripheral>  (172) 
nan

>  <Num_H_Atoms_ProtBoundConf>  (172) 
nan

>  <Num_Resolved_Atoms>  (172) 
nan

>  <Num_Not_Resolved_Atoms>  (172) 
nan

$$$$
CHEMBL4795694
     RDKit          3D

  0  0  0  0  0  0  0  0  0  0999 V3000
M  V30 BEGIN CTAB
M  V30 COUNTS 42 44 0 0 0
M  V30 BEGIN ATOM
M  V30 1 C 0.000064 -6.507960 1.761052 0
M  V30 2 C 0.680589 -5.643546 0.747713 0
M  V30 3 C 1.317605 -4.457691 1.040668 0
M  V30 4 C 1.776267 -4.042983 -0.195640 0
M  V30 5 N 2.524331 -2.835746 -0.462417 0
M  V30 6 C 1.725825 -1.714578 -0.762670 0
M  V30 7 O 0.489003 -1.888699 -0.763869 0
M  V30 8 N 2.162710 -0.404571 -1.065337 0
M  V30 9 C 1.238874 0.643980 -1.352340 0
M  V30 10 C 0.729017 1.003267 -2.603380 0
M  V30 11 C -0.161620 2.059526 -2.654018 0
M  V30 12 C -0.516885 2.718933 -1.488555 0
M  V30 13 C -0.002942 2.350049 -0.260946 0
M  V30 14 C -0.409193 3.077372 0.938479 0
M  V30 15 N -0.904346 4.307687 0.954894 0
M  V30 16 N -1.166105 4.663568 2.201554 0
M  V30 17 C -0.846263 3.667203 3.038593 0
M  V30 18 N -0.380621 2.698975 2.229716 0
M  V30 19 C 0.103093 1.391010 2.659574 0
M  V30 20 C -0.749348 0.257202 2.196642 0
M  V30 21 C 0.276483 1.330669 4.154919 0
M  V30 22 N 0.856820 1.322329 -0.252279 0
M  V30 23 N 1.447907 -4.904451 -1.171218 0
M  V30 24 N 0.767605 -5.897052 -0.581606 0
M  V30 25 H 0.369893 -6.274894 2.769165 0
M  V30 26 H -1.086634 -6.200877 1.756378 0
M  V30 27 H 0.092816 -7.574307 1.508706 0
M  V30 28 H 1.449675 -3.941757 1.991473 0
M  V30 29 H 3.572647 -2.670134 -0.465765 0
M  V30 30 H 3.218569 -0.268367 -1.061297 0
M  V30 31 H 1.103005 0.392523 -3.414880 0
M  V30 32 H -0.509758 2.277929 -3.642324 0
M  V30 33 H -1.219599 3.532471 -1.627477 0
M  V30 34 H -0.917518 3.588666 4.115292 0
M  V30 35 H 1.137413 1.244990 2.237799 0
M  V30 36 H -1.398698 -0.167508 3.001962 0
M  V30 37 H -1.434501 0.564391 1.381622 0
M  V30 38 H -0.138221 -0.579026 1.781304 0
M  V30 39 H -0.694176 1.326586 4.691416 0
M  V30 40 H 0.885658 2.187771 4.484169 0
M  V30 41 H 0.803704 0.400632 4.398071 0
M  V30 42 H 1.671748 -4.826129 -2.183432 0
M  V30 END ATOM
M  V30 BEGIN BOND
M  V30 1 1 1 2
M  V30 2 1 2 3
M  V30 3 2 3 4
M  V30 4 1 4 5
M  V30 5 1 5 6
M  V30 6 2 6 7
M  V30 7 1 6 8
M  V30 8 1 8 9
M  V30 9 2 9 10
M  V30 10 1 10 11
M  V30 11 2 11 12
M  V30 12 1 12 13
M  V30 13 1 13 14
M  V30 14 2 14 15
M  V30 15 1 15 16
M  V30 16 2 16 17
M  V30 17 1 17 18
M  V30 18 1 18 19
M  V30 19 1 19 20
M  V30 20 1 19 21
M  V30 21 2 13 22
M  V30 22 1 4 23
M  V30 23 1 23 24
M  V30 24 2 24 2
M  V30 25 1 22 9
M  V30 26 1 18 14
M  V30 27 1 1 25
M  V30 28 1 1 26
M  V30 29 1 1 27
M  V30 30 1 3 28
M  V30 31 1 5 29
M  V30 32 1 8 30
M  V30 33 1 10 31
M  V30 34 1 11 32
M  V30 35 1 12 33
M  V30 36 1 17 34
M  V30 37 1 19 35
M  V30 38 1 20 36
M  V30 39 1 20 37
M  V30 40 1 20 38
M  V30 41 1 21 39
M  V30 42 1 21 40
M  V30 43 1 21 41
M  V30 44 1 23 42
M  V30 END BOND
M  V30 END CTAB
M  END
>  <Dataset>  (173) 
ChEMBL_Kinases

>  <Ligand_Instance>  (173) 
nan

>  <PDB_ID>  (173) 
nan

>  <Standardized_SMILES>  (173) 
Cc1cc(NC(=O)Nc2cccc(-c3nncn3C(C)C)n2)[nH]n1

>  <Name>  (173) 
nan

>  <Pocket>  (173) 
nan

>  <ATP_Site>  (173) 
nan

>  <Peripheral>  (173) 
nan

>  <Num_H_Atoms_ProtBoundConf>  (173) 
nan

>  <Num_Resolved_Atoms>  (173) 
nan

>  <Num_Not_Resolved_Atoms>  (173) 
nan

$$$$
CHEMBL4795697
     RDKit          3D

  0  0  0  0  0  0  0  0  0  0999 V3000
M  V30 BEGIN CTAB
M  V30 COUNTS 47 50 0 0 0
M  V30 BEGIN ATOM
M  V30 1 O -0.151617 -3.236781 0.248529 0
M  V30 2 C -1.240127 -2.646799 0.563465 0
M  V30 3 N -1.434078 -1.388599 -0.020711 0
M  V30 4 C -0.370462 -0.968513 -0.881823 0
M  V30 5 C -0.551331 0.363825 -1.514877 0
M  V30 6 C -0.683983 1.529722 -0.606675 0
M  V30 7 N 0.436791 1.772433 0.264413 0
M  V30 8 C 1.426632 2.586442 -0.213283 0
M  V30 9 O 1.321768 3.081271 -1.376801 0
M  V30 10 C 2.564580 2.918977 0.498075 0
M  V30 11 C 3.514152 3.748857 -0.062632 0
M  V30 12 C 4.599733 4.001573 0.750754 0
M  V30 13 F 5.568980 4.821199 0.235818 0
M  V30 14 C 4.784098 3.501670 2.023158 0
M  V30 15 C 3.803973 2.676464 2.536350 0
M  V30 16 C 2.703273 2.394355 1.765708 0
M  V30 17 N 1.736304 1.597608 2.235755 0
M  V30 18 C 1.599826 0.964371 3.393215 0
M  V30 19 S 2.504884 0.866756 4.717157 0
M  V30 20 N 0.443635 0.282326 3.391624 0
M  V30 21 N -0.153379 0.494894 2.207900 0
M  V30 22 C 0.645590 1.300540 1.508641 0
M  V30 23 C -2.195808 -3.295263 1.487686 0
M  V30 24 C -1.623159 -4.648824 1.901275 0
M  V30 25 C -1.907254 -5.499607 0.694359 0
M  V30 26 C -3.211379 -4.967566 0.133187 0
M  V30 27 C -3.497566 -3.682086 0.868459 0
M  V30 28 H -2.322499 -0.871287 0.216460 0
M  V30 29 H 0.578857 -1.075263 -0.319316 0
M  V30 30 H -0.286198 -1.709780 -1.707824 0
M  V30 31 H -1.487007 0.311178 -2.118888 0
M  V30 32 H 0.304996 0.538158 -2.195453 0
M  V30 33 H -0.830205 2.430701 -1.242485 0
M  V30 34 H -1.592772 1.478009 0.026477 0
M  V30 35 H 3.412987 4.163652 -1.054399 0
M  V30 36 H 5.678327 3.760664 2.586960 0
M  V30 37 H 4.003069 2.320272 3.526619 0
M  V30 38 H -0.049105 -0.335570 4.076351 0
M  V30 39 H -2.354413 -2.695089 2.390442 0
M  V30 40 H -0.532295 -4.578757 2.082431 0
M  V30 41 H -2.147072 -5.041316 2.778144 0
M  V30 42 H -1.079462 -5.364850 -0.024200 0
M  V30 43 H -1.998763 -6.574249 0.951590 0
M  V30 44 H -4.052097 -5.672507 0.367151 0
M  V30 45 H -3.103872 -4.796423 -0.942373 0
M  V30 46 H -4.204463 -3.876538 1.723613 0
M  V30 47 H -3.982003 -2.924520 0.251573 0
M  V30 END ATOM
M  V30 BEGIN BOND
M  V30 1 2 1 2
M  V30 2 1 2 3
M  V30 3 1 3 4
M  V30 4 1 4 5
M  V30 5 1 5 6
M  V30 6 1 6 7
M  V30 7 1 7 8
M  V30 8 2 8 9
M  V30 9 1 8 10
M  V30 10 2 10 11
M  V30 11 1 11 12
M  V30 12 1 12 13
M  V30 13 2 12 14
M  V30 14 1 14 15
M  V30 15 2 15 16
M  V30 16 1 16 17
M  V30 17 1 17 18
M  V30 18 2 18 19
M  V30 19 1 18 20
M  V30 20 1 20 21
M  V30 21 2 21 22
M  V30 22 1 2 23
M  V30 23 1 23 24
M  V30 24 1 24 25
M  V30 25 1 25 26
M  V30 26 1 26 27
M  V30 27 1 22 7
M  V30 28 1 27 23
M  V30 29 1 16 10
M  V30 30 1 22 17
M  V30 31 1 3 28
M  V30 32 1 4 29
M  V30 33 1 4 30
M  V30 34 1 5 31
M  V30 35 1 5 32
M  V30 36 1 6 33
M  V30 37 1 6 34
M  V30 38 1 11 35
M  V30 39 1 14 36
M  V30 40 1 15 37
M  V30 41 1 20 38
M  V30 42 1 23 39
M  V30 43 1 24 40
M  V30 44 1 24 41
M  V30 45 1 25 42
M  V30 46 1 25 43
M  V30 47 1 26 44
M  V30 48 1 26 45
M  V30 49 1 27 46
M  V30 50 1 27 47
M  V30 END BOND
M  V30 END CTAB
M  END
>  <Dataset>  (174) 
ChEMBL_Kinases

>  <Ligand_Instance>  (174) 
nan

>  <PDB_ID>  (174) 
nan

>  <Standardized_SMILES>  (174) 
O=C(NCCCn1c(=O)c2cc(F)ccc2n2c(=S)[nH]nc12)C1CCCC1

>  <Name>  (174) 
nan

>  <Pocket>  (174) 
nan

>  <ATP_Site>  (174) 
nan

>  <Peripheral>  (174) 
nan

>  <Num_H_Atoms_ProtBoundConf>  (174) 
nan

>  <Num_Resolved_Atoms>  (174) 
nan

>  <Num_Not_Resolved_Atoms>  (174) 
nan

$$$$
CHEMBL4795732
     RDKit          3D

  0  0  0  0  0  0  0  0  0  0999 V3000
M  V30 BEGIN CTAB
M  V30 COUNTS 70 74 0 0 0
M  V30 BEGIN ATOM
M  V30 1 C 2.019123 -1.499048 6.825351 0
M  V30 2 C 1.430114 -2.077774 5.559768 0
M  V30 3 N 2.082819 -1.440388 4.438069 0
M  V30 4 C 3.455793 -1.792897 4.301030 0
M  V30 5 C 4.132811 -0.799332 3.387404 0
M  V30 6 N 3.305851 -0.625293 2.219450 0
M  V30 7 C 3.572077 0.457216 1.320205 0
M  V30 8 C 2.706903 0.872854 0.360259 0
M  V30 9 C 2.915506 1.894206 -0.541964 0
M  V30 10 C 1.955840 2.325629 -1.555767 0
M  V30 11 O 2.286935 3.201106 -2.373280 0
M  V30 12 N 0.642551 1.814529 -1.687089 0
M  V30 13 C -0.367358 2.131253 -2.600027 0
M  V30 14 C -0.302796 3.015973 -3.618099 0
M  V30 15 C -1.356582 3.267944 -4.470386 0
M  V30 16 C -2.539809 2.599701 -4.297029 0
M  V30 17 C -2.686413 1.664179 -3.262313 0
M  V30 18 N -3.899574 0.969693 -3.037303 0
M  V30 19 C -4.213303 -0.320307 -2.585934 0
M  V30 20 C -3.333289 -1.355235 -2.384961 0
M  V30 21 C -3.684332 -2.610397 -1.908313 0
M  V30 22 C -4.991351 -2.858268 -1.611370 0
M  V30 23 C -5.372491 -4.093281 -1.134277 0
M  V30 24 O -4.406448 -5.049444 -0.972842 0
M  V30 25 C -4.618836 -6.359383 -0.498321 0
M  V30 26 C -6.716967 -4.251559 -0.859216 0
M  V30 27 C -7.644576 -3.225236 -1.050242 0
M  V30 28 C -7.204358 -1.992626 -1.536199 0
M  V30 29 C -5.866189 -1.814683 -1.816748 0
M  V30 30 N -5.491835 -0.617363 -2.277979 0
M  V30 31 C -1.580626 1.485148 -2.468151 0
M  V30 32 C 4.130617 2.535823 -0.432812 0
M  V30 33 C 5.065058 2.158549 0.531833 0
M  V30 34 C 6.369667 2.830196 0.665983 0
M  V30 35 F 6.272748 3.910238 1.500557 0
M  V30 36 F 6.929302 3.162305 -0.543100 0
M  V30 37 F 7.282078 1.957007 1.279371 0
M  V30 38 C 4.789650 1.111365 1.418984 0
M  V30 39 C 2.264460 -1.624683 2.087788 0
M  V30 40 C 1.303988 -1.451643 3.245380 0
M  V30 41 H 1.262907 -1.412447 7.634175 0
M  V30 42 H 2.837408 -2.190342 7.130764 0
M  V30 43 H 2.435092 -0.501468 6.590585 0
M  V30 44 H 1.553760 -3.190887 5.519179 0
M  V30 45 H 0.335528 -1.909245 5.541750 0
M  V30 46 H 3.581968 -2.819848 3.850965 0
M  V30 47 H 3.904404 -1.785345 5.321585 0
M  V30 48 H 5.144106 -1.164988 3.064399 0
M  V30 49 H 4.310387 0.148531 3.933802 0
M  V30 50 H 1.787145 0.336103 0.330734 0
M  V30 51 H 0.462136 1.081939 -0.946741 0
M  V30 52 H 0.574258 3.566282 -3.811964 0
M  V30 53 H -1.293243 3.981393 -5.285229 0
M  V30 54 H -3.416211 2.745902 -4.930656 0
M  V30 55 H -4.713512 1.606092 -3.274006 0
M  V30 56 H -2.304237 -1.236031 -2.609621 0
M  V30 57 H -2.948548 -3.393056 -1.767786 0
M  V30 58 H -4.631155 -6.436360 0.603325 0
M  V30 59 H -3.811462 -6.979436 -0.951045 0
M  V30 60 H -5.563080 -6.741187 -0.968414 0
M  V30 61 H -6.990699 -5.247135 -0.479379 0
M  V30 62 H -8.663208 -3.482886 -0.795636 0
M  V30 63 H -7.989371 -1.258029 -1.652668 0
M  V30 64 H -1.713928 0.773155 -1.659959 0
M  V30 65 H 4.353132 3.356420 -1.124307 0
M  V30 66 H 5.538054 0.836117 2.165392 0
M  V30 67 H 1.655356 -1.482013 1.172705 0
M  V30 68 H 2.677105 -2.653611 2.044822 0
M  V30 69 H 0.495923 -2.213482 3.225865 0
M  V30 70 H 0.774999 -0.474536 3.128162 0
M  V30 END ATOM
M  V30 BEGIN BOND
M  V30 1 1 1 2
M  V30 2 1 2 3
M  V30 3 1 3 4
M  V30 4 1 4 5
M  V30 5 1 5 6
M  V30 6 1 6 7
M  V30 7 2 7 8
M  V30 8 1 8 9
M  V30 9 1 9 10
M  V30 10 2 10 11
M  V30 11 1 10 12
M  V30 12 1 12 13
M  V30 13 2 13 14
M  V30 14 1 14 15
M  V30 15 2 15 16
M  V30 16 1 16 17
M  V30 17 1 17 18
M  V30 18 1 18 19
M  V30 19 2 19 20
M  V30 20 1 20 21
M  V30 21 2 21 22
M  V30 22 1 22 23
M  V30 23 1 23 24
M  V30 24 1 24 25
M  V30 25 2 23 26
M  V30 26 1 26 27
M  V30 27 2 27 28
M  V30 28 1 28 29
M  V30 29 2 29 30
M  V30 30 2 17 31
M  V30 31 2 9 32
M  V30 32 1 32 33
M  V30 33 1 33 34
M  V30 34 1 34 35
M  V30 35 1 34 36
M  V30 36 1 34 37
M  V30 37 2 33 38
M  V30 38 1 6 39
M  V30 39 1 39 40
M  V30 40 1 40 3
M  V30 41 1 38 7
M  V30 42 1 31 13
M  V30 43 1 30 19
M  V30 44 1 29 22
M  V30 45 1 1 41
M  V30 46 1 1 42
M  V30 47 1 1 43
M  V30 48 1 2 44
M  V30 49 1 2 45
M  V30 50 1 4 46
M  V30 51 1 4 47
M  V30 52 1 5 48
M  V30 53 1 5 49
M  V30 54 1 8 50
M  V30 55 1 12 51
M  V30 56 1 14 52
M  V30 57 1 15 53
M  V30 58 1 16 54
M  V30 59 1 18 55
M  V30 60 1 20 56
M  V30 61 1 21 57
M  V30 62 1 25 58
M  V30 63 1 25 59
M  V30 64 1 25 60
M  V30 65 1 26 61
M  V30 66 1 27 62
M  V30 67 1 28 63
M  V30 68 1 31 64
M  V30 69 1 32 65
M  V30 70 1 38 66
M  V30 71 1 39 67
M  V30 72 1 39 68
M  V30 73 1 40 69
M  V30 74 1 40 70
M  V30 END BOND
M  V30 END CTAB
M  END
>  <Dataset>  (175) 
ChEMBL_Kinases

>  <Ligand_Instance>  (175) 
nan

>  <PDB_ID>  (175) 
nan

>  <Standardized_SMILES>  (175) 
CCN1CCN(c2cc(C(=O)Nc3cccc(Nc4ccc5c(OC)cccc5n4)c3)cc(C(F)(F)F)c2)CC1

>  <Name>  (175) 
nan

>  <Pocket>  (175) 
nan

>  <ATP_Site>  (175) 
nan

>  <Peripheral>  (175) 
nan

>  <Num_H_Atoms_ProtBoundConf>  (175) 
nan

>  <Num_Resolved_Atoms>  (175) 
nan

>  <Num_Not_Resolved_Atoms>  (175) 
nan

$$$$
CHEMBL4795738
     RDKit          3D

  0  0  0  0  0  0  0  0  0  0999 V3000
M  V30 BEGIN CTAB
M  V30 COUNTS 44 46 0 0 0
M  V30 BEGIN ATOM
M  V30 1 C 0.988786 -8.227145 2.983531 0
M  V30 2 C 0.786748 -7.034242 2.866687 0
M  V30 3 C 0.541407 -5.640796 2.729355 0
M  V30 4 N 0.987900 -4.950935 1.672136 0
M  V30 5 C 0.794501 -3.641118 1.478124 0
M  V30 6 N 1.313841 -3.013426 0.319195 0
M  V30 7 C 1.211621 -1.652695 -0.054593 0
M  V30 8 C 0.572801 -0.666964 0.658684 0
M  V30 9 C 0.478613 0.655899 0.286089 0
M  V30 10 C 1.061940 1.063925 -0.896563 0
M  V30 11 C 1.025645 2.441397 -1.411921 0
M  V30 12 C 1.112110 3.499806 -0.409918 0
M  V30 13 O 0.238595 4.404062 -0.192786 0
M  V30 14 N 2.240732 3.603175 0.443395 0
M  V30 15 C 2.235355 4.679063 1.399037 0
M  V30 16 C -0.290743 2.628967 -2.130507 0
M  V30 17 O -0.358916 2.913152 -3.364822 0
M  V30 18 N -1.585364 2.520698 -1.558708 0
M  V30 19 C -2.762667 2.720676 -2.344855 0
M  V30 20 C 1.722157 0.083266 -1.648874 0
M  V30 21 C 1.786827 -1.226031 -1.230064 0
M  V30 22 N 0.097859 -3.054480 2.453691 0
M  V30 23 C -0.391506 -3.649754 3.547253 0
M  V30 24 N -1.102211 -3.151010 4.582911 0
M  V30 25 C -1.311132 -4.221596 5.380648 0
M  V30 26 N -0.763099 -5.336860 4.878163 0
M  V30 27 C -0.171262 -4.998608 3.710316 0
M  V30 28 H 1.171539 -9.282095 3.092135 0
M  V30 29 H 1.844397 -3.642260 -0.349710 0
M  V30 30 H 0.097860 -0.906329 1.583443 0
M  V30 31 H -0.035432 1.379214 0.900899 0
M  V30 32 H 1.796681 2.534263 -2.231661 0
M  V30 33 H 3.035954 2.923170 0.373401 0
M  V30 34 H 1.679513 4.365343 2.318251 0
M  V30 35 H 1.842914 5.628617 0.983659 0
M  V30 36 H 3.272016 4.864120 1.748742 0
M  V30 37 H -1.655416 2.293982 -0.554130 0
M  V30 38 H -3.337960 3.645866 -2.063582 0
M  V30 39 H -3.463865 1.865885 -2.174760 0
M  V30 40 H -2.560899 2.737158 -3.430514 0
M  V30 41 H 2.186666 0.396141 -2.585244 0
M  V30 42 H 2.329513 -1.904828 -1.900155 0
M  V30 43 H -1.403162 -2.176425 4.712100 0
M  V30 44 H -1.862969 -4.141067 6.309109 0
M  V30 END ATOM
M  V30 BEGIN BOND
M  V30 1 3 1 2
M  V30 2 1 2 3
M  V30 3 2 3 4
M  V30 4 1 4 5
M  V30 5 1 5 6
M  V30 6 1 6 7
M  V30 7 2 7 8
M  V30 8 1 8 9
M  V30 9 2 9 10
M  V30 10 1 10 11
M  V30 11 1 11 12
M  V30 12 2 12 13
M  V30 13 1 12 14
M  V30 14 1 14 15
M  V30 15 1 11 16
M  V30 16 2 16 17
M  V30 17 1 16 18
M  V30 18 1 18 19
M  V30 19 1 10 20
M  V30 20 2 20 21
M  V30 21 2 5 22
M  V30 22 1 22 23
M  V30 23 1 23 24
M  V30 24 1 24 25
M  V30 25 2 25 26
M  V30 26 1 26 27
M  V30 27 1 27 3
M  V30 28 1 21 7
M  V30 29 2 27 23
M  V30 30 1 1 28
M  V30 31 1 6 29
M  V30 32 1 8 30
M  V30 33 1 9 31
M  V30 34 1 11 32
M  V30 35 1 14 33
M  V30 36 1 15 34
M  V30 37 1 15 35
M  V30 38 1 15 36
M  V30 39 1 18 37
M  V30 40 1 19 38
M  V30 41 1 19 39
M  V30 42 1 19 40
M  V30 43 1 20 41
M  V30 44 1 21 42
M  V30 45 1 24 43
M  V30 46 1 25 44
M  V30 END BOND
M  V30 END CTAB
M  END
>  <Dataset>  (176) 
ChEMBL_Kinases

>  <Ligand_Instance>  (176) 
nan

>  <PDB_ID>  (176) 
nan

>  <Standardized_SMILES>  (176) 
C#Cc1nc(Nc2ccc(C(C(=O)NC)C(=O)NC)cc2)nc2[nH]cnc12

>  <Name>  (176) 
nan

>  <Pocket>  (176) 
nan

>  <ATP_Site>  (176) 
nan

>  <Peripheral>  (176) 
nan

>  <Num_H_Atoms_ProtBoundConf>  (176) 
nan

>  <Num_Resolved_Atoms>  (176) 
nan

>  <Num_Not_Resolved_Atoms>  (176) 
nan

$$$$
CHEMBL4795752
     RDKit          3D

  0  0  0  0  0  0  0  0  0  0999 V3000
M  V30 BEGIN CTAB
M  V30 COUNTS 83 87 0 0 0
M  V30 BEGIN ATOM
M  V30 1 N 3.785390 2.452900 4.686618 0
M  V30 2 C 4.140398 1.093718 4.893195 0
M  V30 3 C 4.443348 0.225262 3.869889 0
M  V30 4 C 4.470716 0.464027 2.423356 0
M  V30 5 O 4.183554 1.609415 1.999317 0
M  V30 6 N 4.814615 -0.577853 1.537482 0
M  V30 7 C 4.895568 -0.547369 0.114228 0
M  V30 8 C 3.505581 -0.583239 -0.462398 0
M  V30 9 C 3.018534 -1.860671 -0.640238 0
M  V30 10 C 1.737624 -2.056558 -1.176929 0
M  V30 11 C 0.979472 -0.968639 -1.521168 0
M  V30 12 C -0.347728 -1.208666 -2.071182 0
M  V30 13 O -0.738616 -2.428350 -2.076386 0
M  V30 14 N -1.238321 -0.228675 -2.597331 0
M  V30 15 C -2.508855 -0.731307 -3.083371 0 CFG=1
M  V30 16 C -3.597548 0.229811 -3.060813 0
M  V30 17 C -4.069673 0.848509 -1.815054 0
M  V30 18 C -4.658908 0.072147 -0.718924 0
M  V30 19 C -5.154603 1.020285 0.408835 0
M  V30 20 C -4.068453 1.789595 1.046590 0
M  V30 21 C -2.876486 0.992419 1.451367 0
M  V30 22 C -2.701464 -0.310045 0.769438 0
M  V30 23 C -3.849438 -0.901659 0.046367 0
M  V30 24 C -2.270034 -1.204394 -4.534651 0
M  V30 25 O -1.062567 -0.979536 -4.834033 0
M  V30 26 N -3.203544 -1.783044 -5.386632 0
M  V30 27 C -2.936426 -2.218454 -6.739091 0
M  V30 28 C -2.179514 -3.511898 -6.747794 0
M  V30 29 C -2.782649 -4.751374 -6.707343 0
M  V30 30 C -2.026013 -5.926466 -6.721924 0
M  V30 31 C -0.632027 -5.825426 -6.778881 0
M  V30 32 N -0.101033 -4.606457 -6.816815 0
M  V30 33 C -0.806940 -3.469295 -6.803668 0
M  V30 34 C 1.474623 0.307595 -1.339832 0
M  V30 35 C 2.747344 0.514274 -0.806558 0
M  V30 36 C 4.734434 -0.991679 4.502803 0
M  V30 37 N 4.590328 -0.776915 5.820677 0
M  V30 38 N 4.233742 0.468361 6.080677 0
M  V30 39 C 4.007490 0.988880 7.388831 0
M  V30 40 C 3.019122 1.963737 7.536900 0
M  V30 41 C 2.738366 2.518972 8.766532 0
M  V30 42 C 3.488373 2.059279 9.848889 0
M  V30 43 C 4.473639 1.093153 9.726401 0
M  V30 44 C 4.733639 0.554690 8.483920 0
M  V30 45 H 3.093756 2.878253 4.024137 0
M  V30 46 H 4.199350 3.280041 5.208897 0
M  V30 47 H 5.041121 -1.505795 2.005718 0
M  V30 48 H 5.521256 -1.366762 -0.251620 0
M  V30 49 H 5.355525 0.383522 -0.284223 0
M  V30 50 H 3.582483 -2.749313 -0.382202 0
M  V30 51 H 1.402917 -3.095025 -1.295371 0
M  V30 52 H -0.861945 0.732832 -2.565783 0
M  V30 53 H -2.729324 -1.656396 -2.524415 0
M  V30 54 H -4.507988 -0.168334 -3.650048 0
M  V30 55 H -3.243784 1.122235 -3.722554 0
M  V30 56 H -3.294079 1.591358 -1.425076 0
M  V30 57 H -4.897883 1.591320 -2.128493 0
M  V30 58 H -5.597706 -0.423859 -1.074217 0
M  V30 59 H -5.663530 0.347230 1.126784 0
M  V30 60 H -5.931786 1.675305 -0.031990 0
M  V30 61 H -3.764858 2.602893 0.353509 0
M  V30 62 H -4.514247 2.313998 1.926541 0
M  V30 63 H -1.966714 1.612374 1.297486 0
M  V30 64 H -2.941440 0.824178 2.546878 0
M  V30 65 H -2.396435 -1.101480 1.532097 0
M  V30 66 H -1.827663 -0.286413 0.095074 0
M  V30 67 H -4.560883 -1.261856 0.887878 0
M  V30 68 H -3.557050 -1.826366 -0.445546 0
M  V30 69 H -4.144491 -1.874345 -4.933789 0
M  V30 70 H -2.408872 -1.454883 -7.339986 0
M  V30 71 H -3.915264 -2.418191 -7.203579 0
M  V30 72 H -3.871372 -4.766966 -6.664520 0
M  V30 73 H -2.512932 -6.889670 -6.688741 0
M  V30 74 H -0.126858 -6.772315 -6.785388 0
M  V30 75 H -0.201708 -2.592502 -6.844398 0
M  V30 76 H 0.888487 1.185802 -1.606379 0
M  V30 77 H 3.197455 1.474963 -0.639099 0
M  V30 78 H 5.016837 -1.912873 4.008648 0
M  V30 79 H 2.411034 2.347639 6.703709 0
M  V30 80 H 1.969978 3.280003 8.891965 0
M  V30 81 H 3.299139 2.473478 10.848815 0
M  V30 82 H 5.032938 0.768866 10.612703 0
M  V30 83 H 5.497929 -0.200673 8.364684 0
M  V30 END ATOM
M  V30 BEGIN BOND
M  V30 1 1 1 2
M  V30 2 2 2 3
M  V30 3 1 3 4
M  V30 4 2 4 5
M  V30 5 1 4 6
M  V30 6 1 6 7
M  V30 7 1 7 8
M  V30 8 2 8 9
M  V30 9 1 9 10
M  V30 10 2 10 11
M  V30 11 1 11 12
M  V30 12 2 12 13
M  V30 13 1 12 14
M  V30 14 1 14 15
M  V30 15 1 15 16
M  V30 16 1 16 17
M  V30 17 1 17 18
M  V30 18 1 18 19
M  V30 19 1 19 20
M  V30 20 1 20 21
M  V30 21 1 21 22
M  V30 22 1 22 23
M  V30 23 1 15 24
M  V30 24 2 24 25
M  V30 25 1 24 26
M  V30 26 1 26 27
M  V30 27 1 27 28
M  V30 28 2 28 29
M  V30 29 1 29 30
M  V30 30 2 30 31
M  V30 31 1 31 32
M  V30 32 2 32 33
M  V30 33 1 11 34
M  V30 34 2 34 35
M  V30 35 1 3 36
M  V30 36 2 36 37
M  V30 37 1 37 38
M  V30 38 1 38 39
M  V30 39 2 39 40
M  V30 40 1 40 41
M  V30 41 2 41 42
M  V30 42 1 42 43
M  V30 43 2 43 44
M  V30 44 1 38 2
M  V30 45 1 44 39
M  V30 46 1 35 8
M  V30 47 1 23 18
M  V30 48 1 33 28
M  V30 49 1 1 45
M  V30 50 1 1 46
M  V30 51 1 6 47
M  V30 52 1 7 48
M  V30 53 1 7 49
M  V30 54 1 9 50
M  V30 55 1 10 51
M  V30 56 1 14 52
M  V30 57 1 15 53 CFG=1
M  V30 58 1 16 54
M  V30 59 1 16 55
M  V30 60 1 17 56
M  V30 61 1 17 57
M  V30 62 1 18 58
M  V30 63 1 19 59
M  V30 64 1 19 60
M  V30 65 1 20 61
M  V30 66 1 20 62
M  V30 67 1 21 63
M  V30 68 1 21 64
M  V30 69 1 22 65
M  V30 70 1 22 66
M  V30 71 1 23 67
M  V30 72 1 23 68
M  V30 73 1 26 69
M  V30 74 1 27 70
M  V30 75 1 27 71
M  V30 76 1 29 72
M  V30 77 1 30 73
M  V30 78 1 31 74
M  V30 79 1 33 75
M  V30 80 1 34 76
M  V30 81 1 35 77
M  V30 82 1 36 78
M  V30 83 1 40 79
M  V30 84 1 41 80
M  V30 85 1 42 81
M  V30 86 1 43 82
M  V30 87 1 44 83
M  V30 END BOND
M  V30 END CTAB
M  END
>  <Dataset>  (177) 
ChEMBL_Kinases

>  <Ligand_Instance>  (177) 
nan

>  <PDB_ID>  (177) 
nan

>  <Standardized_SMILES>  (177) 
Nc1c(C(=O)NCc2ccc(C(=O)N[C@@H](CCC3CCCCC3)C(=O)NCc3cccnc3)cc2)cnn1-c1ccccc1

>  <Name>  (177) 
nan

>  <Pocket>  (177) 
nan

>  <ATP_Site>  (177) 
nan

>  <Peripheral>  (177) 
nan

>  <Num_H_Atoms_ProtBoundConf>  (177) 
nan

>  <Num_Resolved_Atoms>  (177) 
nan

>  <Num_Not_Resolved_Atoms>  (177) 
nan

$$$$
CHEMBL4795804
     RDKit          3D

  0  0  0  0  0  0  0  0  0  0999 V3000
M  V30 BEGIN CTAB
M  V30 COUNTS 58 62 0 0 0
M  V30 BEGIN ATOM
M  V30 1 O 3.858521 -4.314509 -1.163380 0
M  V30 2 C 3.691673 -4.065779 -2.391256 0
M  V30 3 N 4.160768 -2.796042 -2.815693 0
M  V30 4 C 4.723800 -2.087762 -1.718156 0
M  V30 5 C 6.046850 -2.129628 -1.314587 0
M  V30 6 N 6.114668 -1.304771 -0.239396 0
M  V30 7 N 4.924565 -0.805439 -0.013754 0
M  V30 8 C 4.008897 -1.246287 -0.892181 0
M  V30 9 C 2.600493 -0.869021 -0.898840 0
M  V30 10 N 1.988557 -0.024817 -0.033306 0
M  V30 11 C 0.687090 0.072490 -0.360719 0
M  V30 12 C -0.269784 0.900675 0.365243 0
M  V30 13 C 0.168511 1.631267 1.450686 0
M  V30 14 C -0.673520 2.437611 2.189483 0
M  V30 15 C -2.005949 2.526231 1.841497 0
M  V30 16 C -3.097872 3.307855 2.471501 0
M  V30 17 N -3.752273 2.496543 3.457423 0
M  V30 18 C -2.933415 2.019755 4.519553 0
M  V30 19 C -3.682315 0.940725 5.250411 0
M  V30 20 C -5.158223 0.919403 5.055579 0
M  V30 21 C -5.781984 2.191798 4.623720 0
M  V30 22 C -4.834565 3.230246 4.127319 0
M  V30 23 C -2.435868 1.779552 0.738194 0
M  V30 24 C -1.597048 0.968789 -0.007495 0
M  V30 25 C 0.444028 -0.722247 -1.459841 0
M  V30 26 N 1.649833 -1.282145 -1.756260 0
M  V30 27 C 3.054364 -5.069057 -3.235224 0
M  V30 28 C 2.675240 -6.235076 -2.609099 0
M  V30 29 C 2.063119 -7.205350 -3.406131 0
M  V30 30 C 1.862051 -6.976056 -4.753953 0
M  V30 31 C 2.248995 -5.802594 -5.360129 0
M  V30 32 Cl 1.972626 -5.553165 -7.082090 0
M  V30 33 C 2.856920 -4.833439 -4.579497 0
M  V30 34 H 4.037964 -2.559656 -3.825016 0
M  V30 35 H 6.837926 -2.719631 -1.793793 0
M  V30 36 H 7.007044 -1.150135 0.266022 0
M  V30 37 H 1.191704 1.613056 1.781758 0
M  V30 38 H -0.415277 3.036676 3.039184 0
M  V30 39 H -3.776492 3.735197 1.729137 0
M  V30 40 H -2.683827 4.192272 3.039213 0
M  V30 41 H -2.706440 2.868643 5.230709 0
M  V30 42 H -1.957374 1.639166 4.196686 0
M  V30 43 H -3.220441 -0.031522 4.979862 0
M  V30 44 H -3.465578 1.060932 6.336568 0
M  V30 45 H -5.685393 0.545301 5.958110 0
M  V30 46 H -5.370826 0.147026 4.257588 0
M  V30 47 H -6.358960 2.674744 5.465459 0
M  V30 48 H -6.550691 2.022822 3.837284 0
M  V30 49 H -5.332760 3.860219 3.366413 0
M  V30 50 H -4.343343 3.827010 4.921139 0
M  V30 51 H -3.470300 1.773977 0.372769 0
M  V30 52 H -1.922081 0.400162 -0.846923 0
M  V30 53 H -0.493704 -0.873365 -1.978161 0
M  V30 54 H 1.738487 -1.931859 -2.555357 0
M  V30 55 H 2.823833 -6.434562 -1.553636 0
M  V30 56 H 1.744066 -8.146720 -2.958569 0
M  V30 57 H 1.381602 -7.770797 -5.314037 0
M  V30 58 H 3.156718 -3.916559 -5.064769 0
M  V30 END ATOM
M  V30 BEGIN BOND
M  V30 1 2 1 2
M  V30 2 1 2 3
M  V30 3 1 3 4
M  V30 4 2 4 5
M  V30 5 1 5 6
M  V30 6 1 6 7
M  V30 7 2 7 8
M  V30 8 1 8 9
M  V30 9 2 9 10
M  V30 10 1 10 11
M  V30 11 1 11 12
M  V30 12 2 12 13
M  V30 13 1 13 14
M  V30 14 2 14 15
M  V30 15 1 15 16
M  V30 16 1 16 17
M  V30 17 1 17 18
M  V30 18 1 18 19
M  V30 19 1 19 20
M  V30 20 1 20 21
M  V30 21 1 21 22
M  V30 22 1 15 23
M  V30 23 2 23 24
M  V30 24 2 11 25
M  V30 25 1 25 26
M  V30 26 1 2 27
M  V30 27 2 27 28
M  V30 28 1 28 29
M  V30 29 2 29 30
M  V30 30 1 30 31
M  V30 31 1 31 32
M  V30 32 2 31 33
M  V30 33 1 8 4
M  V30 34 1 26 9
M  V30 35 1 33 27
M  V30 36 1 24 12
M  V30 37 1 22 17
M  V30 38 1 3 34
M  V30 39 1 5 35
M  V30 40 1 6 36
M  V30 41 1 13 37
M  V30 42 1 14 38
M  V30 43 1 16 39
M  V30 44 1 16 40
M  V30 45 1 18 41
M  V30 46 1 18 42
M  V30 47 1 19 43
M  V30 48 1 19 44
M  V30 49 1 20 45
M  V30 50 1 20 46
M  V30 51 1 21 47
M  V30 52 1 21 48
M  V30 53 1 22 49
M  V30 54 1 22 50
M  V30 55 1 23 51
M  V30 56 1 24 52
M  V30 57 1 25 53
M  V30 58 1 26 54
M  V30 59 1 28 55
M  V30 60 1 29 56
M  V30 61 1 30 57
M  V30 62 1 33 58
M  V30 END BOND
M  V30 END CTAB
M  END
>  <Dataset>  (178) 
ChEMBL_Kinases

>  <Ligand_Instance>  (178) 
nan

>  <PDB_ID>  (178) 
nan

>  <Standardized_SMILES>  (178) 
O=C(Nc1c[nH]nc1-c1nc(-c2ccc(CN3CCCCC3)cc2)c[nH]1)c1cccc(Cl)c1

>  <Name>  (178) 
nan

>  <Pocket>  (178) 
nan

>  <ATP_Site>  (178) 
nan

>  <Peripheral>  (178) 
nan

>  <Num_H_Atoms_ProtBoundConf>  (178) 
nan

>  <Num_Resolved_Atoms>  (178) 
nan

>  <Num_Not_Resolved_Atoms>  (178) 
nan

$$$$
CHEMBL4795876
     RDKit          3D

  0  0  0  0  0  0  0  0  0  0999 V3000
M  V30 BEGIN CTAB
M  V30 COUNTS 67 71 0 0 0
M  V30 BEGIN ATOM
M  V30 1 N 3.972788 -4.253459 5.814866 0
M  V30 2 C 3.017860 -4.355159 4.777772 0
M  V30 3 O 2.562165 -5.509480 4.677681 0
M  V30 4 C 2.709332 -3.161337 4.004809 0
M  V30 5 S 3.468951 -1.546977 4.282964 0
M  V30 6 C 2.485326 -0.728517 2.885149 0
M  V30 7 C 2.723081 0.743503 2.627706 0
M  V30 8 C 3.634380 1.435781 3.391766 0
M  V30 9 C 3.754399 2.788352 3.052000 0
M  V30 10 N 3.004141 3.313389 2.040636 0
M  V30 11 C 2.136415 2.551600 1.348949 0
M  V30 12 N 1.410942 3.221252 0.317493 0
M  V30 13 C 0.207504 3.747954 0.851920 0
M  V30 14 O -0.455502 3.837211 1.917205 0
M  V30 15 C -0.804541 4.509740 0.079825 0
M  V30 16 C -1.178030 4.153894 -1.305098 0
M  V30 17 C -0.449993 5.418703 -1.022014 0
M  V30 18 C 1.945657 1.188964 1.614068 0
M  V30 19 N 1.787000 -1.676268 2.437741 0
M  V30 20 C 1.867906 -2.876858 2.956997 0
M  V30 21 O 1.140425 -3.981066 2.533277 0
M  V30 22 C 0.240195 -3.864328 1.476364 0
M  V30 23 C -0.471765 -5.127589 1.132369 0
M  V30 24 C -1.449592 -5.018182 -0.019749 0
M  V30 25 C -2.523175 -4.036230 0.255867 0
M  V30 26 C -2.719260 -2.959791 -0.758388 0
M  V30 27 N -1.499191 -2.537963 -1.292143 0
M  V30 28 C -1.045162 -1.219941 -1.104991 0
M  V30 29 C -1.898149 -0.140608 -1.644628 0
M  V30 30 C -2.910564 0.550287 -1.012923 0
M  V30 31 C -3.623038 1.533430 -1.653252 0
M  V30 32 C -3.364827 1.887193 -2.970892 0
M  V30 33 C -2.359828 1.222533 -3.643619 0
M  V30 34 F -2.063491 1.526048 -4.930018 0
M  V30 35 C -1.662479 0.239500 -2.971834 0
M  V30 36 C -0.605885 -3.481828 -1.836027 0
M  V30 37 C -0.755874 -4.884105 -1.340238 0
M  V30 38 H 4.223785 -3.478727 6.440737 0
M  V30 39 H 4.406558 -3.643597 6.552387 0
M  V30 40 H 4.197672 0.973209 4.175091 0
M  V30 41 H 4.459943 3.379366 3.624078 0
M  V30 42 H 1.537050 3.415735 -0.698801 0
M  V30 43 H -1.677939 4.830559 0.705717 0
M  V30 44 H -2.250597 4.198795 -1.627624 0
M  V30 45 H -0.647691 3.280569 -1.750254 0
M  V30 46 H -1.057060 6.351220 -1.177576 0
M  V30 47 H 0.579861 5.518210 -1.417331 0
M  V30 48 H 1.254855 0.616110 1.051434 0
M  V30 49 H 0.797554 -3.427194 0.624333 0
M  V30 50 H -0.502896 -3.093455 1.761070 0
M  V30 51 H 0.313701 -5.894601 0.924229 0
M  V30 52 H -1.036987 -5.517704 2.003287 0
M  V30 53 H -1.925551 -6.040958 -0.042291 0
M  V30 54 H -3.537054 -4.539541 0.344709 0
M  V30 55 H -2.389823 -3.625134 1.300344 0
M  V30 56 H -3.222883 -2.106244 -0.265504 0
M  V30 57 H -3.342178 -3.388118 -1.573159 0
M  V30 58 H -0.031554 -1.155782 -1.602974 0
M  V30 59 H -0.782286 -1.026296 -0.021334 0
M  V30 60 H -3.089765 0.259239 0.008409 0
M  V30 61 H -4.412478 2.055377 -1.123794 0
M  V30 62 H -3.900253 2.652855 -3.510553 0
M  V30 63 H -0.883730 -0.253495 -3.540708 0
M  V30 64 H 0.434798 -3.099460 -1.725426 0
M  V30 65 H -0.755546 -3.450288 -2.957174 0
M  V30 66 H -1.240351 -5.491657 -2.133232 0
M  V30 67 H 0.263486 -5.308857 -1.214923 0
M  V30 END ATOM
M  V30 BEGIN BOND
M  V30 1 1 1 2
M  V30 2 2 2 3
M  V30 3 1 2 4
M  V30 4 1 4 5
M  V30 5 1 5 6
M  V30 6 1 6 7
M  V30 7 2 7 8
M  V30 8 1 8 9
M  V30 9 2 9 10
M  V30 10 1 10 11
M  V30 11 1 11 12
M  V30 12 1 12 13
M  V30 13 2 13 14
M  V30 14 1 13 15
M  V30 15 1 15 16
M  V30 16 1 16 17
M  V30 17 2 11 18
M  V30 18 2 6 19
M  V30 19 1 19 20
M  V30 20 1 20 21
M  V30 21 1 21 22
M  V30 22 1 22 23
M  V30 23 1 23 24
M  V30 24 1 24 25
M  V30 25 1 25 26
M  V30 26 1 26 27
M  V30 27 1 27 28
M  V30 28 1 28 29
M  V30 29 2 29 30
M  V30 30 1 30 31
M  V30 31 2 31 32
M  V30 32 1 32 33
M  V30 33 1 33 34
M  V30 34 2 33 35
M  V30 35 1 27 36
M  V30 36 1 36 37
M  V30 37 2 20 4
M  V30 38 1 37 24
M  V30 39 1 18 7
M  V30 40 1 35 29
M  V30 41 1 17 15
M  V30 42 1 1 38
M  V30 43 1 1 39
M  V30 44 1 8 40
M  V30 45 1 9 41
M  V30 46 1 12 42
M  V30 47 1 15 43
M  V30 48 1 16 44
M  V30 49 1 16 45
M  V30 50 1 17 46
M  V30 51 1 17 47
M  V30 52 1 18 48
M  V30 53 1 22 49
M  V30 54 1 22 50
M  V30 55 1 23 51
M  V30 56 1 23 52
M  V30 57 1 24 53
M  V30 58 1 25 54
M  V30 59 1 25 55
M  V30 60 1 26 56
M  V30 61 1 26 57
M  V30 62 1 28 58
M  V30 63 1 28 59
M  V30 64 1 30 60
M  V30 65 1 31 61
M  V30 66 1 32 62
M  V30 67 1 35 63
M  V30 68 1 36 64
M  V30 69 1 36 65
M  V30 70 1 37 66
M  V30 71 1 37 67
M  V30 END BOND
M  V30 END CTAB
M  END
>  <Dataset>  (179) 
ChEMBL_Kinases

>  <Ligand_Instance>  (179) 
nan

>  <PDB_ID>  (179) 
nan

>  <Standardized_SMILES>  (179) 
NC(=O)c1sc(-c2ccnc(NC(=O)C3CC3)c2)nc1OCCC1CCN(Cc2cccc(F)c2)CC1

>  <Name>  (179) 
nan

>  <Pocket>  (179) 
nan

>  <ATP_Site>  (179) 
nan

>  <Peripheral>  (179) 
nan

>  <Num_H_Atoms_ProtBoundConf>  (179) 
nan

>  <Num_Resolved_Atoms>  (179) 
nan

>  <Num_Not_Resolved_Atoms>  (179) 
nan

$$$$
CHEMBL4796509
     RDKit          3D

  0  0  0  0  0  0  0  0  0  0999 V3000
M  V30 BEGIN CTAB
M  V30 COUNTS 63 67 0 0 0
M  V30 BEGIN ATOM
M  V30 1 C 0.518391 6.810588 -1.159267 0
M  V30 2 C 1.352110 6.720820 0.098883 0
M  V30 3 C 0.567887 7.307741 1.264973 0
M  V30 4 C 1.651349 5.290893 0.451332 0
M  V30 5 C 0.545966 4.457741 0.660214 0
M  V30 6 C 0.799910 3.137324 0.986383 0
M  V30 7 C 2.081321 2.639639 1.106459 0
M  V30 8 N 2.231918 1.268763 1.447366 0
M  V30 9 C 2.325041 0.135874 0.629839 0
M  V30 10 O 2.287666 0.156464 -0.616873 0
M  V30 11 N 2.465944 -1.024571 1.401764 0
M  V30 12 C 2.591875 -2.373298 0.970665 0
M  V30 13 C 3.738936 -3.044041 0.691476 0
M  V30 14 C 3.727019 -4.372890 0.277602 0
M  V30 15 C 2.533137 -5.059477 0.136146 0
M  V30 16 C 1.334232 -4.402287 0.414221 0
M  V30 17 N 0.051100 -5.039054 0.296058 0
M  V30 18 C -1.188165 -4.353379 0.538674 0
M  V30 19 N -1.800107 -4.258290 1.726811 0
M  V30 20 C -2.977949 -3.579034 1.831548 0
M  V30 21 N -3.536820 -2.998922 0.747778 0
M  V30 22 C -2.916950 -3.094368 -0.459651 0
M  V30 23 C -3.517600 -2.486465 -1.560908 0
M  V30 24 C -2.888502 -2.580493 -2.803389 0
M  V30 25 C -3.548587 -1.932643 -3.930670 0
M  V30 26 C -2.987015 -1.347087 -5.069314 0
M  V30 27 N -3.942496 -0.857293 -5.875504 0
M  V30 28 N -5.105557 -1.100768 -5.306539 0
M  V30 29 C -6.472803 -0.816581 -5.690592 0
M  V30 30 C -4.917923 -1.749620 -4.127929 0
M  V30 31 C -1.694906 -3.255113 -2.969365 0
M  V30 32 C -1.099894 -3.860472 -1.864267 0
M  V30 33 C -1.706610 -3.781255 -0.616141 0
M  V30 34 C 1.387059 -3.070436 0.826502 0
M  V30 35 C 3.131108 3.507828 0.888985 0
M  V30 36 C 2.969516 4.838278 0.560072 0
M  V30 37 H 1.195301 6.707090 -2.025713 0
M  V30 38 H -0.299535 6.066654 -1.131456 0
M  V30 39 H 0.079332 7.815528 -1.177171 0
M  V30 40 H 2.293493 7.257372 -0.036997 0
M  V30 41 H 0.073356 6.479125 1.851934 0
M  V30 42 H -0.234716 7.964789 0.910154 0
M  V30 43 H 1.216744 7.883818 1.946441 0
M  V30 44 H -0.444643 4.864010 0.562049 0
M  V30 45 H -0.069950 2.503437 1.145344 0
M  V30 46 H 2.254207 1.342110 2.487343 0
M  V30 47 H 2.506300 -1.131959 2.438310 0
M  V30 48 H 4.665518 -2.486318 0.809193 0
M  V30 49 H 4.666015 -4.883970 0.060883 0
M  V30 50 H 2.488579 -6.107964 -0.188357 0
M  V30 51 H 0.026557 -6.045543 0.021136 0
M  V30 52 H -3.389985 -3.562904 2.842972 0
M  V30 53 H -4.461197 -1.941597 -1.479754 0
M  V30 54 H -1.906044 -1.334550 -5.203167 0
M  V30 55 H -6.493654 0.004780 -6.430164 0
M  V30 56 H -6.931058 -1.694732 -6.222941 0
M  V30 57 H -7.114448 -0.529723 -4.853770 0
M  V30 58 H -5.617067 -2.117418 -3.377002 0
M  V30 59 H -1.202638 -3.327302 -3.947832 0
M  V30 60 H -0.156352 -4.407062 -1.938011 0
M  V30 61 H 0.428020 -2.576805 1.038829 0
M  V30 62 H 4.140962 3.131409 0.979465 0
M  V30 63 H 3.799510 5.509149 0.391972 0
M  V30 END ATOM
M  V30 BEGIN BOND
M  V30 1 1 1 2
M  V30 2 1 2 3
M  V30 3 1 2 4
M  V30 4 2 4 5
M  V30 5 1 5 6
M  V30 6 2 6 7
M  V30 7 1 7 8
M  V30 8 1 8 9
M  V30 9 2 9 10
M  V30 10 1 9 11
M  V30 11 1 11 12
M  V30 12 2 12 13
M  V30 13 1 13 14
M  V30 14 2 14 15
M  V30 15 1 15 16
M  V30 16 1 16 17
M  V30 17 1 17 18
M  V30 18 2 18 19
M  V30 19 1 19 20
M  V30 20 2 20 21
M  V30 21 1 21 22
M  V30 22 2 22 23
M  V30 23 1 23 24
M  V30 24 1 24 25
M  V30 25 1 25 26
M  V30 26 2 26 27
M  V30 27 1 27 28
M  V30 28 1 28 29
M  V30 29 1 28 30
M  V30 30 2 24 31
M  V30 31 1 31 32
M  V30 32 2 32 33
M  V30 33 2 16 34
M  V30 34 1 7 35
M  V30 35 2 35 36
M  V30 36 1 36 4
M  V30 37 1 34 12
M  V30 38 1 33 18
M  V30 39 1 33 22
M  V30 40 2 30 25
M  V30 41 1 1 37
M  V30 42 1 1 38
M  V30 43 1 1 39
M  V30 44 1 2 40
M  V30 45 1 3 41
M  V30 46 1 3 42
M  V30 47 1 3 43
M  V30 48 1 5 44
M  V30 49 1 6 45
M  V30 50 1 8 46
M  V30 51 1 11 47
M  V30 52 1 13 48
M  V30 53 1 14 49
M  V30 54 1 15 50
M  V30 55 1 17 51
M  V30 56 1 20 52
M  V30 57 1 23 53
M  V30 58 1 26 54
M  V30 59 1 29 55
M  V30 60 1 29 56
M  V30 61 1 29 57
M  V30 62 1 30 58
M  V30 63 1 31 59
M  V30 64 1 32 60
M  V30 65 1 34 61
M  V30 66 1 35 62
M  V30 67 1 36 63
M  V30 END BOND
M  V30 END CTAB
M  END
>  <Dataset>  (180) 
ChEMBL_Kinases

>  <Ligand_Instance>  (180) 
nan

>  <PDB_ID>  (180) 
nan

>  <Standardized_SMILES>  (180) 
CC(C)c1ccc(NC(=O)Nc2cccc(Nc3ncnc4cc(-c5cnn(C)c5)ccc34)c2)cc1

>  <Name>  (180) 
nan

>  <Pocket>  (180) 
nan

>  <ATP_Site>  (180) 
nan

>  <Peripheral>  (180) 
nan

>  <Num_H_Atoms_ProtBoundConf>  (180) 
nan

>  <Num_Resolved_Atoms>  (180) 
nan

>  <Num_Not_Resolved_Atoms>  (180) 
nan

$$$$
CHEMBL4796001
     RDKit          3D

  0  0  0  0  0  0  0  0  0  0999 V3000
M  V30 BEGIN CTAB
M  V30 COUNTS 50 53 0 0 0
M  V30 BEGIN ATOM
M  V30 1 O 2.465339 0.629491 1.071567 0
M  V30 2 C 1.683213 1.418681 0.460583 0
M  V30 3 C 1.723544 2.645581 1.277562 0
M  V30 4 N 2.580245 2.540773 2.414289 0
M  V30 5 C 3.962995 2.457960 2.122407 0
M  V30 6 C 4.780447 1.532272 2.952275 0
M  V30 7 O 4.276003 1.563310 4.249045 0
M  V30 8 C 3.035459 0.920185 4.229996 0
M  V30 9 C 2.075253 1.800590 3.509286 0
M  V30 10 N 0.966510 1.130568 -0.727429 0
M  V30 11 C 1.298855 -0.240954 -1.114172 0
M  V30 12 C 0.542531 -0.542224 -2.380319 0
M  V30 13 C -0.923501 -0.485640 -2.305817 0
M  V30 14 N -1.613207 -1.359460 -1.427907 0
M  V30 15 C -1.990729 -1.157036 -0.151820 0
M  V30 16 O -1.707139 -0.040232 0.342167 0
M  V30 17 C -2.654554 -2.061595 0.645831 0
M  V30 18 C -2.998725 -1.754438 1.944732 0
M  V30 19 C -3.673928 -2.730597 2.686465 0
M  V30 20 F -4.029073 -2.459950 3.974034 0
M  V30 21 C -3.985599 -3.965588 2.130572 0
M  V30 22 C -3.614472 -4.216586 0.821501 0
M  V30 23 C -2.961868 -3.281340 0.095627 0
M  V30 24 N -2.600577 -3.507816 -1.163419 0
M  V30 25 C -2.776224 -4.591837 -1.917491 0
M  V30 26 S -3.460108 -6.041998 -1.686616 0
M  V30 27 N -2.237179 -4.344402 -3.120037 0
M  V30 28 N -1.735027 -3.127217 -3.114532 0
M  V30 29 C -1.954534 -2.593725 -1.900590 0
M  V30 30 H 2.107714 3.526390 0.683654 0
M  V30 31 H 0.717469 2.950410 1.612752 0
M  V30 32 H 4.111609 2.285957 1.031660 0
M  V30 33 H 4.389929 3.492028 2.291407 0
M  V30 34 H 4.750817 0.480421 2.587665 0
M  V30 35 H 5.824428 1.914542 2.992569 0
M  V30 36 H 3.182035 -0.019818 3.655833 0
M  V30 37 H 2.723885 0.760136 5.267525 0
M  V30 38 H 1.645826 2.511642 4.275168 0
M  V30 39 H 1.191688 1.211882 3.134560 0
M  V30 40 H 0.411541 1.952204 -0.996265 0
M  V30 41 H 2.392446 -0.237883 -1.324781 0
M  V30 42 H 1.049690 -0.942992 -0.292665 0
M  V30 43 H 0.840581 0.304757 -3.075243 0
M  V30 44 H 0.950611 -1.429439 -2.913947 0
M  V30 45 H -1.192231 0.564439 -1.982509 0
M  V30 46 H -1.342769 -0.531831 -3.351822 0
M  V30 47 H -2.762129 -0.803695 2.382066 0
M  V30 48 H -4.518736 -4.681691 2.776701 0
M  V30 49 H -3.910234 -5.195669 0.515724 0
M  V30 50 H -2.136596 -4.890005 -4.018575 0
M  V30 END ATOM
M  V30 BEGIN BOND
M  V30 1 2 1 2
M  V30 2 1 2 3
M  V30 3 1 3 4
M  V30 4 1 4 5
M  V30 5 1 5 6
M  V30 6 1 6 7
M  V30 7 1 7 8
M  V30 8 1 8 9
M  V30 9 1 2 10
M  V30 10 1 10 11
M  V30 11 1 11 12
M  V30 12 1 12 13
M  V30 13 1 13 14
M  V30 14 1 14 15
M  V30 15 2 15 16
M  V30 16 1 15 17
M  V30 17 2 17 18
M  V30 18 1 18 19
M  V30 19 1 19 20
M  V30 20 2 19 21
M  V30 21 1 21 22
M  V30 22 2 22 23
M  V30 23 1 23 24
M  V30 24 1 24 25
M  V30 25 2 25 26
M  V30 26 1 25 27
M  V30 27 1 27 28
M  V30 28 2 28 29
M  V30 29 1 9 4
M  V30 30 1 29 14
M  V30 31 1 23 17
M  V30 32 1 29 24
M  V30 33 1 3 30
M  V30 34 1 3 31
M  V30 35 1 5 32
M  V30 36 1 5 33
M  V30 37 1 6 34
M  V30 38 1 6 35
M  V30 39 1 8 36
M  V30 40 1 8 37
M  V30 41 1 9 38
M  V30 42 1 9 39
M  V30 43 1 10 40
M  V30 44 1 11 41
M  V30 45 1 11 42
M  V30 46 1 12 43
M  V30 47 1 12 44
M  V30 48 1 13 45
M  V30 49 1 13 46
M  V30 50 1 18 47
M  V30 51 1 21 48
M  V30 52 1 22 49
M  V30 53 1 27 50
M  V30 END BOND
M  V30 END CTAB
M  END
>  <Dataset>  (181) 
ChEMBL_Kinases

>  <Ligand_Instance>  (181) 
nan

>  <PDB_ID>  (181) 
nan

>  <Standardized_SMILES>  (181) 
O=C(CN1CCOCC1)NCCCn1c(=O)c2cc(F)ccc2n2c(=S)[nH]nc12

>  <Name>  (181) 
nan

>  <Pocket>  (181) 
nan

>  <ATP_Site>  (181) 
nan

>  <Peripheral>  (181) 
nan

>  <Num_H_Atoms_ProtBoundConf>  (181) 
nan

>  <Num_Resolved_Atoms>  (181) 
nan

>  <Num_Not_Resolved_Atoms>  (181) 
nan

$$$$
CHEMBL4796082
     RDKit          3D

  0  0  0  0  0  0  0  0  0  0999 V3000
M  V30 BEGIN CTAB
M  V30 COUNTS 47 51 0 0 0
M  V30 BEGIN ATOM
M  V30 1 O 2.305810 -1.532525 1.195223 0
M  V30 2 C 2.864322 -0.905939 2.106741 0
M  V30 3 N 4.249528 -1.087792 2.338837 0
M  V30 4 C 5.166460 -1.922747 1.657408 0
M  V30 5 C 4.904853 -2.756908 0.598684 0
M  V30 6 C 5.849235 -3.546135 -0.020510 0
M  V30 7 C 7.154225 -3.524561 0.423496 0
M  V30 8 C 7.434444 -2.694268 1.483675 0
M  V30 9 C 6.474394 -1.919348 2.081120 0
M  V30 10 N 2.028529 -0.050272 2.838440 0
M  V30 11 C 0.658872 -0.064152 2.382583 0
M  V30 12 C -0.339301 -0.903939 2.838297 0
M  V30 13 C -1.602170 -0.760189 2.269302 0
M  V30 14 C -1.855144 0.180131 1.289647 0
M  V30 15 C -0.850261 1.022651 0.833636 0
M  V30 16 C 0.400186 0.873794 1.403227 0
M  V30 17 O -0.941531 2.014892 -0.139945 0
M  V30 18 C -1.847371 2.167150 -1.184449 0
M  V30 19 N -1.419773 2.911212 -2.231371 0
M  V30 20 C -2.169313 3.148299 -3.305337 0
M  V30 21 C -3.429945 2.612068 -3.346952 0
M  V30 22 C -3.941428 1.837094 -2.311802 0
M  V30 23 C -3.116470 1.627160 -1.226047 0
M  V30 24 C -3.786712 0.794058 -0.213881 0
M  V30 25 O -5.050675 0.690152 -0.367776 0
M  V30 26 N -3.225252 0.096865 0.899535 0
M  V30 27 C -4.112983 -0.732665 1.658030 0
M  V30 28 C -4.476684 -2.068339 1.551491 0
M  V30 29 C -5.370307 -2.313745 2.562094 0
M  V30 30 O -5.546127 -1.209240 3.243995 0
M  V30 31 C -4.821245 -0.232051 2.750289 0
M  V30 32 H 4.574415 -0.496902 3.133635 0
M  V30 33 H 3.907982 -2.810619 0.216001 0
M  V30 34 H 5.577699 -4.182900 -0.851741 0
M  V30 35 H 7.873025 -4.149429 -0.076019 0
M  V30 36 H 8.435058 -2.642664 1.865110 0
M  V30 37 H 6.773701 -1.278419 2.926140 0
M  V30 38 H 2.449425 0.515945 3.635247 0
M  V30 39 H -0.034771 -1.589654 3.593803 0
M  V30 40 H -2.359882 -1.432973 2.648759 0
M  V30 41 H 1.145599 1.558691 1.008059 0
M  V30 42 H -1.707273 3.756611 -4.067254 0
M  V30 43 H -4.024473 2.823859 -4.243611 0
M  V30 44 H -4.928187 1.426079 -2.360832 0
M  V30 45 H -4.061530 -2.694272 0.771916 0
M  V30 46 H -5.825043 -3.275876 2.725515 0
M  V30 47 H -4.793827 0.777542 3.139190 0
M  V30 END ATOM
M  V30 BEGIN BOND
M  V30 1 2 1 2
M  V30 2 1 2 3
M  V30 3 1 3 4
M  V30 4 2 4 5
M  V30 5 1 5 6
M  V30 6 2 6 7
M  V30 7 1 7 8
M  V30 8 2 8 9
M  V30 9 1 2 10
M  V30 10 1 10 11
M  V30 11 2 11 12
M  V30 12 1 12 13
M  V30 13 2 13 14
M  V30 14 1 14 15
M  V30 15 2 15 16
M  V30 16 1 15 17
M  V30 17 1 17 18
M  V30 18 2 18 19
M  V30 19 1 19 20
M  V30 20 2 20 21
M  V30 21 1 21 22
M  V30 22 2 22 23
M  V30 23 1 23 24
M  V30 24 2 24 25
M  V30 25 1 24 26
M  V30 26 1 26 27
M  V30 27 1 27 28
M  V30 28 2 28 29
M  V30 29 1 29 30
M  V30 30 1 30 31
M  V30 31 1 9 4
M  V30 32 1 16 11
M  V30 33 1 23 18
M  V30 34 2 31 27
M  V30 35 1 26 14
M  V30 36 1 3 32
M  V30 37 1 5 33
M  V30 38 1 6 34
M  V30 39 1 7 35
M  V30 40 1 8 36
M  V30 41 1 9 37
M  V30 42 1 10 38
M  V30 43 1 12 39
M  V30 44 1 13 40
M  V30 45 1 16 41
M  V30 46 1 20 42
M  V30 47 1 21 43
M  V30 48 1 22 44
M  V30 49 1 28 45
M  V30 50 1 29 46
M  V30 51 1 31 47
M  V30 END BOND
M  V30 END CTAB
M  END
>  <Dataset>  (182) 
ChEMBL_Kinases

>  <Ligand_Instance>  (182) 
nan

>  <PDB_ID>  (182) 
nan

>  <Standardized_SMILES>  (182) 
O=C(Nc1ccccc1)Nc1ccc2c(c1)Oc1ncccc1C(=O)N2c1ccoc1

>  <Name>  (182) 
nan

>  <Pocket>  (182) 
nan

>  <ATP_Site>  (182) 
nan

>  <Peripheral>  (182) 
nan

>  <Num_H_Atoms_ProtBoundConf>  (182) 
nan

>  <Num_Resolved_Atoms>  (182) 
nan

>  <Num_Not_Resolved_Atoms>  (182) 
nan

$$$$
CHEMBL4796125
     RDKit          3D

  0  0  0  0  0  0  0  0  0  0999 V3000
M  V30 BEGIN CTAB
M  V30 COUNTS 34 36 0 0 0
M  V30 BEGIN ATOM
M  V30 1 C -2.305602 -6.014975 3.354824 0
M  V30 2 C -1.948418 -4.953202 2.904651 0
M  V30 3 C -1.531746 -3.696737 2.376999 0
M  V30 4 N -0.605799 -3.647636 1.411511 0
M  V30 5 C -0.178647 -2.502980 0.881419 0
M  V30 6 N 0.807096 -2.508870 -0.142032 0
M  V30 7 C 1.396910 -1.419748 -0.836920 0
M  V30 8 C 2.350094 -1.635371 -1.810757 0
M  V30 9 C 2.946994 -0.619221 -2.507520 0
M  V30 10 C 2.609964 0.694489 -2.256634 0
M  V30 11 C 1.662292 0.948751 -1.291442 0
M  V30 12 C 1.330775 2.348823 -1.052846 0
M  V30 13 O 1.912712 3.239433 -1.724731 0
M  V30 14 N 0.381996 2.815915 -0.102466 0
M  V30 15 C 0.267147 4.275934 -0.093517 0
M  V30 16 C 1.096257 -0.092928 -0.624811 0
M  V30 17 N -0.741566 -1.396172 1.382572 0
M  V30 18 C -1.671002 -1.346342 2.344216 0
M  V30 19 N -2.347421 -0.367381 2.972920 0
M  V30 20 C -3.174327 -0.941762 3.875186 0
M  V30 21 N -3.001456 -2.276446 3.796370 0
M  V30 22 C -2.091309 -2.545008 2.871272 0
M  V30 23 H -2.620502 -6.942478 3.737598 0
M  V30 24 H 1.160733 -3.468551 -0.436890 0
M  V30 25 H 2.658255 -2.662154 -2.053327 0
M  V30 26 H 3.687668 -0.859237 -3.258780 0
M  V30 27 H 3.115173 1.436255 -2.837432 0
M  V30 28 H -0.117306 2.122371 0.468685 0
M  V30 29 H -0.643867 4.493856 0.526167 0
M  V30 30 H 1.140663 4.756519 0.381351 0
M  V30 31 H 0.047818 4.678237 -1.088874 0
M  V30 32 H 0.377374 0.184103 0.101026 0
M  V30 33 H -2.176513 0.647211 2.718821 0
M  V30 34 H -3.796046 -0.288183 4.471633 0
M  V30 END ATOM
M  V30 BEGIN BOND
M  V30 1 3 1 2
M  V30 2 1 2 3
M  V30 3 2 3 4
M  V30 4 1 4 5
M  V30 5 1 5 6
M  V30 6 1 6 7
M  V30 7 2 7 8
M  V30 8 1 8 9
M  V30 9 2 9 10
M  V30 10 1 10 11
M  V30 11 1 11 12
M  V30 12 2 12 13
M  V30 13 1 12 14
M  V30 14 1 14 15
M  V30 15 2 11 16
M  V30 16 2 5 17
M  V30 17 1 17 18
M  V30 18 1 18 19
M  V30 19 1 19 20
M  V30 20 2 20 21
M  V30 21 1 21 22
M  V30 22 1 22 3
M  V30 23 1 16 7
M  V30 24 2 22 18
M  V30 25 1 1 23
M  V30 26 1 6 24
M  V30 27 1 8 25
M  V30 28 1 9 26
M  V30 29 1 10 27
M  V30 30 1 14 28
M  V30 31 1 15 29
M  V30 32 1 15 30
M  V30 33 1 15 31
M  V30 34 1 16 32
M  V30 35 1 19 33
M  V30 36 1 20 34
M  V30 END BOND
M  V30 END CTAB
M  END
>  <Dataset>  (183) 
ChEMBL_Kinases

>  <Ligand_Instance>  (183) 
nan

>  <PDB_ID>  (183) 
nan

>  <Standardized_SMILES>  (183) 
C#Cc1nc(Nc2cccc(C(=O)NC)c2)nc2[nH]cnc12

>  <Name>  (183) 
nan

>  <Pocket>  (183) 
nan

>  <ATP_Site>  (183) 
nan

>  <Peripheral>  (183) 
nan

>  <Num_H_Atoms_ProtBoundConf>  (183) 
nan

>  <Num_Resolved_Atoms>  (183) 
nan

>  <Num_Not_Resolved_Atoms>  (183) 
nan

$$$$
CHEMBL4796127
     RDKit          3D

  0  0  0  0  0  0  0  0  0  0999 V3000
M  V30 BEGIN CTAB
M  V30 COUNTS 88 93 0 0 0
M  V30 BEGIN ATOM
M  V30 1 C 5.394645 -3.593915 3.127220 0
M  V30 2 C 4.817891 -2.468005 2.256970 0
M  V30 3 C 3.424891 -2.878503 1.855814 0 CFG=2
M  V30 4 C 3.408624 -4.133927 1.097995 0
M  V30 5 N 4.044449 -5.226972 1.587739 0
M  V30 6 N 3.888667 -6.218984 0.724956 0
M  V30 7 C 3.161916 -5.790701 -0.318813 0
M  V30 8 N 2.871334 -4.500888 -0.076638 0
M  V30 9 C 2.164913 -3.443526 -0.703923 0
M  V30 10 C 1.574794 -3.743205 -1.920591 0
M  V30 11 N 0.884263 -2.747219 -2.541998 0
M  V30 12 C 0.798297 -1.521402 -1.963538 0
M  V30 13 N 0.066254 -0.450848 -2.592734 0
M  V30 14 C -1.312168 -0.284475 -2.209605 0
M  V30 15 C -1.885972 -1.120422 -1.252730 0
M  V30 16 C -3.174821 -1.062912 -0.798820 0
M  V30 17 C -3.988984 -0.092962 -1.330148 0
M  V30 18 C -5.375061 0.064435 -0.918619 0
M  V30 19 O -6.115518 0.945845 -1.422342 0
M  V30 20 N -5.974442 -0.756506 0.066848 0
M  V30 21 C -7.264404 -0.809239 0.631438 0
M  V30 22 C -7.373636 -0.561749 2.097072 0
M  V30 23 C -7.010098 -1.717183 2.971481 0
M  V30 24 N -6.566522 -2.832817 2.169760 0
M  V30 25 C -5.994940 -3.905405 2.921578 0
M  V30 26 C -7.624686 -3.208474 1.283761 0
M  V30 27 C -7.922582 -2.116153 0.296995 0
M  V30 28 C -3.472710 0.758557 -2.278404 0
M  V30 29 C -2.163681 0.680804 -2.722431 0
M  V30 30 O -1.645969 1.542326 -3.680045 0
M  V30 31 C -2.505741 2.527876 -4.207153 0
M  V30 32 N 1.398244 -1.315425 -0.786206 0
M  V30 33 C 2.098359 -2.216578 -0.090850 0
M  V30 34 N 2.679592 -1.855581 1.161108 0
M  V30 35 C 2.554691 -0.564264 1.763871 0
M  V30 36 C 3.102532 0.528926 0.966970 0
M  V30 37 C 2.412354 1.366699 0.117942 0
M  V30 38 C 2.923964 2.377328 -0.633253 0
M  V30 39 C 4.278364 2.634047 -0.574269 0
M  V30 40 C 4.879344 3.716536 -1.369905 0
M  V30 41 C 6.372334 3.823853 -1.114797 0
M  V30 42 C 4.261193 5.043176 -0.957955 0
M  V30 43 C 4.691646 3.505066 -2.859323 0
M  V30 44 C 5.044129 1.836672 0.256806 0
M  V30 45 C 4.449953 0.829595 0.987725 0
M  V30 46 H 6.054967 -4.251337 2.552042 0
M  V30 47 H 4.570479 -4.144756 3.639463 0
M  V30 48 H 5.999402 -3.166517 3.970349 0
M  V30 49 H 4.735103 -1.606879 2.949057 0
M  V30 50 H 5.470562 -2.272500 1.406512 0
M  V30 51 H 2.862070 -3.062019 2.814871 0
M  V30 52 H 2.830103 -6.307354 -1.216460 0
M  V30 53 H 1.661400 -4.719757 -2.350069 0
M  V30 54 H 0.403032 0.224703 -3.293250 0
M  V30 55 H -1.244577 -1.902548 -0.817547 0
M  V30 56 H -3.515755 -1.754221 -0.060107 0
M  V30 57 H -5.440590 -1.516068 0.542833 0
M  V30 58 H -7.872901 -0.007582 0.135983 0
M  V30 59 H -6.937628 0.412730 2.401033 0
M  V30 60 H -8.479808 -0.392420 2.270450 0
M  V30 61 H -7.864089 -2.117106 3.582352 0
M  V30 62 H -6.242989 -1.437993 3.751666 0
M  V30 63 H -5.268078 -3.429852 3.638793 0
M  V30 64 H -5.411065 -4.541623 2.244731 0
M  V30 65 H -6.708110 -4.461239 3.563889 0
M  V30 66 H -8.549342 -3.467220 1.859562 0
M  V30 67 H -7.318600 -4.156919 0.762806 0
M  V30 68 H -9.031004 -2.000597 0.198242 0
M  V30 69 H -7.567670 -2.462012 -0.703772 0
M  V30 70 H -4.081785 1.552745 -2.735837 0
M  V30 71 H -2.768484 3.299940 -3.433311 0
M  V30 72 H -3.426175 2.089470 -4.613098 0
M  V30 73 H -2.020404 3.082467 -5.049124 0
M  V30 74 H 1.481666 -0.322140 2.007041 0
M  V30 75 H 3.050792 -0.560082 2.754916 0
M  V30 76 H 1.336189 1.256514 0.018677 0
M  V30 77 H 2.332494 3.004191 -1.284713 0
M  V30 78 H 6.597445 4.021909 -0.045070 0
M  V30 79 H 6.910990 2.950951 -1.526216 0
M  V30 80 H 6.691154 4.757640 -1.644818 0
M  V30 81 H 4.426140 5.762154 -1.791073 0
M  V30 82 H 4.805359 5.401600 -0.070364 0
M  V30 83 H 3.179363 4.909119 -0.748487 0
M  V30 84 H 4.164782 2.553755 -3.044998 0
M  V30 85 H 4.097045 4.363716 -3.278758 0
M  V30 86 H 5.664268 3.458831 -3.392560 0
M  V30 87 H 6.097813 2.072156 0.272839 0
M  V30 88 H 5.175272 0.300791 1.587214 0
M  V30 END ATOM
M  V30 BEGIN BOND
M  V30 1 1 1 2
M  V30 2 1 2 3
M  V30 3 1 3 4
M  V30 4 2 4 5
M  V30 5 1 5 6
M  V30 6 2 6 7
M  V30 7 1 7 8
M  V30 8 1 8 9
M  V30 9 2 9 10
M  V30 10 1 10 11
M  V30 11 2 11 12
M  V30 12 1 12 13
M  V30 13 1 13 14
M  V30 14 2 14 15
M  V30 15 1 15 16
M  V30 16 2 16 17
M  V30 17 1 17 18
M  V30 18 2 18 19
M  V30 19 1 18 20
M  V30 20 1 20 21
M  V30 21 1 21 22
M  V30 22 1 22 23
M  V30 23 1 23 24
M  V30 24 1 24 25
M  V30 25 1 24 26
M  V30 26 1 26 27
M  V30 27 1 17 28
M  V30 28 2 28 29
M  V30 29 1 29 30
M  V30 30 1 30 31
M  V30 31 1 12 32
M  V30 32 2 32 33
M  V30 33 1 33 34
M  V30 34 1 34 35
M  V30 35 1 35 36
M  V30 36 2 36 37
M  V30 37 1 37 38
M  V30 38 2 38 39
M  V30 39 1 39 40
M  V30 40 1 40 41
M  V30 41 1 40 42
M  V30 42 1 40 43
M  V30 43 1 39 44
M  V30 44 2 44 45
M  V30 45 1 34 3
M  V30 46 1 45 36
M  V30 47 1 8 4
M  V30 48 1 33 9
M  V30 49 1 29 14
M  V30 50 1 27 21
M  V30 51 1 1 46
M  V30 52 1 1 47
M  V30 53 1 1 48
M  V30 54 1 2 49
M  V30 55 1 2 50
M  V30 56 1 3 51 CFG=1
M  V30 57 1 7 52
M  V30 58 1 10 53
M  V30 59 1 13 54
M  V30 60 1 15 55
M  V30 61 1 16 56
M  V30 62 1 20 57
M  V30 63 1 21 58
M  V30 64 1 22 59
M  V30 65 1 22 60
M  V30 66 1 23 61
M  V30 67 1 23 62
M  V30 68 1 25 63
M  V30 69 1 25 64
M  V30 70 1 25 65
M  V30 71 1 26 66
M  V30 72 1 26 67
M  V30 73 1 27 68
M  V30 74 1 27 69
M  V30 75 1 28 70
M  V30 76 1 31 71
M  V30 77 1 31 72
M  V30 78 1 31 73
M  V30 79 1 35 74
M  V30 80 1 35 75
M  V30 81 1 37 76
M  V30 82 1 38 77
M  V30 83 1 41 78
M  V30 84 1 41 79
M  V30 85 1 41 80
M  V30 86 1 42 81
M  V30 87 1 42 82
M  V30 88 1 42 83
M  V30 89 1 43 84
M  V30 90 1 43 85
M  V30 91 1 43 86
M  V30 92 1 44 87
M  V30 93 1 45 88
M  V30 END BOND
M  V30 END CTAB
M  END
>  <Dataset>  (184) 
ChEMBL_Kinases

>  <Ligand_Instance>  (184) 
nan

>  <PDB_ID>  (184) 
nan

>  <Standardized_SMILES>  (184) 
CC[C@@H]1c2nncn2-c2cnc(Nc3ccc(C(=O)NC4CCN(C)CC4)cc3OC)nc2N1Cc1ccc(C(C)(C)C)cc1

>  <Name>  (184) 
nan

>  <Pocket>  (184) 
nan

>  <ATP_Site>  (184) 
nan

>  <Peripheral>  (184) 
nan

>  <Num_H_Atoms_ProtBoundConf>  (184) 
nan

>  <Num_Resolved_Atoms>  (184) 
nan

>  <Num_Not_Resolved_Atoms>  (184) 
nan

$$$$
CHEMBL4796219
     RDKit          3D

  0  0  0  0  0  0  0  0  0  0999 V3000
M  V30 BEGIN CTAB
M  V30 COUNTS 39 41 0 0 0
M  V30 BEGIN ATOM
M  V30 1 C -0.175345 -2.849589 -0.614560 0
M  V30 2 C 1.008061 -3.386243 0.100571 0
M  V30 3 C 0.898527 -3.007856 1.567545 0
M  V30 4 N 2.278343 -3.052312 -0.481346 0
M  V30 5 C 3.358443 -3.858734 -0.516559 0
M  V30 6 N 4.388576 -3.246920 -1.132198 0
M  V30 7 N 3.981219 -2.044448 -1.497561 0
M  V30 8 C 2.706443 -1.928373 -1.103759 0
M  V30 9 C 1.805678 -0.779165 -1.275312 0
M  V30 10 C 1.176540 -0.564250 -2.505677 0
M  V30 11 C 0.330723 0.519975 -2.657068 0
M  V30 12 C 0.085179 1.403578 -1.626178 0
M  V30 13 C 0.731649 1.147618 -0.428291 0
M  V30 14 N 0.583452 1.965842 0.732295 0
M  V30 15 C -0.461509 1.663905 1.678969 0
M  V30 16 O -1.185194 0.693131 1.426724 0
M  V30 17 N -0.646673 2.436285 2.831127 0
M  V30 18 C -1.656203 2.191206 3.801269 0
M  V30 19 C -2.625186 1.212092 3.845729 0
M  V30 20 C -3.412193 1.340369 4.982695 0
M  V30 21 N -2.893776 2.408525 5.607754 0
M  V30 22 N -1.877923 2.898842 4.922027 0
M  V30 23 N 1.571979 0.086800 -0.246940 0
M  V30 24 H -1.062640 -3.473050 -0.294334 0
M  V30 25 H -0.474838 -1.820508 -0.359534 0
M  V30 26 H -0.116471 -3.042131 -1.717038 0
M  V30 27 H 0.901918 -4.510184 0.092677 0
M  V30 28 H 1.723415 -3.440584 2.177352 0
M  V30 29 H 0.797378 -1.918244 1.696213 0
M  V30 30 H -0.068767 -3.464418 1.916787 0
M  V30 31 H 3.400015 -4.858859 -0.109452 0
M  V30 32 H 1.371677 -1.257999 -3.308941 0
M  V30 33 H -0.168587 0.708035 -3.600478 0
M  V30 34 H -0.561712 2.268287 -1.674930 0
M  V30 35 H 1.230455 2.791031 0.906903 0
M  V30 36 H 0.005146 3.237932 2.971645 0
M  V30 37 H -2.775126 0.436263 3.108405 0
M  V30 38 H -4.251162 0.718814 5.290819 0
M  V30 39 H -1.334548 3.734531 5.238762 0
M  V30 END ATOM
M  V30 BEGIN BOND
M  V30 1 1 1 2
M  V30 2 1 2 3
M  V30 3 1 2 4
M  V30 4 1 4 5
M  V30 5 2 5 6
M  V30 6 1 6 7
M  V30 7 2 7 8
M  V30 8 1 8 9
M  V30 9 2 9 10
M  V30 10 1 10 11
M  V30 11 2 11 12
M  V30 12 1 12 13
M  V30 13 1 13 14
M  V30 14 1 14 15
M  V30 15 2 15 16
M  V30 16 1 15 17
M  V30 17 1 17 18
M  V30 18 2 18 19
M  V30 19 1 19 20
M  V30 20 2 20 21
M  V30 21 1 21 22
M  V30 22 2 13 23
M  V30 23 1 8 4
M  V30 24 1 23 9
M  V30 25 1 22 18
M  V30 26 1 1 24
M  V30 27 1 1 25
M  V30 28 1 1 26
M  V30 29 1 2 27
M  V30 30 1 3 28
M  V30 31 1 3 29
M  V30 32 1 3 30
M  V30 33 1 5 31
M  V30 34 1 10 32
M  V30 35 1 11 33
M  V30 36 1 12 34
M  V30 37 1 14 35
M  V30 38 1 17 36
M  V30 39 1 19 37
M  V30 40 1 20 38
M  V30 41 1 22 39
M  V30 END BOND
M  V30 END CTAB
M  END
>  <Dataset>  (185) 
ChEMBL_Kinases

>  <Ligand_Instance>  (185) 
nan

>  <PDB_ID>  (185) 
nan

>  <Standardized_SMILES>  (185) 
CC(C)n1cnnc1-c1cccc(NC(=O)Nc2ccn[nH]2)n1

>  <Name>  (185) 
nan

>  <Pocket>  (185) 
nan

>  <ATP_Site>  (185) 
nan

>  <Peripheral>  (185) 
nan

>  <Num_H_Atoms_ProtBoundConf>  (185) 
nan

>  <Num_Resolved_Atoms>  (185) 
nan

>  <Num_Not_Resolved_Atoms>  (185) 
nan

$$$$
CHEMBL4796257
     RDKit          3D

  0  0  0  0  0  0  0  0  0  0999 V3000
M  V30 BEGIN CTAB
M  V30 COUNTS 66 73 0 0 0
M  V30 BEGIN ATOM
M  V30 1 C 2.874119 -2.056857 3.793253 0
M  V30 2 C 1.810461 -2.227397 2.730904 0 CFG=2
M  V30 3 O 2.039000 -1.355638 1.699580 0
M  V30 4 C 0.919043 -1.136133 0.902227 0 CFG=1
M  V30 5 N 1.261716 -0.676217 -0.427162 0
M  V30 6 C 2.463738 -0.725390 -1.073253 0
M  V30 7 C 3.653576 -1.255598 -0.571756 0
M  V30 8 C 4.836784 -1.258237 -1.320176 0
M  V30 9 C 4.781712 -0.702891 -2.605530 0
M  V30 10 C 3.581254 -0.202333 -3.030200 0
M  V30 11 C 2.405253 -0.178729 -2.336250 0
M  V30 12 C 1.126632 0.221150 -2.477291 0
M  V30 13 C 0.492437 0.823949 -3.512620 0
M  V30 14 C -0.840164 1.162637 -3.478288 0
M  V30 15 C -1.563183 0.873673 -2.334686 0
M  V30 16 C -2.900094 1.082816 -1.998485 0
M  V30 17 C -3.949117 1.646357 -2.682683 0
M  V30 18 C -5.211622 1.747927 -2.138044 0
M  V30 19 C -5.368080 1.251042 -0.861876 0
M  V30 20 C -4.311762 0.689296 -0.186511 0
M  V30 21 C -3.046808 0.584539 -0.725120 0
M  V30 22 N -1.847485 0.109656 -0.345301 0
M  V30 23 C -0.901107 0.251247 -1.269959 0
M  V30 24 C 0.444206 -0.084235 -1.318540 0
M  V30 25 C -1.353199 1.823900 -4.724140 0
M  V30 26 N -0.161119 1.849073 -5.546917 0
M  V30 27 C 0.905082 1.263215 -4.822364 0
M  V30 28 O 1.970489 1.244661 -5.451786 0
M  V30 29 C 0.125560 -2.419469 0.905938 0
M  V30 30 C -0.548526 -2.555600 2.250412 0 CFG=1
M  V30 31 N -0.769644 -3.962893 2.538603 0
M  V30 32 C 0.425091 -1.973677 3.282733 0 CFG=1
M  V30 33 O 0.232143 -2.529440 4.529017 0
M  V30 34 C -0.048460 -1.579075 5.514190 0
M  V30 35 O 0.958532 -1.516525 6.475447 0
M  V30 36 C -1.422795 -1.787843 6.112666 0
M  V30 37 C -2.498333 -0.831256 5.951197 0
M  V30 38 O -1.687375 -0.760195 7.156146 0
M  V30 39 H 2.708357 -2.839780 4.558625 0
M  V30 40 H 3.850471 -2.257059 3.304459 0
M  V30 41 H 2.801546 -1.057311 4.251497 0
M  V30 42 H 1.863375 -3.286044 2.408711 0
M  V30 43 H 0.393931 -0.280317 1.384204 0
M  V30 44 H 3.841318 -1.712605 0.387910 0
M  V30 45 H 5.783370 -1.654569 -0.981550 0
M  V30 46 H 5.694431 -0.694234 -3.208153 0
M  V30 47 H 3.629417 0.197880 -4.012630 0
M  V30 48 H -3.828733 2.036320 -3.683480 0
M  V30 49 H -6.014767 2.197429 -2.704673 0
M  V30 50 H -6.358501 1.325471 -0.422147 0
M  V30 51 H -4.461811 0.306826 0.814213 0
M  V30 52 H -1.795215 -0.300471 0.588724 0
M  V30 53 H -1.727040 2.844998 -4.503278 0
M  V30 54 H -2.085997 1.164163 -5.220875 0
M  V30 55 H -0.306155 2.272105 -6.469460 0
M  V30 56 H -0.667494 -2.437152 0.125274 0
M  V30 57 H 0.812272 -3.240238 0.661051 0
M  V30 58 H -1.513380 -2.039889 2.276810 0
M  V30 59 H 0.071579 -4.444394 2.891769 0
M  V30 60 H -1.549325 -4.070547 3.249904 0
M  V30 61 H 0.307503 -0.883431 3.369945 0
M  V30 62 H -0.035844 -0.601840 4.990122 0
M  V30 63 H 0.793138 -2.155681 7.211344 0
M  V30 64 H -1.655673 -2.770105 6.572370 0
M  V30 65 H -2.339009 0.106427 5.384044 0
M  V30 66 H -3.532937 -1.149764 6.089136 0
M  V30 END ATOM
M  V30 BEGIN BOND
M  V30 1 1 1 2
M  V30 2 1 2 3
M  V30 3 1 3 4
M  V30 4 1 4 5
M  V30 5 1 5 6
M  V30 6 2 6 7
M  V30 7 1 7 8
M  V30 8 2 8 9
M  V30 9 1 9 10
M  V30 10 2 10 11
M  V30 11 1 11 12
M  V30 12 2 12 13
M  V30 13 1 13 14
M  V30 14 2 14 15
M  V30 15 1 15 16
M  V30 16 2 16 17
M  V30 17 1 17 18
M  V30 18 2 18 19
M  V30 19 1 19 20
M  V30 20 2 20 21
M  V30 21 1 21 22
M  V30 22 1 22 23
M  V30 23 2 23 24
M  V30 24 1 14 25
M  V30 25 1 25 26
M  V30 26 1 26 27
M  V30 27 2 27 28
M  V30 28 1 4 29
M  V30 29 1 29 30
M  V30 30 1 30 31
M  V30 31 1 30 32
M  V30 32 1 32 33
M  V30 33 1 33 34
M  V30 34 1 34 35
M  V30 35 1 34 36
M  V30 36 1 36 37
M  V30 37 1 37 38
M  V30 38 1 32 2
M  V30 39 1 38 36
M  V30 40 1 24 5
M  V30 41 1 11 6
M  V30 42 1 24 12
M  V30 43 1 27 13
M  V30 44 1 23 15
M  V30 45 1 21 16
M  V30 46 1 1 39
M  V30 47 1 1 40
M  V30 48 1 1 41
M  V30 49 1 2 42 CFG=3
M  V30 50 1 4 43 CFG=1
M  V30 51 1 7 44
M  V30 52 1 8 45
M  V30 53 1 9 46
M  V30 54 1 10 47
M  V30 55 1 17 48
M  V30 56 1 18 49
M  V30 57 1 19 50
M  V30 58 1 20 51
M  V30 59 1 22 52
M  V30 60 1 25 53
M  V30 61 1 25 54
M  V30 62 1 26 55
M  V30 63 1 29 56
M  V30 64 1 29 57
M  V30 65 1 30 58 CFG=3
M  V30 66 1 31 59
M  V30 67 1 31 60
M  V30 68 1 32 61 CFG=1
M  V30 69 1 34 62
M  V30 70 1 35 63
M  V30 71 1 36 64
M  V30 72 1 37 65
M  V30 73 1 37 66
M  V30 END BOND
M  V30 END CTAB
M  END
>  <Dataset>  (186) 
ChEMBL_Kinases

>  <Ligand_Instance>  (186) 
nan

>  <PDB_ID>  (186) 
nan

>  <Standardized_SMILES>  (186) 
C[C@@H]1O[C@@H](n2c3ccccc3c3c4c(c5c6ccccc6[nH]c5c32)CNC4=O)C[C@@H](N)[C@H]1OC(O)C1CO1

>  <Name>  (186) 
nan

>  <Pocket>  (186) 
nan

>  <ATP_Site>  (186) 
nan

>  <Peripheral>  (186) 
nan

>  <Num_H_Atoms_ProtBoundConf>  (186) 
nan

>  <Num_Resolved_Atoms>  (186) 
nan

>  <Num_Not_Resolved_Atoms>  (186) 
nan

$$$$
CHEMBL4796271
     RDKit          3D

  0  0  0  0  0  0  0  0  0  0999 V3000
M  V30 BEGIN CTAB
M  V30 COUNTS 51 54 0 0 0
M  V30 BEGIN ATOM
M  V30 1 C 2.278814 -2.497306 4.332704 0
M  V30 2 O 2.116367 -1.286583 3.618325 0
M  V30 3 C 2.928608 -0.213856 3.935901 0
M  V30 4 C 3.872301 -0.350514 4.936636 0
M  V30 5 C 4.668693 0.722912 5.235671 0
M  V30 6 C 4.629144 1.952777 4.634615 0
M  V30 7 C 3.671193 2.089374 3.622427 0
M  V30 8 O 3.532861 3.285898 2.941446 0
M  V30 9 C 4.373352 4.361331 3.294624 0
M  V30 10 C 2.836740 1.016513 3.280181 0
M  V30 11 C 1.857955 1.056906 2.215179 0
M  V30 12 O 1.044044 0.075113 2.070275 0
M  V30 13 N 1.547268 1.988637 1.202157 0
M  V30 14 C 0.469108 1.546268 0.395471 0
M  V30 15 C -0.857116 1.908451 0.596115 0
M  V30 16 C -1.844312 1.408431 -0.228362 0
M  V30 17 C -1.573739 0.534340 -1.281724 0
M  V30 18 O -2.566934 0.044087 -2.096805 0
M  V30 19 C -2.909116 -1.294062 -2.199939 0
M  V30 20 C -2.237360 -2.203126 -1.387406 0
M  V30 21 C -2.527467 -3.566515 -1.438359 0
M  V30 22 C -3.502469 -4.019173 -2.311720 0
M  V30 23 C -3.736323 -5.400537 -2.298344 0
M  V30 24 C -4.727348 -5.768753 -3.197115 0
M  V30 25 C -5.454088 -4.975210 -4.041405 0
M  V30 26 C -5.138186 -3.630263 -3.968788 0
M  V30 27 C -4.175239 -3.119664 -3.122936 0
M  V30 28 C -3.870304 -1.759834 -3.058644 0
M  V30 29 Br -4.816375 -0.531721 -4.197502 0
M  V30 30 C -0.243811 0.123257 -1.543934 0
M  V30 31 Cl 0.245331 -0.941462 -2.826110 0
M  V30 32 C 0.650275 0.685061 -0.661399 0
M  V30 33 H 1.503697 -3.242735 4.053109 0
M  V30 34 H 2.187845 -2.307387 5.414637 0
M  V30 35 H 3.319814 -2.901621 4.186864 0
M  V30 36 H 3.961604 -1.291486 5.458782 0
M  V30 37 H 5.394840 0.584162 6.019387 0
M  V30 38 H 5.258870 2.793269 4.873673 0
M  V30 39 H 4.179692 5.231833 2.610784 0
M  V30 40 H 5.440479 4.106693 3.307816 0
M  V30 41 H 4.119232 4.749466 4.322087 0
M  V30 42 H 2.147853 2.835537 1.204107 0
M  V30 43 H -1.096801 2.584226 1.405006 0
M  V30 44 H -2.901235 1.672137 -0.095157 0
M  V30 45 H -1.456709 -1.961789 -0.656681 0
M  V30 46 H -2.003908 -4.286480 -0.801000 0
M  V30 47 H -3.219412 -6.094514 -1.672065 0
M  V30 48 H -4.942584 -6.851451 -3.212696 0
M  V30 49 H -6.194981 -5.419207 -4.684967 0
M  V30 50 H -5.681942 -2.945782 -4.615162 0
M  V30 51 H 1.689479 0.377645 -0.845097 0
M  V30 END ATOM
M  V30 BEGIN BOND
M  V30 1 1 1 2
M  V30 2 1 2 3
M  V30 3 2 3 4
M  V30 4 1 4 5
M  V30 5 2 5 6
M  V30 6 1 6 7
M  V30 7 1 7 8
M  V30 8 1 8 9
M  V30 9 2 7 10
M  V30 10 1 10 11
M  V30 11 2 11 12
M  V30 12 1 11 13
M  V30 13 1 13 14
M  V30 14 2 14 15
M  V30 15 1 15 16
M  V30 16 2 16 17
M  V30 17 1 17 18
M  V30 18 1 18 19
M  V30 19 2 19 20
M  V30 20 1 20 21
M  V30 21 2 21 22
M  V30 22 1 22 23
M  V30 23 2 23 24
M  V30 24 1 24 25
M  V30 25 2 25 26
M  V30 26 1 26 27
M  V30 27 2 27 28
M  V30 28 1 28 29
M  V30 29 1 17 30
M  V30 30 1 30 31
M  V30 31 2 30 32
M  V30 32 1 10 3
M  V30 33 1 32 14
M  V30 34 1 28 19
M  V30 35 1 27 22
M  V30 36 1 1 33
M  V30 37 1 1 34
M  V30 38 1 1 35
M  V30 39 1 4 36
M  V30 40 1 5 37
M  V30 41 1 6 38
M  V30 42 1 9 39
M  V30 43 1 9 40
M  V30 44 1 9 41
M  V30 45 1 13 42
M  V30 46 1 15 43
M  V30 47 1 16 44
M  V30 48 1 20 45
M  V30 49 1 21 46
M  V30 50 1 23 47
M  V30 51 1 24 48
M  V30 52 1 25 49
M  V30 53 1 26 50
M  V30 54 1 32 51
M  V30 END BOND
M  V30 END CTAB
M  END
>  <Dataset>  (187) 
ChEMBL_Kinases

>  <Ligand_Instance>  (187) 
nan

>  <PDB_ID>  (187) 
nan

>  <Standardized_SMILES>  (187) 
COc1cccc(OC)c1C(=O)Nc1ccc(Oc2ccc3ccccc3c2Br)c(Cl)c1

>  <Name>  (187) 
nan

>  <Pocket>  (187) 
nan

>  <ATP_Site>  (187) 
nan

>  <Peripheral>  (187) 
nan

>  <Num_H_Atoms_ProtBoundConf>  (187) 
nan

>  <Num_Resolved_Atoms>  (187) 
nan

>  <Num_Not_Resolved_Atoms>  (187) 
nan

$$$$
CHEMBL4796319
     RDKit          3D

  0  0  0  0  0  0  0  0  0  0999 V3000
M  V30 BEGIN CTAB
M  V30 COUNTS 60 64 0 0 0
M  V30 BEGIN ATOM
M  V30 1 C 6.207542 -1.616275 6.264873 0
M  V30 2 S 6.730188 -0.167833 5.420695 0
M  V30 3 O 7.904823 -0.523444 4.544656 0
M  V30 4 O 7.157055 0.933388 6.347215 0
M  V30 5 C 5.459615 0.367942 4.319159 0
M  V30 6 C 5.421711 -0.094445 3.007869 0
M  V30 7 C 4.461531 0.275779 2.082550 0
M  V30 8 C 3.479403 1.158442 2.482901 0
M  V30 9 C 2.486483 1.523367 1.476832 0
M  V30 10 C 1.178190 1.831585 1.843465 0
M  V30 11 C 0.222915 2.181388 0.891818 0
M  V30 12 C 0.653070 2.199994 -0.401062 0
M  V30 13 C -0.283892 2.546021 -1.361276 0
M  V30 14 N -1.657964 2.883312 -1.111240 0
M  V30 15 C -2.691902 1.906849 -1.100869 0
M  V30 16 C -4.000898 2.264702 -0.857210 0
M  V30 17 C -4.946639 1.261336 -0.864027 0
M  V30 18 C -4.542210 -0.019527 -1.108874 0
M  V30 19 C -3.253114 -0.423083 -1.356234 0
M  V30 20 N -2.805875 -1.740787 -1.612930 0
M  V30 21 C -3.535509 -2.932076 -1.679121 0
M  V30 22 O -4.757119 -2.921059 -1.498829 0
M  V30 23 N -2.985932 -4.209651 -1.944967 0
M  V30 24 C -3.853376 -5.344394 -1.982804 0
M  V30 25 C -4.422393 -5.681317 -3.209677 0
M  V30 26 C -5.272482 -6.771991 -3.309912 0
M  V30 27 C -5.566594 -7.543821 -2.180739 0
M  V30 28 C -5.004486 -7.213007 -0.962782 0
M  V30 29 F -5.279542 -7.955373 0.153598 0
M  V30 30 C -4.161571 -6.123608 -0.886807 0
M  V30 31 C -2.334630 0.599619 -1.342622 0
M  V30 32 N 0.054435 2.592015 -2.683229 0
M  V30 33 C 1.328878 2.293713 -3.059522 0
M  V30 34 N 2.256435 1.953895 -2.135664 0
M  V30 35 C 1.929182 1.907446 -0.837826 0
M  V30 36 C 2.829558 1.568012 0.154183 0
M  V30 37 C 3.492378 1.636860 3.787356 0
M  V30 38 C 4.462411 1.250273 4.688678 0
M  V30 39 H 7.017485 -2.359493 6.270525 0
M  V30 40 H 5.353703 -2.061394 5.707064 0
M  V30 41 H 5.958397 -1.425230 7.327899 0
M  V30 42 H 6.218076 -0.792938 2.728998 0
M  V30 43 H 4.569796 -0.174113 1.095886 0
M  V30 44 H 0.932401 1.787525 2.909760 0
M  V30 45 H -0.788027 2.419125 1.179151 0
M  V30 46 H -1.846094 3.894871 -0.937414 0
M  V30 47 H -4.216609 3.308173 -0.674382 0
M  V30 48 H -5.981728 1.511336 -0.676123 0
M  V30 49 H -5.327019 -0.758422 -1.100983 0
M  V30 50 H -1.786121 -1.904084 -1.785730 0
M  V30 51 H -1.937494 -4.287141 -2.109627 0
M  V30 52 H -4.204328 -5.095587 -4.086664 0
M  V30 53 H -5.700356 -7.005757 -4.289905 0
M  V30 54 H -6.240721 -8.396786 -2.295216 0
M  V30 55 H -3.712598 -5.850622 0.060459 0
M  V30 56 H -1.274775 0.365589 -1.531733 0
M  V30 57 H 1.546080 2.346399 -4.134067 0
M  V30 58 H 3.849847 1.326815 -0.123470 0
M  V30 59 H 2.705101 2.322228 4.049247 0
M  V30 60 H 4.461983 1.630293 5.703567 0
M  V30 END ATOM
M  V30 BEGIN BOND
M  V30 1 1 1 2
M  V30 2 2 2 3
M  V30 3 2 2 4
M  V30 4 1 2 5
M  V30 5 2 5 6
M  V30 6 1 6 7
M  V30 7 2 7 8
M  V30 8 1 8 9
M  V30 9 2 9 10
M  V30 10 1 10 11
M  V30 11 2 11 12
M  V30 12 1 12 13
M  V30 13 1 13 14
M  V30 14 1 14 15
M  V30 15 2 15 16
M  V30 16 1 16 17
M  V30 17 2 17 18
M  V30 18 1 18 19
M  V30 19 1 19 20
M  V30 20 1 20 21
M  V30 21 2 21 22
M  V30 22 1 21 23
M  V30 23 1 23 24
M  V30 24 2 24 25
M  V30 25 1 25 26
M  V30 26 2 26 27
M  V30 27 1 27 28
M  V30 28 1 28 29
M  V30 29 2 28 30
M  V30 30 2 19 31
M  V30 31 2 13 32
M  V30 32 1 32 33
M  V30 33 2 33 34
M  V30 34 1 34 35
M  V30 35 2 35 36
M  V30 36 1 8 37
M  V30 37 2 37 38
M  V30 38 1 38 5
M  V30 39 1 36 9
M  V30 40 1 35 12
M  V30 41 1 31 15
M  V30 42 1 30 24
M  V30 43 1 1 39
M  V30 44 1 1 40
M  V30 45 1 1 41
M  V30 46 1 6 42
M  V30 47 1 7 43
M  V30 48 1 10 44
M  V30 49 1 11 45
M  V30 50 1 14 46
M  V30 51 1 16 47
M  V30 52 1 17 48
M  V30 53 1 18 49
M  V30 54 1 20 50
M  V30 55 1 23 51
M  V30 56 1 25 52
M  V30 57 1 26 53
M  V30 58 1 27 54
M  V30 59 1 30 55
M  V30 60 1 31 56
M  V30 61 1 33 57
M  V30 62 1 36 58
M  V30 63 1 37 59
M  V30 64 1 38 60
M  V30 END BOND
M  V30 END CTAB
M  END
>  <Dataset>  (188) 
ChEMBL_Kinases

>  <Ligand_Instance>  (188) 
nan

>  <PDB_ID>  (188) 
nan

>  <Standardized_SMILES>  (188) 
CS(=O)(=O)c1ccc(-c2ccc3c(Nc4cccc(NC(=O)Nc5cccc(F)c5)c4)ncnc3c2)cc1

>  <Name>  (188) 
nan

>  <Pocket>  (188) 
nan

>  <ATP_Site>  (188) 
nan

>  <Peripheral>  (188) 
nan

>  <Num_H_Atoms_ProtBoundConf>  (188) 
nan

>  <Num_Resolved_Atoms>  (188) 
nan

>  <Num_Not_Resolved_Atoms>  (188) 
nan

$$$$
CHEMBL4796417
     RDKit          3D

  0  0  0  0  0  0  0  0  0  0999 V3000
M  V30 BEGIN CTAB
M  V30 COUNTS 46 49 0 0 0
M  V30 BEGIN ATOM
M  V30 1 C -0.775924 -3.636072 -3.002934 0
M  V30 2 N 0.252436 -2.893025 -2.264694 0
M  V30 3 C 1.604557 -2.981329 -2.712469 0
M  V30 4 O 1.748147 -3.777175 -3.676239 0
M  V30 5 C 2.778710 -2.267895 -2.180849 0
M  V30 6 C 3.872063 -2.601290 -2.976523 0
M  V30 7 C 5.084788 -2.030209 -2.641908 0
M  V30 8 C 5.200812 -1.170156 -1.567975 0
M  V30 9 C 4.098779 -0.844192 -0.779019 0
M  V30 10 C 2.880672 -1.409503 -1.104376 0
M  V30 11 O 1.845555 -1.012947 -0.246408 0
M  V30 12 C 0.492182 -1.322235 -0.273682 0
M  V30 13 C -0.215440 -0.701647 0.736959 0
M  V30 14 C -1.570958 -0.833721 0.942013 0
M  V30 15 N -2.301070 -0.192400 1.973428 0
M  V30 16 C -1.767012 0.717807 2.957984 0 CFG=1
M  V30 17 C -1.249343 2.001777 2.396123 0
M  V30 18 C -0.254959 2.574086 3.380796 0
M  V30 19 C -0.598857 2.186987 4.803732 0 CFG=2
M  V30 20 O 0.165935 1.110973 5.269458 0
M  V30 21 C -2.077434 1.979396 5.020119 0
M  V30 22 C -2.724403 1.035696 4.053648 0
M  V30 23 N -2.203785 -1.635703 0.068285 0
M  V30 24 C -1.565789 -2.265465 -0.934726 0
M  V30 25 C -0.207847 -2.135201 -1.143274 0
M  V30 26 H -1.502721 -2.980491 -3.503970 0
M  V30 27 H -0.227771 -4.141807 -3.850270 0
M  V30 28 H -1.201353 -4.469461 -2.425624 0
M  V30 29 H 3.781531 -3.275551 -3.818612 0
M  V30 30 H 5.920299 -2.308995 -3.280999 0
M  V30 31 H 6.186798 -0.766014 -1.373759 0
M  V30 32 H 4.193367 -0.180539 0.047980 0
M  V30 33 H 0.367260 -0.086313 1.391002 0
M  V30 34 H -3.323808 -0.375568 2.054445 0
M  V30 35 H -0.931374 0.129369 3.454617 0
M  V30 36 H -0.875729 1.921577 1.375128 0
M  V30 37 H -2.141104 2.690220 2.331666 0
M  V30 38 H 0.772049 2.257806 3.167820 0
M  V30 39 H -0.320703 3.675041 3.292002 0
M  V30 40 H -0.298434 3.039595 5.447831 0
M  V30 41 H -0.329776 0.527973 5.890099 0
M  V30 42 H -2.566597 2.976874 4.891185 0
M  V30 43 H -2.216503 1.683339 6.063014 0
M  V30 44 H -3.648292 1.479110 3.588590 0
M  V30 45 H -3.081100 0.150407 4.629156 0
M  V30 46 H -2.179557 -2.889598 -1.580866 0
M  V30 END ATOM
M  V30 BEGIN BOND
M  V30 1 1 1 2
M  V30 2 1 2 3
M  V30 3 2 3 4
M  V30 4 1 3 5
M  V30 5 2 5 6
M  V30 6 1 6 7
M  V30 7 2 7 8
M  V30 8 1 8 9
M  V30 9 2 9 10
M  V30 10 1 10 11
M  V30 11 1 11 12
M  V30 12 2 12 13
M  V30 13 1 13 14
M  V30 14 1 14 15
M  V30 15 1 15 16
M  V30 16 1 16 17
M  V30 17 1 17 18
M  V30 18 1 18 19
M  V30 19 1 19 20
M  V30 20 1 19 21
M  V30 21 1 21 22
M  V30 22 2 14 23
M  V30 23 1 23 24
M  V30 24 2 24 25
M  V30 25 1 25 2
M  V30 26 1 10 5
M  V30 27 1 25 12
M  V30 28 1 22 16
M  V30 29 1 1 26
M  V30 30 1 1 27
M  V30 31 1 1 28
M  V30 32 1 6 29
M  V30 33 1 7 30
M  V30 34 1 8 31
M  V30 35 1 9 32
M  V30 36 1 13 33
M  V30 37 1 15 34
M  V30 38 1 16 35 CFG=1
M  V30 39 1 17 36
M  V30 40 1 17 37
M  V30 41 1 18 38
M  V30 42 1 18 39
M  V30 43 1 19 40 CFG=1
M  V30 44 1 20 41
M  V30 45 1 21 42
M  V30 46 1 21 43
M  V30 47 1 22 44
M  V30 48 1 22 45
M  V30 49 1 24 46
M  V30 END BOND
M  V30 END CTAB
M  END
>  <Dataset>  (189) 
ChEMBL_Kinases

>  <Ligand_Instance>  (189) 
nan

>  <PDB_ID>  (189) 
nan

>  <Standardized_SMILES>  (189) 
CN1C(=O)c2ccccc2Oc2cc(N[C@H]3CC[C@H](O)CC3)ncc21

>  <Name>  (189) 
nan

>  <Pocket>  (189) 
nan

>  <ATP_Site>  (189) 
nan

>  <Peripheral>  (189) 
nan

>  <Num_H_Atoms_ProtBoundConf>  (189) 
nan

>  <Num_Resolved_Atoms>  (189) 
nan

>  <Num_Not_Resolved_Atoms>  (189) 
nan

$$$$
CHEMBL4796437
     RDKit          3D

  0  0  0  0  0  0  0  0  0  0999 V3000
M  V30 BEGIN CTAB
M  V30 COUNTS 67 71 0 0 0
M  V30 BEGIN ATOM
M  V30 1 N -1.010229 -3.111007 5.344441 0
M  V30 2 C -0.696412 -3.186949 3.962176 0
M  V30 3 O -1.180780 -4.184764 3.354735 0
M  V30 4 C 0.110577 -2.174139 3.377958 0
M  V30 5 S 0.778341 -0.767299 4.287517 0
M  V30 6 C 1.641391 -0.047949 2.764815 0
M  V30 7 C 2.426463 1.198223 2.836191 0
M  V30 8 C 3.039321 1.688008 1.718874 0
M  V30 9 C 3.762284 2.847815 1.823873 0
M  V30 10 N 3.859304 3.479148 2.999631 0
M  V30 11 C 3.266282 3.019578 4.115252 0
M  V30 12 N 3.392905 3.723945 5.361887 0
M  V30 13 C 2.350810 4.684134 5.504093 0
M  V30 14 O 1.515735 4.763748 4.554974 0
M  V30 15 C 2.150427 5.602970 6.663190 0
M  V30 16 C 1.511754 6.929700 6.378397 0
M  V30 17 C 0.698282 5.887140 7.067330 0
M  V30 18 C 2.520056 1.849393 4.074451 0
M  V30 19 N 1.361668 -0.865417 1.822989 0
M  V30 20 C 0.604815 -1.925063 2.105638 0
M  V30 21 O 0.201371 -2.925471 1.185997 0
M  V30 22 C 0.633638 -2.786013 -0.128352 0
M  V30 23 C 0.216559 -3.835986 -1.100559 0
M  V30 24 C 0.654728 -3.701674 -2.501891 0
M  V30 25 C 0.155204 -4.847473 -3.362973 0
M  V30 26 C -1.192818 -4.596747 -3.977360 0
M  V30 27 N -1.155319 -3.467580 -4.788818 0
M  V30 28 C -2.322339 -2.829113 -5.224819 0
M  V30 29 C -3.262816 -2.371386 -4.187328 0
M  V30 30 C -3.325920 -1.169119 -3.521577 0
M  V30 31 C -4.326068 -0.966230 -2.570067 0
M  V30 32 C -5.257237 -1.972231 -2.292746 0
M  V30 33 C -5.203273 -3.199049 -2.962879 0
M  V30 34 C -4.212377 -3.356496 -3.883538 0
M  V30 35 C -0.028868 -2.638194 -4.685855 0
M  V30 36 C 0.342944 -2.454562 -3.222259 0
M  V30 37 H -1.776205 -3.009604 6.055993 0
M  V30 38 H -0.324264 -3.156772 6.140054 0
M  V30 39 H 2.904303 1.116158 0.830964 0
M  V30 40 H 4.232454 3.206685 0.928630 0
M  V30 41 H 4.063411 3.691960 6.172196 0
M  V30 42 H 2.880494 5.532992 7.504693 0
M  V30 43 H 1.768386 7.833365 6.983215 0
M  V30 44 H 1.290768 7.182000 5.313299 0
M  V30 45 H -0.066344 5.314728 6.495531 0
M  V30 46 H 0.481229 5.989566 8.154360 0
M  V30 47 H 2.027982 1.450090 4.958885 0
M  V30 48 H 1.717221 -2.520976 -0.212510 0
M  V30 49 H 0.137425 -1.838117 -0.477564 0
M  V30 50 H 0.545107 -4.819612 -0.702951 0
M  V30 51 H -0.892648 -3.865114 -1.068802 0
M  V30 52 H 1.767081 -3.844441 -2.512814 0
M  V30 53 H 0.111379 -5.744896 -2.711513 0
M  V30 54 H 0.900457 -5.085444 -4.175066 0
M  V30 55 H -1.984729 -4.564186 -3.200446 0
M  V30 56 H -1.442261 -5.493675 -4.605775 0
M  V30 57 H -2.831055 -3.429677 -6.021572 0
M  V30 58 H -1.999483 -1.882321 -5.758366 0
M  V30 59 H -2.563086 -0.474867 -3.813336 0
M  V30 60 H -4.330090 -0.005575 -2.075766 0
M  V30 61 H -5.995119 -1.694846 -1.526417 0
M  V30 62 H -5.951999 -3.925625 -2.698101 0
M  V30 63 H -4.261826 -4.354348 -4.349747 0
M  V30 64 H 0.813869 -3.140877 -5.245622 0
M  V30 65 H -0.119721 -1.653092 -5.196925 0
M  V30 66 H -0.378773 -1.783054 -2.711959 0
M  V30 67 H 1.266398 -1.824528 -3.261186 0
M  V30 END ATOM
M  V30 BEGIN BOND
M  V30 1 1 1 2
M  V30 2 2 2 3
M  V30 3 1 2 4
M  V30 4 1 4 5
M  V30 5 1 5 6
M  V30 6 1 6 7
M  V30 7 2 7 8
M  V30 8 1 8 9
M  V30 9 2 9 10
M  V30 10 1 10 11
M  V30 11 1 11 12
M  V30 12 1 12 13
M  V30 13 2 13 14
M  V30 14 1 13 15
M  V30 15 1 15 16
M  V30 16 1 16 17
M  V30 17 2 11 18
M  V30 18 2 6 19
M  V30 19 1 19 20
M  V30 20 1 20 21
M  V30 21 1 21 22
M  V30 22 1 22 23
M  V30 23 1 23 24
M  V30 24 1 24 25
M  V30 25 1 25 26
M  V30 26 1 26 27
M  V30 27 1 27 28
M  V30 28 1 28 29
M  V30 29 2 29 30
M  V30 30 1 30 31
M  V30 31 2 31 32
M  V30 32 1 32 33
M  V30 33 2 33 34
M  V30 34 1 27 35
M  V30 35 1 35 36
M  V30 36 2 20 4
M  V30 37 1 36 24
M  V30 38 1 18 7
M  V30 39 1 34 29
M  V30 40 1 17 15
M  V30 41 1 1 37
M  V30 42 1 1 38
M  V30 43 1 8 39
M  V30 44 1 9 40
M  V30 45 1 12 41
M  V30 46 1 15 42
M  V30 47 1 16 43
M  V30 48 1 16 44
M  V30 49 1 17 45
M  V30 50 1 17 46
M  V30 51 1 18 47
M  V30 52 1 22 48
M  V30 53 1 22 49
M  V30 54 1 23 50
M  V30 55 1 23 51
M  V30 56 1 24 52
M  V30 57 1 25 53
M  V30 58 1 25 54
M  V30 59 1 26 55
M  V30 60 1 26 56
M  V30 61 1 28 57
M  V30 62 1 28 58
M  V30 63 1 30 59
M  V30 64 1 31 60
M  V30 65 1 32 61
M  V30 66 1 33 62
M  V30 67 1 34 63
M  V30 68 1 35 64
M  V30 69 1 35 65
M  V30 70 1 36 66
M  V30 71 1 36 67
M  V30 END BOND
M  V30 END CTAB
M  END
>  <Dataset>  (190) 
ChEMBL_Kinases

>  <Ligand_Instance>  (190) 
nan

>  <PDB_ID>  (190) 
nan

>  <Standardized_SMILES>  (190) 
NC(=O)c1sc(-c2ccnc(NC(=O)C3CC3)c2)nc1OCCC1CCN(Cc2ccccc2)CC1

>  <Name>  (190) 
nan

>  <Pocket>  (190) 
nan

>  <ATP_Site>  (190) 
nan

>  <Peripheral>  (190) 
nan

>  <Num_H_Atoms_ProtBoundConf>  (190) 
nan

>  <Num_Resolved_Atoms>  (190) 
nan

>  <Num_Not_Resolved_Atoms>  (190) 
nan

$$$$
CHEMBL4796460
     RDKit          3D

  0  0  0  0  0  0  0  0  0  0999 V3000
M  V30 BEGIN CTAB
M  V30 COUNTS 54 58 0 0 0
M  V30 BEGIN ATOM
M  V30 1 C 2.827599 -5.324262 4.490534 0
M  V30 2 N 2.464258 -4.044730 3.915513 0
M  V30 3 C 2.513456 -3.743794 2.601973 0
M  V30 4 C 2.096639 -2.458720 2.467842 0
M  V30 5 C 1.962606 -1.672353 1.249307 0
M  V30 6 C 2.187471 -0.301457 1.392857 0
M  V30 7 C 2.056093 0.498776 0.279279 0
M  V30 8 C 1.710565 -0.038811 -0.948823 0
M  V30 9 C 1.541891 0.701134 -2.126277 0
M  V30 10 N 1.772823 2.110928 -1.913501 0
M  V30 11 C 0.699641 2.865857 -1.303924 0
M  V30 12 C 0.717555 4.258327 -1.133006 0
M  V30 13 C -0.353540 4.865971 -0.512993 0
M  V30 14 C -1.451666 4.171539 -0.046720 0
M  V30 15 C -1.495579 2.810194 -0.199885 0
M  V30 16 N -2.624527 2.121516 0.310551 0
M  V30 17 C -2.861218 0.724466 0.288535 0
M  V30 18 O -2.061454 -0.093740 -0.221041 0
M  V30 19 N -3.972086 -0.038753 0.799329 0
M  V30 20 C -3.627835 -1.391207 0.478404 0
M  V30 21 C -2.839524 -1.963523 1.463196 0
M  V30 22 C -2.400402 -3.282033 1.314042 0
M  V30 23 C -2.796697 -3.933310 0.165135 0
M  V30 24 F -2.395875 -5.220704 -0.036675 0
M  V30 25 C -3.588581 -3.395431 -0.847878 0
M  V30 26 Cl -4.063444 -4.255951 -2.277215 0
M  V30 27 C -3.990988 -2.092930 -0.647502 0
M  V30 28 C -0.428845 2.209449 -0.819286 0
M  V30 29 N 1.194078 0.115502 -3.282752 0
M  V30 30 C 0.996336 -1.222975 -3.337638 0
M  V30 31 N 1.144971 -1.978892 -2.233294 0
M  V30 32 C 1.497661 -1.396446 -1.050212 0
M  V30 33 C 1.617641 -2.238656 0.036201 0
M  V30 34 C 1.798051 -2.008601 3.756145 0
M  V30 35 N 2.034110 -3.012183 4.642583 0
M  V30 36 H 3.456560 -5.161335 5.401993 0
M  V30 37 H 1.883620 -5.767020 4.872875 0
M  V30 38 H 3.362111 -5.968870 3.773974 0
M  V30 39 H 2.830522 -4.418639 1.807096 0
M  V30 40 H 2.455754 0.221924 2.279337 0
M  V30 41 H 2.219576 1.586683 0.315287 0
M  V30 42 H 2.620710 2.704717 -2.133094 0
M  V30 43 H 1.595401 4.784632 -1.507783 0
M  V30 44 H -0.341338 5.932666 -0.381694 0
M  V30 45 H -2.249718 4.730681 0.428099 0
M  V30 46 H -3.407191 2.629441 0.764697 0
M  V30 47 H -4.714851 0.568227 1.254131 0
M  V30 48 H -2.489807 -1.507782 2.391667 0
M  V30 49 H -1.783699 -3.825536 2.010323 0
M  V30 50 H -4.604351 -1.547416 -1.341183 0
M  V30 51 H -0.421845 1.164990 -0.970093 0
M  V30 52 H 0.715825 -1.662508 -4.284416 0
M  V30 53 H 1.450691 -3.317155 -0.030718 0
M  V30 54 H 1.431803 -1.015351 4.045396 0
M  V30 END ATOM
M  V30 BEGIN BOND
M  V30 1 1 1 2
M  V30 2 1 2 3
M  V30 3 2 3 4
M  V30 4 1 4 5
M  V30 5 2 5 6
M  V30 6 1 6 7
M  V30 7 2 7 8
M  V30 8 1 8 9
M  V30 9 1 9 10
M  V30 10 1 10 11
M  V30 11 2 11 12
M  V30 12 1 12 13
M  V30 13 2 13 14
M  V30 14 1 14 15
M  V30 15 1 15 16
M  V30 16 1 16 17
M  V30 17 2 17 18
M  V30 18 1 17 19
M  V30 19 1 19 20
M  V30 20 2 20 21
M  V30 21 1 21 22
M  V30 22 2 22 23
M  V30 23 1 23 24
M  V30 24 1 23 25
M  V30 25 1 25 26
M  V30 26 2 25 27
M  V30 27 2 15 28
M  V30 28 2 9 29
M  V30 29 1 29 30
M  V30 30 2 30 31
M  V30 31 1 31 32
M  V30 32 2 32 33
M  V30 33 1 4 34
M  V30 34 2 34 35
M  V30 35 1 35 2
M  V30 36 1 33 5
M  V30 37 1 32 8
M  V30 38 1 28 11
M  V30 39 1 27 20
M  V30 40 1 1 36
M  V30 41 1 1 37
M  V30 42 1 1 38
M  V30 43 1 3 39
M  V30 44 1 6 40
M  V30 45 1 7 41
M  V30 46 1 10 42
M  V30 47 1 12 43
M  V30 48 1 13 44
M  V30 49 1 14 45
M  V30 50 1 16 46
M  V30 51 1 19 47
M  V30 52 1 21 48
M  V30 53 1 22 49
M  V30 54 1 27 50
M  V30 55 1 28 51
M  V30 56 1 30 52
M  V30 57 1 33 53
M  V30 58 1 34 54
M  V30 END BOND
M  V30 END CTAB
M  END
>  <Dataset>  (191) 
ChEMBL_Kinases

>  <Ligand_Instance>  (191) 
nan

>  <PDB_ID>  (191) 
nan

>  <Standardized_SMILES>  (191) 
Cn1cc(-c2ccc3c(Nc4cccc(NC(=O)Nc5ccc(F)c(Cl)c5)c4)ncnc3c2)cn1

>  <Name>  (191) 
nan

>  <Pocket>  (191) 
nan

>  <ATP_Site>  (191) 
nan

>  <Peripheral>  (191) 
nan

>  <Num_H_Atoms_ProtBoundConf>  (191) 
nan

>  <Num_Resolved_Atoms>  (191) 
nan

>  <Num_Not_Resolved_Atoms>  (191) 
nan

$$$$
CHEMBL4796500
     RDKit          3D

  0  0  0  0  0  0  0  0  0  0999 V3000
M  V30 BEGIN CTAB
M  V30 COUNTS 53 56 0 0 0
M  V30 BEGIN ATOM
M  V30 1 C 0.400190 -4.322773 3.372717 0
M  V30 2 C 1.651223 -4.128389 2.583614 0
M  V30 3 O 2.049010 -5.125586 1.942806 0
M  V30 4 N 2.370113 -2.886684 2.546201 0
M  V30 5 C 3.577408 -2.799510 1.747747 0 CFG=2
M  V30 6 C 4.804997 -2.467311 2.526318 0
M  V30 7 C 5.097069 -1.005099 2.624853 0
M  V30 8 C 3.953322 -0.098509 2.301800 0
M  V30 9 C 3.317407 -0.402075 0.993705 0 CFG=2
M  V30 10 C 1.847106 -0.075751 1.041159 0
M  V30 11 O 0.924729 -0.938153 0.844775 0
M  V30 12 N 1.336724 1.223076 1.308900 0
M  V30 13 C -0.100506 1.232357 1.289633 0
M  V30 14 C -0.900324 1.464808 0.206627 0
M  V30 15 C -2.273383 1.445555 0.320797 0
M  V30 16 C -3.071842 1.705137 -0.890396 0
M  V30 17 C -3.513231 2.933486 -1.335841 0
M  V30 18 N -4.202300 2.684151 -2.478859 0
M  V30 19 N -4.181963 1.372547 -2.717581 0
M  V30 20 C -3.492169 0.718475 -1.760029 0
M  V30 21 O -3.373569 -0.659511 -1.856814 0
M  V30 22 C -4.432424 -1.463642 -2.344421 0
M  V30 23 C -5.453380 -0.609941 -3.069800 0
M  V30 24 C -4.733358 0.531245 -3.764777 0
M  V30 25 C -2.865289 1.194614 1.514651 0
M  V30 26 Cl -4.598151 1.186742 1.581361 0
M  V30 27 C -2.057554 0.960442 2.605647 0
M  V30 28 N -0.697261 0.979133 2.494379 0
M  V30 29 C 3.392972 -1.845302 0.591487 0
M  V30 30 H 0.644124 -4.688789 4.386953 0
M  V30 31 H -0.191134 -3.370188 3.381257 0
M  V30 32 H -0.249541 -5.078489 2.890561 0
M  V30 33 H 1.918483 -2.160677 3.124170 0
M  V30 34 H 3.705512 -3.802259 1.289826 0
M  V30 35 H 5.667880 -3.006180 2.053285 0
M  V30 36 H 4.640473 -2.891468 3.560232 0
M  V30 37 H 5.996380 -0.771255 1.998876 0
M  V30 38 H 5.412732 -0.776116 3.668398 0
M  V30 39 H 3.205641 -0.135826 3.120577 0
M  V30 40 H 4.363590 0.932201 2.259050 0
M  V30 41 H 3.816309 0.193948 0.204442 0
M  V30 42 H 2.030150 1.995381 1.482829 0
M  V30 43 H -0.352136 1.655533 -0.702400 0
M  V30 44 H -3.348928 3.915850 -0.872682 0
M  V30 45 H -5.002488 -1.938050 -1.496708 0
M  V30 46 H -4.097197 -2.244480 -3.063615 0
M  V30 47 H -6.037442 -1.221052 -3.786049 0
M  V30 48 H -6.178155 -0.124765 -2.358589 0
M  V30 49 H -3.873129 0.048267 -4.312072 0
M  V30 50 H -5.388556 1.080744 -4.448562 0
M  V30 51 H -2.519195 0.760774 3.555521 0
M  V30 52 H 2.457996 -2.193965 0.077837 0
M  V30 53 H 4.189131 -1.996652 -0.166195 0
M  V30 END ATOM
M  V30 BEGIN BOND
M  V30 1 1 1 2
M  V30 2 2 2 3
M  V30 3 1 2 4
M  V30 4 1 4 5
M  V30 5 1 5 6
M  V30 6 1 6 7
M  V30 7 1 7 8
M  V30 8 1 8 9
M  V30 9 1 9 10
M  V30 10 2 10 11
M  V30 11 1 10 12
M  V30 12 1 12 13
M  V30 13 2 13 14
M  V30 14 1 14 15
M  V30 15 1 15 16
M  V30 16 1 16 17
M  V30 17 2 17 18
M  V30 18 1 18 19
M  V30 19 1 19 20
M  V30 20 1 20 21
M  V30 21 1 21 22
M  V30 22 1 22 23
M  V30 23 1 23 24
M  V30 24 2 15 25
M  V30 25 1 25 26
M  V30 26 1 25 27
M  V30 27 2 27 28
M  V30 28 1 9 29
M  V30 29 1 29 5
M  V30 30 1 28 13
M  V30 31 2 20 16
M  V30 32 1 24 19
M  V30 33 1 1 30
M  V30 34 1 1 31
M  V30 35 1 1 32
M  V30 36 1 4 33
M  V30 37 1 5 34 CFG=3
M  V30 38 1 6 35
M  V30 39 1 6 36
M  V30 40 1 7 37
M  V30 41 1 7 38
M  V30 42 1 8 39
M  V30 43 1 8 40
M  V30 44 1 9 41 CFG=3
M  V30 45 1 12 42
M  V30 46 1 14 43
M  V30 47 1 17 44
M  V30 48 1 22 45
M  V30 49 1 22 46
M  V30 50 1 23 47
M  V30 51 1 23 48
M  V30 52 1 24 49
M  V30 53 1 24 50
M  V30 54 1 27 51
M  V30 55 1 29 52
M  V30 56 1 29 53
M  V30 END BOND
M  V30 END CTAB
M  END
>  <Dataset>  (192) 
ChEMBL_Kinases

>  <Ligand_Instance>  (192) 
nan

>  <PDB_ID>  (192) 
nan

>  <Standardized_SMILES>  (192) 
CC(=O)N[C@@H]1CCC[C@H](C(=O)Nc2cc(-c3cnn4c3OCCC4)c(Cl)cn2)C1

>  <Name>  (192) 
nan

>  <Pocket>  (192) 
nan

>  <ATP_Site>  (192) 
nan

>  <Peripheral>  (192) 
nan

>  <Num_H_Atoms_ProtBoundConf>  (192) 
nan

>  <Num_Resolved_Atoms>  (192) 
nan

>  <Num_Not_Resolved_Atoms>  (192) 
nan

$$$$
CHEMBL4103020
     RDKit          3D

  0  0  0  0  0  0  0  0  0  0999 V3000
M  V30 BEGIN CTAB
M  V30 COUNTS 54 55 0 0 0
M  V30 BEGIN ATOM
M  V30 1 C 2.411446 -7.361366 2.362470 0
M  V30 2 C 1.840709 -6.706070 1.152570 0
M  V30 3 C 1.630106 -5.344852 1.121640 0
M  V30 4 C 1.100611 -4.755364 -0.008102 0
M  V30 5 C 0.869008 -3.317427 -0.064246 0
M  V30 6 C 1.708608 -2.477096 0.632310 0
M  V30 7 C 1.422424 -1.138803 0.526444 0
M  V30 8 C 0.414471 -0.527371 -0.177304 0
M  V30 9 O 0.046462 0.743195 -0.353524 0
M  V30 10 C 0.384799 1.998485 0.013121 0
M  V30 11 C 0.306724 2.459315 1.415898 0 CFG=1
M  V30 12 C 1.331709 1.812541 2.314803 0
M  V30 13 N 0.786241 3.889321 1.358163 0
M  V30 14 C -1.015224 2.440269 2.083253 0
M  V30 15 C -2.115115 3.289174 1.565182 0
M  V30 16 C -2.553629 3.024878 0.176022 0
M  V30 17 C -3.338245 2.993150 2.463554 0
M  V30 18 C -0.414200 -1.424081 -0.870461 0
M  V30 19 S -1.792406 -0.943560 -1.845804 0
M  V30 20 C -1.275728 0.215838 -3.117798 0
M  V30 21 O -2.927267 -0.418589 -1.031066 0
M  V30 22 O -2.339760 -2.171962 -2.567728 0
M  V30 23 C -0.171480 -2.802275 -0.801159 0
M  V30 24 C 0.758908 -5.465594 -1.142111 0
M  V30 25 C 0.992502 -6.841724 -1.058066 0
M  V30 26 N 1.509107 -7.398154 0.051119 0
M  V30 27 H 3.151395 -6.660445 2.805875 0
M  V30 28 H 2.845475 -8.351208 2.114022 0
M  V30 29 H 1.569114 -7.513552 3.072993 0
M  V30 30 H 1.864178 -4.712026 1.953092 0
M  V30 31 H 2.536064 -2.841006 1.222207 0
M  V30 32 H 2.103147 -0.507258 1.056998 0
M  V30 33 H 1.498947 2.148548 -0.328341 0
M  V30 34 H -0.110124 2.731484 -0.691336 0
M  V30 35 H 0.988117 0.829717 2.666056 0
M  V30 36 H 2.309397 1.732906 1.798381 0
M  V30 37 H 1.510115 2.447281 3.232066 0
M  V30 38 H 1.759422 3.791541 0.998522 0
M  V30 39 H 0.773838 4.266030 2.318327 0
M  V30 40 H -0.927956 2.577102 3.197190 0
M  V30 41 H -1.399529 1.366374 2.002078 0
M  V30 42 H -1.926972 4.385614 1.754150 0
M  V30 43 H -2.191342 3.745267 -0.589961 0
M  V30 44 H -2.280260 2.016924 -0.128145 0
M  V30 45 H -3.693361 3.133798 0.107966 0
M  V30 46 H -2.981737 2.680268 3.452228 0
M  V30 47 H -3.894782 2.122225 2.015218 0
M  V30 48 H -3.968594 3.887361 2.545887 0
M  V30 49 H -0.189801 0.065671 -3.319379 0
M  V30 50 H -1.900785 0.145966 -4.022835 0
M  V30 51 H -1.424473 1.260409 -2.730316 0
M  V30 52 H -0.784055 -3.532117 -1.319267 0
M  V30 53 H 0.346629 -5.071938 -2.045878 0
M  V30 54 H 0.738111 -7.440267 -1.928277 0
M  V30 END ATOM
M  V30 BEGIN BOND
M  V30 1 1 1 2
M  V30 2 2 2 3
M  V30 3 1 3 4
M  V30 4 1 4 5
M  V30 5 2 5 6
M  V30 6 1 6 7
M  V30 7 2 7 8
M  V30 8 1 8 9
M  V30 9 1 9 10
M  V30 10 1 10 11
M  V30 11 1 11 12
M  V30 12 1 11 13 CFG=3
M  V30 13 1 11 14
M  V30 14 1 14 15
M  V30 15 1 15 16
M  V30 16 1 15 17
M  V30 17 1 8 18
M  V30 18 1 18 19
M  V30 19 1 19 20
M  V30 20 2 19 21
M  V30 21 2 19 22
M  V30 22 2 18 23
M  V30 23 2 4 24
M  V30 24 1 24 25
M  V30 25 2 25 26
M  V30 26 1 26 2
M  V30 27 1 23 5
M  V30 28 1 1 27
M  V30 29 1 1 28
M  V30 30 1 1 29
M  V30 31 1 3 30
M  V30 32 1 6 31
M  V30 33 1 7 32
M  V30 34 1 10 33
M  V30 35 1 10 34
M  V30 36 1 12 35
M  V30 37 1 12 36
M  V30 38 1 12 37
M  V30 39 1 13 38
M  V30 40 1 13 39
M  V30 41 1 14 40
M  V30 42 1 14 41
M  V30 43 1 15 42
M  V30 44 1 16 43
M  V30 45 1 16 44
M  V30 46 1 16 45
M  V30 47 1 17 46
M  V30 48 1 17 47
M  V30 49 1 17 48
M  V30 50 1 20 49
M  V30 51 1 20 50
M  V30 52 1 20 51
M  V30 53 1 23 52
M  V30 54 1 24 53
M  V30 55 1 25 54
M  V30 END BOND
M  V30 END CTAB
M  END
>  <Dataset>  (193) 
ChEMBL_Kinases

>  <Ligand_Instance>  (193) 
nan

>  <PDB_ID>  (193) 
nan

>  <Standardized_SMILES>  (193) 
Cc1cc(-c2ccc(OC[C@@](C)(N)CC(C)C)c(S(C)(=O)=O)c2)ccn1

>  <Name>  (193) 
nan

>  <Pocket>  (193) 
nan

>  <ATP_Site>  (193) 
nan

>  <Peripheral>  (193) 
nan

>  <Num_H_Atoms_ProtBoundConf>  (193) 
nan

>  <Num_Resolved_Atoms>  (193) 
nan

>  <Num_Not_Resolved_Atoms>  (193) 
nan

$$$$
CHEMBL4798127
     RDKit          3D

  0  0  0  0  0  0  0  0  0  0999 V3000
M  V30 BEGIN CTAB
M  V30 COUNTS 62 65 0 0 0
M  V30 BEGIN ATOM
M  V30 1 C 2.185838 -1.074793 6.593227 0
M  V30 2 C 1.676566 -1.260598 5.215498 0
M  V30 3 N 2.095004 -0.663427 4.089402 0
M  V30 4 C 1.440086 -1.036950 3.003079 0
M  V30 5 C 1.514927 -0.719291 1.587042 0
M  V30 6 C 2.528124 -0.676672 0.770082 0
M  V30 7 C 3.885431 -0.971953 1.171306 0
M  V30 8 O 4.261275 -1.313762 2.317147 0
M  V30 9 N 4.690544 -0.799023 0.015741 0
M  V30 10 C 3.840665 -0.412265 -1.046310 0
M  V30 11 C 4.102703 -0.116585 -2.367382 0
M  V30 12 C 3.135484 0.261258 -3.309281 0
M  V30 13 C 1.819164 0.333053 -2.838178 0
M  V30 14 C 0.827126 0.742150 -3.827496 0
M  V30 15 O 1.209914 1.028895 -4.989094 0
M  V30 16 N -0.563515 0.836426 -3.546761 0
M  V30 17 C -1.617209 1.232603 -4.438109 0 CFG=2
M  V30 18 C -2.319608 2.428199 -3.839054 0
M  V30 19 C -2.602686 0.081097 -4.539317 0
M  V30 20 C -3.199856 -0.289581 -3.240609 0
M  V30 21 C -4.340063 0.224227 -2.659809 0
M  V30 22 C -4.777509 -0.245464 -1.419828 0
M  V30 23 C -4.073212 -1.243145 -0.740947 0
M  V30 24 C -2.920792 -1.760802 -1.330447 0
M  V30 25 Cl -2.012165 -3.017068 -0.508794 0
M  V30 26 C -2.494583 -1.283463 -2.568391 0
M  V30 27 C 1.502574 0.048303 -1.531294 0
M  V30 28 C 2.512250 -0.321937 -0.644482 0
M  V30 29 C 0.509267 -1.966964 3.487792 0
M  V30 30 C -0.496693 -2.715025 2.683406 0
M  V30 31 C 0.650685 -2.109168 4.853149 0
M  V30 32 N -0.143761 -2.981051 5.670577 0
M  V30 33 C -1.265063 -2.251910 6.102591 0
M  V30 34 O -1.502429 -1.041516 5.806155 0
M  V30 35 C -2.378542 -2.755602 6.982204 0
M  V30 36 Cl -3.499203 -1.369857 7.160135 0
M  V30 37 H 2.268446 -2.053808 7.130905 0
M  V30 38 H 1.447481 -0.490864 7.206246 0
M  V30 39 H 3.169368 -0.590780 6.615491 0
M  V30 40 H 2.851354 0.026538 4.118338 0
M  V30 41 H 0.538275 -0.469534 1.133806 0
M  V30 42 H 5.720299 -0.944548 0.006982 0
M  V30 43 H 5.140687 -0.176208 -2.728317 0
M  V30 44 H 3.441604 0.473717 -4.327407 0
M  V30 45 H -0.913431 0.600247 -2.590706 0
M  V30 46 H -1.244731 1.530255 -5.439379 0
M  V30 47 H -3.184870 2.762577 -4.455627 0
M  V30 48 H -2.732339 2.186743 -2.838188 0
M  V30 49 H -1.639967 3.286706 -3.747752 0
M  V30 50 H -2.158864 -0.793567 -5.050446 0
M  V30 51 H -3.394114 0.448822 -5.257960 0
M  V30 52 H -4.841355 0.991866 -3.230458 0
M  V30 53 H -5.672588 0.179581 -0.996847 0
M  V30 54 H -4.420429 -1.598910 0.217508 0
M  V30 55 H -1.583245 -1.743231 -2.956606 0
M  V30 56 H 0.484281 0.108388 -1.190268 0
M  V30 57 H -1.346164 -2.069311 2.474130 0
M  V30 58 H -0.033792 -3.091079 1.738437 0
M  V30 59 H -0.833194 -3.608280 3.233873 0
M  V30 60 H -0.081287 -3.969111 5.995128 0
M  V30 61 H -2.021255 -3.060966 7.977765 0
M  V30 62 H -2.942089 -3.575822 6.522108 0
M  V30 END ATOM
M  V30 BEGIN BOND
M  V30 1 1 1 2
M  V30 2 1 2 3
M  V30 3 1 3 4
M  V30 4 1 4 5
M  V30 5 2 5 6
M  V30 6 1 6 7
M  V30 7 2 7 8
M  V30 8 1 7 9
M  V30 9 1 9 10
M  V30 10 2 10 11
M  V30 11 1 11 12
M  V30 12 2 12 13
M  V30 13 1 13 14
M  V30 14 2 14 15
M  V30 15 1 14 16
M  V30 16 1 16 17
M  V30 17 1 17 18
M  V30 18 1 17 19
M  V30 19 1 19 20
M  V30 20 2 20 21
M  V30 21 1 21 22
M  V30 22 2 22 23
M  V30 23 1 23 24
M  V30 24 1 24 25
M  V30 25 2 24 26
M  V30 26 1 13 27
M  V30 27 2 27 28
M  V30 28 2 4 29
M  V30 29 1 29 30
M  V30 30 1 29 31
M  V30 31 1 31 32
M  V30 32 1 32 33
M  V30 33 2 33 34
M  V30 34 1 33 35
M  V30 35 1 35 36
M  V30 36 2 31 2
M  V30 37 1 28 6
M  V30 38 1 28 10
M  V30 39 1 26 20
M  V30 40 1 1 37
M  V30 41 1 1 38
M  V30 42 1 1 39
M  V30 43 1 3 40
M  V30 44 1 5 41
M  V30 45 1 9 42
M  V30 46 1 11 43
M  V30 47 1 12 44
M  V30 48 1 16 45
M  V30 49 1 17 46 CFG=3
M  V30 50 1 18 47
M  V30 51 1 18 48
M  V30 52 1 18 49
M  V30 53 1 19 50
M  V30 54 1 19 51
M  V30 55 1 21 52
M  V30 56 1 22 53
M  V30 57 1 23 54
M  V30 58 1 26 55
M  V30 59 1 27 56
M  V30 60 1 30 57
M  V30 61 1 30 58
M  V30 62 1 30 59
M  V30 63 1 32 60
M  V30 64 1 35 61
M  V30 65 1 35 62
M  V30 END BOND
M  V30 END CTAB
M  END
>  <Dataset>  (194) 
ChEMBL_Kinases

>  <Ligand_Instance>  (194) 
nan

>  <PDB_ID>  (194) 
nan

>  <Standardized_SMILES>  (194) 
Cc1[nH]c(/C=C2\C(=O)Nc3ccc(C(=O)N[C@H](C)Cc4cccc(Cl)c4)cc32)c(C)c1NC(=O)CCl

>  <Name>  (194) 
nan

>  <Pocket>  (194) 
nan

>  <ATP_Site>  (194) 
nan

>  <Peripheral>  (194) 
nan

>  <Num_H_Atoms_ProtBoundConf>  (194) 
nan

>  <Num_Resolved_Atoms>  (194) 
nan

>  <Num_Not_Resolved_Atoms>  (194) 
nan

$$$$
CHEMBL4798130
     RDKit          3D

  0  0  0  0  0  0  0  0  0  0999 V3000
M  V30 BEGIN CTAB
M  V30 COUNTS 47 50 0 0 0
M  V30 BEGIN ATOM
M  V30 1 C 2.194134 3.618850 -1.260158 0
M  V30 2 C 2.614772 2.208925 -1.336531 0
M  V30 3 C 3.138640 1.638453 -2.473750 0
M  V30 4 C 3.502865 0.316819 -2.454640 0
M  V30 5 F 4.021205 -0.237776 -3.589273 0
M  V30 6 C 3.354407 -0.453295 -1.316436 0
M  V30 7 C 2.824701 0.139919 -0.180670 0
M  V30 8 C 2.447938 1.479465 -0.176489 0
M  V30 9 C 1.916459 1.926994 1.097086 0
M  V30 10 C 2.282556 3.118717 1.702691 0
M  V30 11 N 1.780981 3.528837 2.891399 0
M  V30 12 C 0.885979 2.740353 3.510826 0
M  V30 13 N 0.175973 2.781742 4.650909 0
M  V30 14 N -0.598084 1.718464 4.805032 0
M  V30 15 C -0.437362 0.891303 3.744203 0
M  V30 16 C -1.177724 -0.327635 3.677580 0
M  V30 17 O -2.073004 -0.523742 4.569483 0
M  V30 18 C -1.209942 -1.483337 2.835956 0
M  V30 19 C -0.110064 -2.234433 2.422622 0
M  V30 20 C -0.114955 -3.354040 1.626118 0
M  V30 21 C -1.349636 -3.773848 1.192227 0
M  V30 22 C -2.507392 -3.114732 1.534126 0
M  V30 23 N -3.784387 -3.546757 1.087894 0
M  V30 24 S -3.929884 -4.934198 0.068756 0
M  V30 25 C -3.060946 -4.637754 -1.453665 0
M  V30 26 O -3.213398 -6.077243 0.773863 0
M  V30 27 O -5.353405 -5.285450 -0.190989 0
M  V30 28 C -2.413354 -1.984344 2.348180 0
M  V30 29 F -3.573895 -1.345100 2.675762 0
M  V30 30 C 0.482813 1.543612 2.958869 0
M  V30 31 C 0.997328 1.135827 1.751366 0
M  V30 32 H 1.807441 3.886156 -2.271476 0
M  V30 33 H 1.374883 3.792984 -0.543438 0
M  V30 34 H 3.071856 4.307167 -1.102175 0
M  V30 35 H 3.256105 2.242417 -3.369526 0
M  V30 36 H 3.658835 -1.495222 -1.355404 0
M  V30 37 H 2.735357 -0.531351 0.687377 0
M  V30 38 H 2.988178 3.756130 1.231598 0
M  V30 39 H 0.207413 3.553378 5.360483 0
M  V30 40 H 0.856248 -1.894413 2.770475 0
M  V30 41 H 0.809599 -3.846686 1.376973 0
M  V30 42 H -1.369512 -4.659092 0.560741 0
M  V30 43 H -4.637548 -3.033205 1.370396 0
M  V30 44 H -2.362704 -5.479273 -1.709396 0
M  V30 45 H -3.794423 -4.513563 -2.301353 0
M  V30 46 H -2.421780 -3.729043 -1.382625 0
M  V30 47 H 0.696817 0.224749 1.306599 0
M  V30 END ATOM
M  V30 BEGIN BOND
M  V30 1 1 1 2
M  V30 2 2 2 3
M  V30 3 1 3 4
M  V30 4 1 4 5
M  V30 5 2 4 6
M  V30 6 1 6 7
M  V30 7 2 7 8
M  V30 8 1 8 9
M  V30 9 2 9 10
M  V30 10 1 10 11
M  V30 11 2 11 12
M  V30 12 1 12 13
M  V30 13 1 13 14
M  V30 14 2 14 15
M  V30 15 1 15 16
M  V30 16 2 16 17
M  V30 17 1 16 18
M  V30 18 2 18 19
M  V30 19 1 19 20
M  V30 20 2 20 21
M  V30 21 1 21 22
M  V30 22 1 22 23
M  V30 23 1 23 24
M  V30 24 1 24 25
M  V30 25 2 24 26
M  V30 26 2 24 27
M  V30 27 2 22 28
M  V30 28 1 28 29
M  V30 29 1 15 30
M  V30 30 2 30 31
M  V30 31 1 8 2
M  V30 32 1 31 9
M  V30 33 1 30 12
M  V30 34 1 28 18
M  V30 35 1 1 32
M  V30 36 1 1 33
M  V30 37 1 1 34
M  V30 38 1 3 35
M  V30 39 1 6 36
M  V30 40 1 7 37
M  V30 41 1 10 38
M  V30 42 1 13 39
M  V30 43 1 19 40
M  V30 44 1 20 41
M  V30 45 1 21 42
M  V30 46 1 23 43
M  V30 47 1 25 44
M  V30 48 1 25 45
M  V30 49 1 25 46
M  V30 50 1 31 47
M  V30 END BOND
M  V30 END CTAB
M  END
>  <Dataset>  (195) 
ChEMBL_Kinases

>  <Ligand_Instance>  (195) 
nan

>  <PDB_ID>  (195) 
nan

>  <Standardized_SMILES>  (195) 
Cc1cc(F)ccc1-c1cnc2[nH]nc(C(=O)c3cccc(NS(C)(=O)=O)c3F)c2c1

>  <Name>  (195) 
nan

>  <Pocket>  (195) 
nan

>  <ATP_Site>  (195) 
nan

>  <Peripheral>  (195) 
nan

>  <Num_H_Atoms_ProtBoundConf>  (195) 
nan

>  <Num_Resolved_Atoms>  (195) 
nan

>  <Num_Not_Resolved_Atoms>  (195) 
nan

$$$$
CHEMBL4798132
     RDKit          3D

  0  0  0  0  0  0  0  0  0  0999 V3000
M  V30 BEGIN CTAB
M  V30 COUNTS 54 57 0 0 0
M  V30 BEGIN ATOM
M  V30 1 C -0.277393 -2.102464 4.624260 0
M  V30 2 C 0.728712 -1.282343 3.883531 0
M  V30 3 C 1.662754 -2.138267 3.080378 0
M  V30 4 O 1.767840 -3.380486 2.910869 0
M  V30 5 N 2.588535 -1.293224 2.400918 0
M  V30 6 C 3.649511 -1.756142 1.523400 0
M  V30 7 C 5.013741 -1.278148 1.963843 0
M  V30 8 C 5.124951 0.217095 1.936514 0
M  V30 9 C 4.711836 0.784199 0.591395 0
M  V30 10 N 3.433816 0.217494 0.206741 0
M  V30 11 C 2.330507 1.110757 -0.025900 0
M  V30 12 S 2.454250 2.764977 0.124477 0
M  V30 13 N 0.683155 3.167215 -0.321319 0
M  V30 14 C 0.250179 1.879986 -0.528499 0
M  V30 15 C -1.080149 1.673789 -0.899070 0
M  V30 16 C -1.576197 0.405771 -1.121634 0
M  V30 17 C -2.952451 0.114426 -1.511187 0
M  V30 18 C -3.771262 0.918461 -2.285857 0
M  V30 19 C -5.053165 0.567340 -2.605140 0
M  V30 20 C -5.589979 -0.623095 -2.159656 0
M  V30 21 N -6.921883 -1.078631 -2.441147 0
M  V30 22 C -4.835753 -1.481535 -1.380636 0
M  V30 23 O -5.300626 -2.695833 -0.892820 0
M  V30 24 C -4.471539 -3.525226 -0.100054 0
M  V30 25 C -3.551967 -1.072347 -1.092852 0
M  V30 26 C -0.744625 -0.686365 -0.976429 0
M  V30 27 N 0.522559 -0.432313 -0.619245 0
M  V30 28 C 1.041524 0.779665 -0.394556 0
M  V30 29 C 3.449236 -1.228010 0.107231 0
M  V30 30 H -1.302900 -2.030499 4.160233 0
M  V30 31 H -0.395488 -1.770058 5.677294 0
M  V30 32 H 0.002136 -3.187083 4.671241 0
M  V30 33 H 0.198728 -0.598048 3.201762 0
M  V30 34 H 1.281409 -0.649933 4.612229 0
M  V30 35 H 2.691493 -0.254621 2.390409 0
M  V30 36 H 3.624037 -2.843252 1.470763 0
M  V30 37 H 5.722310 -1.651551 1.179001 0
M  V30 38 H 5.291941 -1.651075 2.956193 0
M  V30 39 H 6.201817 0.463893 2.088582 0
M  V30 40 H 4.593096 0.722979 2.773859 0
M  V30 41 H 5.444921 0.535170 -0.176524 0
M  V30 42 H 4.634913 1.894734 0.742240 0
M  V30 43 H -1.838032 2.424391 -1.048830 0
M  V30 44 H -3.335650 1.850400 -2.628728 0
M  V30 45 H -5.682110 1.196664 -3.206671 0
M  V30 46 H -7.014135 -1.600794 -3.343328 0
M  V30 47 H -7.817170 -0.977224 -1.897437 0
M  V30 48 H -4.249553 -3.091296 0.901907 0
M  V30 49 H -4.951285 -4.531723 -0.025597 0
M  V30 50 H -3.509408 -3.681884 -0.639918 0
M  V30 51 H -2.933018 -1.730492 -0.479539 0
M  V30 52 H -0.994704 -1.728804 -1.117007 0
M  V30 53 H 2.583179 -1.661108 -0.397388 0
M  V30 54 H 4.358316 -1.518980 -0.453602 0
M  V30 END ATOM
M  V30 BEGIN BOND
M  V30 1 1 1 2
M  V30 2 1 2 3
M  V30 3 2 3 4
M  V30 4 1 3 5
M  V30 5 1 5 6
M  V30 6 1 6 7
M  V30 7 1 7 8
M  V30 8 1 8 9
M  V30 9 1 9 10
M  V30 10 1 10 11
M  V30 11 1 11 12
M  V30 12 1 12 13
M  V30 13 2 13 14
M  V30 14 1 14 15
M  V30 15 2 15 16
M  V30 16 1 16 17
M  V30 17 2 17 18
M  V30 18 1 18 19
M  V30 19 2 19 20
M  V30 20 1 20 21
M  V30 21 1 20 22
M  V30 22 1 22 23
M  V30 23 1 23 24
M  V30 24 2 22 25
M  V30 25 1 16 26
M  V30 26 2 26 27
M  V30 27 1 27 28
M  V30 28 1 10 29
M  V30 29 1 29 6
M  V30 30 2 28 11
M  V30 31 1 28 14
M  V30 32 1 25 17
M  V30 33 1 1 30
M  V30 34 1 1 31
M  V30 35 1 1 32
M  V30 36 1 2 33
M  V30 37 1 2 34
M  V30 38 1 5 35
M  V30 39 1 6 36
M  V30 40 1 7 37
M  V30 41 1 7 38
M  V30 42 1 8 39
M  V30 43 1 8 40
M  V30 44 1 9 41
M  V30 45 1 9 42
M  V30 46 1 15 43
M  V30 47 1 18 44
M  V30 48 1 19 45
M  V30 49 1 21 46
M  V30 50 1 21 47
M  V30 51 1 24 48
M  V30 52 1 24 49
M  V30 53 1 24 50
M  V30 54 1 25 51
M  V30 55 1 26 52
M  V30 56 1 29 53
M  V30 57 1 29 54
M  V30 END BOND
M  V30 END CTAB
M  END
>  <Dataset>  (196) 
ChEMBL_Kinases

>  <Ligand_Instance>  (196) 
nan

>  <PDB_ID>  (196) 
nan

>  <Standardized_SMILES>  (196) 
CCC(=O)NC1CCCN(c2snc3cc(-c4ccc(N)c(OC)c4)cnc23)C1

>  <Name>  (196) 
nan

>  <Pocket>  (196) 
nan

>  <ATP_Site>  (196) 
nan

>  <Peripheral>  (196) 
nan

>  <Num_H_Atoms_ProtBoundConf>  (196) 
nan

>  <Num_Resolved_Atoms>  (196) 
nan

>  <Num_Not_Resolved_Atoms>  (196) 
nan

$$$$
CHEMBL4798156
     RDKit          3D

  0  0  0  0  0  0  0  0  0  0999 V3000
M  V30 BEGIN CTAB
M  V30 COUNTS 58 61 0 0 0
M  V30 BEGIN ATOM
M  V30 1 C 1.152246 -0.076319 7.330763 0
M  V30 2 C 1.850346 0.619028 6.197723 0
M  V30 3 O 1.760125 1.876578 6.397909 0
M  V30 4 N 2.497219 0.029419 5.098518 0
M  V30 5 C 3.123905 0.863546 4.088146 0 CFG=1
M  V30 6 C 4.606302 0.668609 4.147603 0
M  V30 7 C 5.098978 -0.609837 3.554574 0
M  V30 8 C 4.114161 -1.198751 2.589661 0
M  V30 9 C 3.398119 -0.103756 1.837209 0 CFG=1
M  V30 10 C 2.696034 -0.628852 0.639527 0
M  V30 11 O 2.837896 -1.880286 0.481781 0
M  V30 12 N 1.961014 0.246100 -0.195176 0
M  V30 13 C 1.355626 -0.451296 -1.300373 0
M  V30 14 C 0.070483 -0.948676 -1.057834 0
M  V30 15 C -0.549371 -1.628441 -2.100052 0
M  V30 16 C -1.891356 -2.171959 -1.911357 0
M  V30 17 C -2.259962 -3.438551 -1.442162 0
M  V30 18 N -3.598515 -3.560819 -1.410587 0
M  V30 19 N -4.067280 -2.402698 -1.848158 0
M  V30 20 C -3.084672 -1.528426 -2.164389 0
M  V30 21 C -3.701225 -0.275325 -2.638791 0
M  V30 22 C -4.984206 -0.835233 -3.240676 0
M  V30 23 C -6.018026 0.206792 -3.516175 0
M  V30 24 C -4.694032 -1.720419 -4.427845 0
M  V30 25 C -5.372308 -1.777282 -2.095419 0
M  V30 26 C 0.063717 -1.814603 -3.332019 0
M  V30 27 Cl -0.744628 -2.676735 -4.627715 0
M  V30 28 C 1.350114 -1.288499 -3.499864 0
M  V30 29 N 1.973098 -0.622600 -2.498170 0
M  V30 30 C 2.510460 0.679749 2.739868 0
M  V30 31 H 0.089332 0.268841 7.402795 0
M  V30 32 H 1.214742 -1.182885 7.231520 0
M  V30 33 H 1.624662 0.191906 8.302567 0
M  V30 34 H 2.437373 -1.000620 5.159072 0
M  V30 35 H 2.940442 1.916207 4.438746 0
M  V30 36 H 5.195344 1.558218 3.788806 0
M  V30 37 H 4.863979 0.624116 5.245446 0
M  V30 38 H 6.030594 -0.377075 2.963871 0
M  V30 39 H 5.432917 -1.357034 4.322715 0
M  V30 40 H 3.414045 -1.865708 3.144951 0
M  V30 41 H 4.625747 -1.874738 1.843766 0
M  V30 42 H 4.204459 0.579237 1.456175 0
M  V30 43 H 1.928402 1.259080 0.054622 0
M  V30 44 H -0.411042 -0.807269 -0.104563 0
M  V30 45 H -1.523247 -4.201251 -1.149354 0
M  V30 46 H -3.999285 0.312086 -1.749483 0
M  V30 47 H -3.094903 0.278622 -3.376349 0
M  V30 48 H -6.129391 0.234970 -4.639067 0
M  V30 49 H -5.727228 1.173020 -3.105337 0
M  V30 50 H -6.991565 -0.184774 -3.162309 0
M  V30 51 H -5.407003 -2.588097 -4.377352 0
M  V30 52 H -4.680753 -1.206595 -5.391252 0
M  V30 53 H -3.692100 -2.190368 -4.251514 0
M  V30 54 H -6.132949 -2.499764 -2.405685 0
M  V30 55 H -5.637425 -1.204464 -1.179115 0
M  V30 56 H 1.849215 -1.422677 -4.455403 0
M  V30 57 H 1.478024 0.282251 2.815278 0
M  V30 58 H 2.387960 1.696457 2.267200 0
M  V30 END ATOM
M  V30 BEGIN BOND
M  V30 1 1 1 2
M  V30 2 2 2 3
M  V30 3 1 2 4
M  V30 4 1 4 5
M  V30 5 1 5 6
M  V30 6 1 6 7
M  V30 7 1 7 8
M  V30 8 1 8 9
M  V30 9 1 9 10
M  V30 10 2 10 11
M  V30 11 1 10 12
M  V30 12 1 12 13
M  V30 13 2 13 14
M  V30 14 1 14 15
M  V30 15 1 15 16
M  V30 16 1 16 17
M  V30 17 2 17 18
M  V30 18 1 18 19
M  V30 19 1 19 20
M  V30 20 1 20 21
M  V30 21 1 21 22
M  V30 22 1 22 23
M  V30 23 1 22 24
M  V30 24 1 22 25
M  V30 25 2 15 26
M  V30 26 1 26 27
M  V30 27 1 26 28
M  V30 28 2 28 29
M  V30 29 1 9 30
M  V30 30 1 30 5
M  V30 31 1 29 13
M  V30 32 2 20 16
M  V30 33 1 25 19
M  V30 34 1 1 31
M  V30 35 1 1 32
M  V30 36 1 1 33
M  V30 37 1 4 34
M  V30 38 1 5 35 CFG=1
M  V30 39 1 6 36
M  V30 40 1 6 37
M  V30 41 1 7 38
M  V30 42 1 7 39
M  V30 43 1 8 40
M  V30 44 1 8 41
M  V30 45 1 9 42 CFG=3
M  V30 46 1 12 43
M  V30 47 1 14 44
M  V30 48 1 17 45
M  V30 49 1 21 46
M  V30 50 1 21 47
M  V30 51 1 23 48
M  V30 52 1 23 49
M  V30 53 1 23 50
M  V30 54 1 24 51
M  V30 55 1 24 52
M  V30 56 1 24 53
M  V30 57 1 25 54
M  V30 58 1 25 55
M  V30 59 1 28 56
M  V30 60 1 30 57
M  V30 61 1 30 58
M  V30 END BOND
M  V30 END CTAB
M  END
>  <Dataset>  (197) 
ChEMBL_Kinases

>  <Ligand_Instance>  (197) 
nan

>  <PDB_ID>  (197) 
nan

>  <Standardized_SMILES>  (197) 
CC(=O)N[C@H]1CCC[C@@H](C(=O)Nc2cc(-c3cnn4c3CC(C)(C)C4)c(Cl)cn2)C1

>  <Name>  (197) 
nan

>  <Pocket>  (197) 
nan

>  <ATP_Site>  (197) 
nan

>  <Peripheral>  (197) 
nan

>  <Num_H_Atoms_ProtBoundConf>  (197) 
nan

>  <Num_Resolved_Atoms>  (197) 
nan

>  <Num_Not_Resolved_Atoms>  (197) 
nan

$$$$
CHEMBL4798160
     RDKit          3D

  0  0  0  0  0  0  0  0  0  0999 V3000
M  V30 BEGIN CTAB
M  V30 COUNTS 70 74 0 0 0
M  V30 BEGIN ATOM
M  V30 1 C 5.508304 -6.786270 3.616121 0
M  V30 2 N 5.730327 -5.974176 2.457034 0
M  V30 3 C 6.333317 -6.697741 1.363884 0
M  V30 4 C 6.624680 -5.878050 0.174471 0
M  V30 5 N 6.064159 -4.572056 0.149498 0
M  V30 6 C 6.144343 -3.898836 -1.095136 0
M  V30 7 C 5.556150 -2.493753 -1.067342 0
M  V30 8 C 5.659700 -1.819083 -2.396556 0
M  V30 9 O 5.110930 -0.541175 -2.350373 0
M  V30 10 C 3.814632 -0.200060 -2.110284 0
M  V30 11 C 2.617330 -0.825919 -1.863520 0
M  V30 12 C 1.433496 -0.151942 -1.649250 0
M  V30 13 C 1.434268 1.228166 -1.681890 0
M  V30 14 N 0.102423 1.718000 -1.431837 0
M  V30 15 C -0.809349 1.939668 -2.527515 0
M  V30 16 O -0.724264 1.432229 -3.659594 0
M  V30 17 S -2.021021 3.089601 -1.812590 0
M  V30 18 C -1.784769 2.483057 -0.118840 0
M  V30 19 C -2.571347 2.422939 0.935394 0
M  V30 20 C -3.944687 2.906934 0.878173 0
M  V30 21 C -4.544643 3.539094 1.945396 0
M  V30 22 C -5.857635 4.010271 1.925835 0
M  V30 23 C -6.604057 3.828389 0.755310 0
M  V30 24 O -7.924708 4.310205 0.758528 0
M  V30 25 C -8.970255 3.465485 1.179228 0
M  V30 26 C -9.690689 2.630587 0.348530 0
M  V30 27 C -10.706085 1.838163 0.876533 0
M  V30 28 C -11.013122 1.864328 2.216685 0
M  V30 29 C -12.069638 1.026688 2.700570 0
M  V30 30 N -12.945057 0.353056 3.086373 0
M  V30 31 C -10.285681 2.705673 3.049048 0
M  V30 32 C -9.280319 3.494655 2.541516 0
M  V30 33 C -6.046122 3.201079 -0.338386 0
M  V30 34 C -4.737630 2.762082 -0.240978 0
M  V30 35 C -0.406821 2.005880 -0.131297 0
M  V30 36 O 0.286637 1.857149 0.919891 0
M  V30 37 C 2.605331 1.928570 -1.926508 0
M  V30 38 C 3.763124 1.206009 -2.134262 0
M  V30 39 C 4.933912 -4.298069 0.945769 0
M  V30 40 C 4.578022 -5.261673 2.012776 0
M  V30 41 H 5.446497 -7.839060 3.302412 0
M  V30 42 H 4.548573 -6.453153 4.087094 0
M  V30 43 H 6.317094 -6.633516 4.361315 0
M  V30 44 H 5.650316 -7.563577 1.120731 0
M  V30 45 H 7.269388 -7.159818 1.739307 0
M  V30 46 H 6.306120 -6.420208 -0.737886 0
M  V30 47 H 7.738260 -5.744881 0.050755 0
M  V30 48 H 7.223127 -3.760205 -1.353129 0
M  V30 49 H 5.731122 -4.483790 -1.949550 0
M  V30 50 H 6.197651 -1.867731 -0.368573 0
M  V30 51 H 4.542329 -2.530926 -0.696462 0
M  V30 52 H 6.719312 -1.823546 -2.727459 0
M  V30 53 H 5.138074 -2.460115 -3.178120 0
M  V30 54 H 2.713780 -1.893370 -1.875477 0
M  V30 55 H 0.602352 -0.822519 -1.471424 0
M  V30 56 H -2.194627 2.006253 1.859571 0
M  V30 57 H -3.955422 3.679437 2.863276 0
M  V30 58 H -6.240389 4.495873 2.824365 0
M  V30 59 H -9.372617 2.683229 -0.685652 0
M  V30 60 H -11.195230 1.233111 0.139105 0
M  V30 61 H -10.590849 2.667036 4.088836 0
M  V30 62 H -8.774752 4.113594 3.270499 0
M  V30 63 H -6.626360 3.063554 -1.239461 0
M  V30 64 H -4.341588 2.272013 -1.132549 0
M  V30 65 H 2.450076 2.992787 -1.921483 0
M  V30 66 H 4.569884 1.941978 -2.308729 0
M  V30 67 H 5.027567 -3.269304 1.377547 0
M  V30 68 H 4.042711 -4.239557 0.253529 0
M  V30 69 H 3.776286 -5.978405 1.726345 0
M  V30 70 H 4.199896 -4.688657 2.899368 0
M  V30 END ATOM
M  V30 BEGIN BOND
M  V30 1 1 1 2
M  V30 2 1 2 3
M  V30 3 1 3 4
M  V30 4 1 4 5
M  V30 5 1 5 6
M  V30 6 1 6 7
M  V30 7 1 7 8
M  V30 8 1 8 9
M  V30 9 1 9 10
M  V30 10 2 10 11
M  V30 11 1 11 12
M  V30 12 2 12 13
M  V30 13 1 13 14
M  V30 14 1 14 15
M  V30 15 2 15 16
M  V30 16 1 15 17
M  V30 17 1 17 18
M  V30 18 2 18 19
M  V30 19 1 19 20
M  V30 20 2 20 21
M  V30 21 1 21 22
M  V30 22 2 22 23
M  V30 23 1 23 24
M  V30 24 1 24 25
M  V30 25 2 25 26
M  V30 26 1 26 27
M  V30 27 2 27 28
M  V30 28 1 28 29
M  V30 29 3 29 30
M  V30 30 1 28 31
M  V30 31 2 31 32
M  V30 32 1 23 33
M  V30 33 2 33 34
M  V30 34 1 18 35
M  V30 35 2 35 36
M  V30 36 1 13 37
M  V30 37 2 37 38
M  V30 38 1 5 39
M  V30 39 1 39 40
M  V30 40 1 40 2
M  V30 41 1 38 10
M  V30 42 1 35 14
M  V30 43 1 34 20
M  V30 44 1 32 25
M  V30 45 1 1 41
M  V30 46 1 1 42
M  V30 47 1 1 43
M  V30 48 1 3 44
M  V30 49 1 3 45
M  V30 50 1 4 46
M  V30 51 1 4 47
M  V30 52 1 6 48
M  V30 53 1 6 49
M  V30 54 1 7 50
M  V30 55 1 7 51
M  V30 56 1 8 52
M  V30 57 1 8 53
M  V30 58 1 11 54
M  V30 59 1 12 55
M  V30 60 1 19 56
M  V30 61 1 21 57
M  V30 62 1 22 58
M  V30 63 1 26 59
M  V30 64 1 27 60
M  V30 65 1 31 61
M  V30 66 1 32 62
M  V30 67 1 33 63
M  V30 68 1 34 64
M  V30 69 1 37 65
M  V30 70 1 38 66
M  V30 71 1 39 67
M  V30 72 1 39 68
M  V30 73 1 40 69
M  V30 74 1 40 70
M  V30 END BOND
M  V30 END CTAB
M  END
>  <Dataset>  (198) 
ChEMBL_Kinases

>  <Ligand_Instance>  (198) 
nan

>  <PDB_ID>  (198) 
nan

>  <Standardized_SMILES>  (198) 
CN1CCN(CCCOc2ccc(N3C(=O)S/C(=C\c4ccc(Oc5ccc(C#N)cc5)cc4)C3=O)cc2)CC1

>  <Name>  (198) 
nan

>  <Pocket>  (198) 
nan

>  <ATP_Site>  (198) 
nan

>  <Peripheral>  (198) 
nan

>  <Num_H_Atoms_ProtBoundConf>  (198) 
nan

>  <Num_Resolved_Atoms>  (198) 
nan

>  <Num_Not_Resolved_Atoms>  (198) 
nan

$$$$
CHEMBL4798207
     RDKit          3D

  0  0  0  0  0  0  0  0  0  0999 V3000
M  V30 BEGIN CTAB
M  V30 COUNTS 55 59 0 0 0
M  V30 BEGIN ATOM
M  V30 1 C -0.330525 0.174070 4.617076 0
M  V30 2 N 0.408323 -0.942016 5.187766 0
M  V30 3 C 1.734682 -0.515786 5.594923 0
M  V30 4 C 2.631912 -0.557654 4.374307 0
M  V30 5 N 2.807908 -1.919007 4.004906 0
M  V30 6 C 3.461381 -2.145131 2.767713 0
M  V30 7 C 2.774384 -1.552383 1.600367 0
M  V30 8 C 3.146104 -0.243758 1.265333 0
M  V30 9 C 2.557957 0.396093 0.187539 0
M  V30 10 C 1.601589 -0.270015 -0.552598 0
M  V30 11 C 0.973429 0.393572 -1.693062 0
M  V30 12 C 1.579988 1.325293 -2.515424 0
M  V30 13 N 0.920879 1.885718 -3.545414 0
M  V30 14 C -0.347280 1.565875 -3.817438 0
M  V30 15 N -1.262803 1.936389 -4.749284 0
M  V30 16 C -2.428733 1.304889 -4.586584 0
M  V30 17 C -2.320215 0.451593 -3.486312 0
M  V30 18 C -3.377196 -0.397608 -2.999443 0
M  V30 19 C -4.639395 0.201322 -2.907793 0
M  V30 20 C -5.703578 -0.556605 -2.447369 0
M  V30 21 C -5.564947 -1.880079 -2.075975 0
M  V30 22 F -6.622837 -2.599867 -1.628541 0
M  V30 23 C -4.325435 -2.477622 -2.163149 0
M  V30 24 C -3.273072 -1.718764 -2.621234 0
M  V30 25 C -1.030902 0.641133 -3.043929 0
M  V30 26 C -0.351686 0.070014 -1.990280 0
M  V30 27 C 1.218671 -1.567812 -0.237137 0
M  V30 28 C 1.815083 -2.195742 0.843429 0
M  V30 29 C 1.742063 -2.787980 4.356481 0
M  V30 30 C 0.434257 -2.042723 4.275998 0
M  V30 31 H 0.297854 1.101100 4.582719 0
M  V30 32 H -0.638733 -0.040438 3.565886 0
M  V30 33 H -1.210946 0.403440 5.258494 0
M  V30 34 H 2.113930 -1.281275 6.304639 0
M  V30 35 H 1.728551 0.471115 6.076839 0
M  V30 36 H 2.151678 0.063041 3.584720 0
M  V30 37 H 3.642079 -0.142721 4.623348 0
M  V30 38 H 4.493433 -1.744242 2.818444 0
M  V30 39 H 3.551583 -3.237894 2.619737 0
M  V30 40 H 3.898926 0.334055 1.816266 0
M  V30 41 H 2.845594 1.393359 -0.062409 0
M  V30 42 H 2.605366 1.577831 -2.288230 0
M  V30 43 H -1.032982 2.639731 -5.489215 0
M  V30 44 H -3.317387 1.422335 -5.194642 0
M  V30 45 H -4.826015 1.248223 -3.184726 0
M  V30 46 H -6.669749 -0.097886 -2.377394 0
M  V30 47 H -4.164132 -3.493570 -1.889098 0
M  V30 48 H -2.280226 -2.158961 -2.702386 0
M  V30 49 H -0.869905 -0.661611 -1.366476 0
M  V30 50 H 0.468985 -2.113974 -0.802616 0
M  V30 51 H 1.547447 -3.202958 1.123397 0
M  V30 52 H 1.877430 -3.102564 5.417474 0
M  V30 53 H 1.706082 -3.728533 3.777965 0
M  V30 54 H -0.349299 -2.768010 4.642274 0
M  V30 55 H 0.145514 -1.795938 3.237368 0
M  V30 END ATOM
M  V30 BEGIN BOND
M  V30 1 1 1 2
M  V30 2 1 2 3
M  V30 3 1 3 4
M  V30 4 1 4 5
M  V30 5 1 5 6
M  V30 6 1 6 7
M  V30 7 2 7 8
M  V30 8 1 8 9
M  V30 9 2 9 10
M  V30 10 1 10 11
M  V30 11 2 11 12
M  V30 12 1 12 13
M  V30 13 2 13 14
M  V30 14 1 14 15
M  V30 15 1 15 16
M  V30 16 2 16 17
M  V30 17 1 17 18
M  V30 18 2 18 19
M  V30 19 1 19 20
M  V30 20 2 20 21
M  V30 21 1 21 22
M  V30 22 1 21 23
M  V30 23 2 23 24
M  V30 24 1 17 25
M  V30 25 2 25 26
M  V30 26 1 10 27
M  V30 27 2 27 28
M  V30 28 1 5 29
M  V30 29 1 29 30
M  V30 30 1 30 2
M  V30 31 1 28 7
M  V30 32 1 26 11
M  V30 33 1 25 14
M  V30 34 1 24 18
M  V30 35 1 1 31
M  V30 36 1 1 32
M  V30 37 1 1 33
M  V30 38 1 3 34
M  V30 39 1 3 35
M  V30 40 1 4 36
M  V30 41 1 4 37
M  V30 42 1 6 38
M  V30 43 1 6 39
M  V30 44 1 8 40
M  V30 45 1 9 41
M  V30 46 1 12 42
M  V30 47 1 15 43
M  V30 48 1 16 44
M  V30 49 1 19 45
M  V30 50 1 20 46
M  V30 51 1 23 47
M  V30 52 1 24 48
M  V30 53 1 26 49
M  V30 54 1 27 50
M  V30 55 1 28 51
M  V30 56 1 29 52
M  V30 57 1 29 53
M  V30 58 1 30 54
M  V30 59 1 30 55
M  V30 END BOND
M  V30 END CTAB
M  END
>  <Dataset>  (199) 
ChEMBL_Kinases

>  <Ligand_Instance>  (199) 
nan

>  <PDB_ID>  (199) 
nan

>  <Standardized_SMILES>  (199) 
CN1CCN(Cc2ccc(-c3cnc4[nH]cc(-c5ccc(F)cc5)c4c3)cc2)CC1

>  <Name>  (199) 
nan

>  <Pocket>  (199) 
nan

>  <ATP_Site>  (199) 
nan

>  <Peripheral>  (199) 
nan

>  <Num_H_Atoms_ProtBoundConf>  (199) 
nan

>  <Num_Resolved_Atoms>  (199) 
nan

>  <Num_Not_Resolved_Atoms>  (199) 
nan

$$$$
CHEMBL4798265
     RDKit          3D

  0  0  0  0  0  0  0  0  0  0999 V3000
M  V30 BEGIN CTAB
M  V30 COUNTS 73 77 0 0 0
M  V30 BEGIN ATOM
M  V30 1 C 6.933065 -1.161123 -0.451931 0
M  V30 2 C 5.691905 -0.965154 -1.257563 0
M  V30 3 C 5.339960 0.499316 -1.357835 0
M  V30 4 O 5.371389 1.105125 -2.480094 0
M  V30 5 N 4.951348 1.370979 -0.322626 0
M  V30 6 C 4.721693 2.646070 -0.892139 0
M  V30 7 C 3.439764 2.949792 -1.343747 0
M  V30 8 C 3.406540 4.224646 -1.864588 0
M  V30 9 C 2.247744 4.939592 -2.449773 0
M  V30 10 C 2.230433 6.443313 -2.480614 0
M  V30 11 C 2.480475 5.673617 -3.778449 0
M  V30 12 N 4.666147 4.668713 -1.719096 0
M  V30 13 N 5.452916 3.745675 -1.146053 0
M  V30 14 C 4.519782 -1.701989 -0.778179 0
M  V30 15 C 4.059025 -1.790173 0.503042 0
M  V30 16 C 2.931647 -2.510517 0.844927 0
M  V30 17 C 2.187049 -3.198208 -0.100030 0
M  V30 18 C 1.007616 -3.966002 0.191156 0
M  V30 19 C 0.723750 -4.670401 1.347016 0
M  V30 20 C -0.454626 -5.371134 1.502935 0
M  V30 21 C -1.416363 -5.401936 0.500167 0
M  V30 22 C -2.638382 -6.197754 0.798013 0
M  V30 23 N -3.579885 -5.304005 1.448945 0
M  V30 24 C -4.390882 -4.306978 0.892598 0
M  V30 25 O -4.346315 -4.103718 -0.345576 0
M  V30 26 C -5.285173 -3.499997 1.715085 0
M  V30 27 C -6.033285 -2.576056 1.182690 0
M  V30 28 C -6.924387 -1.787869 2.080124 0
M  V30 29 N -6.540170 -0.421282 1.958307 0
M  V30 30 C -7.253044 0.527748 2.726773 0
M  V30 31 C -6.367468 1.186005 3.737907 0
M  V30 32 O -5.185371 0.458381 3.930469 0
M  V30 33 C -4.440412 0.567903 2.757580 0
M  V30 34 C -5.183071 -0.151461 1.658222 0
M  V30 35 C -1.175419 -4.713604 -0.670107 0
M  V30 36 C 0.012295 -4.025446 -0.789026 0
M  V30 37 C 2.624233 -3.134790 -1.425471 0
M  V30 38 C 3.751088 -2.401248 -1.693914 0
M  V30 39 H 6.763786 -1.008722 0.614592 0
M  V30 40 H 7.680831 -0.378977 -0.750058 0
M  V30 41 H 7.419817 -2.124183 -0.716236 0
M  V30 42 H 5.927771 -1.283151 -2.310673 0
M  V30 43 H 4.897634 0.972869 0.636825 0
M  V30 44 H 2.524752 2.337022 -1.332180 0
M  V30 45 H 1.297162 4.368830 -2.444595 0
M  V30 46 H 1.270301 6.974350 -2.347425 0
M  V30 47 H 3.137741 6.922898 -2.014412 0
M  V30 48 H 1.657720 5.676502 -4.527620 0
M  V30 49 H 3.527582 5.628454 -4.142119 0
M  V30 50 H 4.968499 5.629123 -2.026606 0
M  V30 51 H 4.599510 -1.282371 1.276740 0
M  V30 52 H 2.596895 -2.554741 1.880317 0
M  V30 53 H 1.505775 -4.620108 2.108618 0
M  V30 54 H -0.613461 -5.905841 2.444368 0
M  V30 55 H -3.027285 -6.564220 -0.177764 0
M  V30 56 H -2.439909 -7.098362 1.396102 0
M  V30 57 H -3.664020 -5.426399 2.499536 0
M  V30 58 H -5.314333 -3.687800 2.791648 0
M  V30 59 H -6.034386 -2.358413 0.124895 0
M  V30 60 H -6.860428 -2.100557 3.121175 0
M  V30 61 H -7.995973 -1.916715 1.791376 0
M  V30 62 H -8.151395 0.055560 3.174773 0
M  V30 63 H -7.665522 1.301728 2.025019 0
M  V30 64 H -6.099232 2.207644 3.368878 0
M  V30 65 H -6.956309 1.248010 4.695833 0
M  V30 66 H -4.288955 1.644771 2.516263 0
M  V30 67 H -3.459790 0.063047 2.876528 0
M  V30 68 H -4.674313 -1.088021 1.363806 0
M  V30 69 H -5.168171 0.498207 0.737844 0
M  V30 70 H -1.916863 -4.746276 -1.427419 0
M  V30 71 H 0.111920 -3.511042 -1.751493 0
M  V30 72 H 2.093232 -3.643921 -2.197436 0
M  V30 73 H 4.054540 -2.380847 -2.745118 0
M  V30 END ATOM
M  V30 BEGIN BOND
M  V30 1 1 1 2
M  V30 2 1 2 3
M  V30 3 2 3 4
M  V30 4 1 3 5
M  V30 5 1 5 6
M  V30 6 1 6 7
M  V30 7 2 7 8
M  V30 8 1 8 9
M  V30 9 1 9 10
M  V30 10 1 10 11
M  V30 11 1 8 12
M  V30 12 1 12 13
M  V30 13 1 2 14
M  V30 14 2 14 15
M  V30 15 1 15 16
M  V30 16 2 16 17
M  V30 17 1 17 18
M  V30 18 2 18 19
M  V30 19 1 19 20
M  V30 20 2 20 21
M  V30 21 1 21 22
M  V30 22 1 22 23
M  V30 23 1 23 24
M  V30 24 2 24 25
M  V30 25 1 24 26
M  V30 26 2 26 27
M  V30 27 1 27 28
M  V30 28 1 28 29
M  V30 29 1 29 30
M  V30 30 1 30 31
M  V30 31 1 31 32
M  V30 32 1 32 33
M  V30 33 1 33 34
M  V30 34 1 21 35
M  V30 35 2 35 36
M  V30 36 1 17 37
M  V30 37 2 37 38
M  V30 38 2 13 6
M  V30 39 1 38 14
M  V30 40 1 11 9
M  V30 41 1 36 18
M  V30 42 1 34 29
M  V30 43 1 1 39
M  V30 44 1 1 40
M  V30 45 1 1 41
M  V30 46 1 2 42
M  V30 47 1 5 43
M  V30 48 1 7 44
M  V30 49 1 9 45
M  V30 50 1 10 46
M  V30 51 1 10 47
M  V30 52 1 11 48
M  V30 53 1 11 49
M  V30 54 1 12 50
M  V30 55 1 15 51
M  V30 56 1 16 52
M  V30 57 1 19 53
M  V30 58 1 20 54
M  V30 59 1 22 55
M  V30 60 1 22 56
M  V30 61 1 23 57
M  V30 62 1 26 58
M  V30 63 1 27 59
M  V30 64 1 28 60
M  V30 65 1 28 61
M  V30 66 1 30 62
M  V30 67 1 30 63
M  V30 68 1 31 64
M  V30 69 1 31 65
M  V30 70 1 33 66
M  V30 71 1 33 67
M  V30 72 1 34 68
M  V30 73 1 34 69
M  V30 74 1 35 70
M  V30 75 1 36 71
M  V30 76 1 37 72
M  V30 77 1 38 73
M  V30 END BOND
M  V30 END CTAB
M  END
>  <Dataset>  (200) 
ChEMBL_Kinases

>  <Ligand_Instance>  (200) 
nan

>  <PDB_ID>  (200) 
nan

>  <Standardized_SMILES>  (200) 
CC(C(=O)Nc1cc(C2CC2)[nH]n1)c1ccc(-c2ccc(CNC(=O)/C=C/CN3CCOCC3)cc2)cc1

>  <Name>  (200) 
nan

>  <Pocket>  (200) 
nan

>  <ATP_Site>  (200) 
nan

>  <Peripheral>  (200) 
nan

>  <Num_H_Atoms_ProtBoundConf>  (200) 
nan

>  <Num_Resolved_Atoms>  (200) 
nan

>  <Num_Not_Resolved_Atoms>  (200) 
nan

$$$$
CHEMBL4798320
     RDKit          3D

  0  0  0  0  0  0  0  0  0  0999 V3000
M  V30 BEGIN CTAB
M  V30 COUNTS 83 86 0 0 0
M  V30 BEGIN ATOM
M  V30 1 C 2.626522 -1.112492 -2.121071 0
M  V30 2 C 2.263893 -2.526496 -1.667160 0
M  V30 3 C 1.481509 -3.260491 -2.725993 0
M  V30 4 C 1.135154 -4.667988 -2.230223 0
M  V30 5 N 0.239932 -2.596460 -3.045913 0
M  V30 6 C -0.414805 -2.246911 -4.271400 0
M  V30 7 O 0.239973 -2.601334 -5.274159 0
M  V30 8 C -1.754888 -1.529943 -4.153409 0 CFG=2
M  V30 9 C -1.723173 -0.328748 -5.019839 0
M  V30 10 C -0.633667 0.630186 -4.646740 0
M  V30 11 C -0.539028 1.849013 -5.524786 0
M  V30 12 C -1.721917 2.715999 -5.578011 0
M  V30 13 C -1.626631 4.003694 -4.823312 0
M  V30 14 C -0.311375 4.685791 -4.854763 0
M  V30 15 C 0.777399 3.976678 -5.596787 0
M  V30 16 C 0.751489 2.545241 -5.185840 0
M  V30 17 N -2.011164 -1.232573 -2.776558 0
M  V30 18 C -2.767293 -1.871258 -1.764431 0
M  V30 19 O -3.375387 -2.960302 -2.067010 0
M  V30 20 C -2.915100 -1.402736 -0.395283 0
M  V30 21 C -2.567850 -0.133095 0.018314 0
M  V30 22 C -2.686118 0.308175 1.336603 0
M  V30 23 C -3.180844 -0.565983 2.311665 0
M  V30 24 C -3.267539 0.057348 3.656048 0
M  V30 25 N -2.030763 -0.000574 4.396006 0
M  V30 26 C -1.377384 -1.031825 5.108713 0
M  V30 27 O -1.997137 -2.121514 5.096856 0
M  V30 28 C -0.112915 -0.731926 5.752868 0
M  V30 29 C 0.548539 0.470486 5.768421 0
M  V30 30 N 1.679899 0.332487 6.465342 0
M  V30 31 N 1.765544 -0.914837 6.895410 0
M  V30 32 C 2.893837 -1.275591 7.658589 0
M  V30 33 C 2.999316 -1.553150 8.992084 0
M  V30 34 C 4.209825 -1.885005 9.581338 0
M  V30 35 C 5.354998 -1.933714 8.784749 0
M  V30 36 C 5.298537 -1.659249 7.422882 0
M  V30 37 C 4.067469 -1.341922 6.916450 0
M  V30 38 C 0.680538 -1.586217 6.473696 0
M  V30 39 N 0.429576 -2.954397 6.748592 0
M  V30 40 C -3.528575 -1.837538 1.904005 0
M  V30 41 C -3.397186 -2.233114 0.591395 0
M  V30 42 H 2.966666 -1.172679 -3.173189 0
M  V30 43 H 1.734277 -0.459420 -1.980615 0
M  V30 44 H 3.481118 -0.729954 -1.536192 0
M  V30 45 H 3.170276 -3.092013 -1.385546 0
M  V30 46 H 1.636512 -2.484792 -0.735347 0
M  V30 47 H 2.093364 -3.402248 -3.637373 0
M  V30 48 H 0.120000 -4.675011 -1.766637 0
M  V30 49 H 1.137700 -5.371959 -3.092106 0
M  V30 50 H 1.929141 -4.978132 -1.532885 0
M  V30 51 H -0.216456 -2.353656 -2.129338 0
M  V30 52 H -2.520586 -2.262979 -4.551578 0
M  V30 53 H -2.703842 0.181966 -4.917432 0
M  V30 54 H -1.616421 -0.615682 -6.090719 0
M  V30 55 H 0.327922 0.039600 -4.678628 0
M  V30 56 H -0.691137 0.998337 -3.616632 0
M  V30 57 H -0.367257 1.436394 -6.565472 0
M  V30 58 H -2.017470 2.950252 -6.645771 0
M  V30 59 H -2.603735 2.181824 -5.167142 0
M  V30 60 H -2.380707 4.702797 -5.270466 0
M  V30 61 H -1.979727 3.869305 -3.772539 0
M  V30 62 H 0.041939 4.871483 -3.819215 0
M  V30 63 H -0.367854 5.719265 -5.308483 0
M  V30 64 H 0.728919 4.134901 -6.687261 0
M  V30 65 H 1.743718 4.405603 -5.231281 0
M  V30 66 H 1.624286 2.025746 -5.673311 0
M  V30 67 H 0.953818 2.500423 -4.095161 0
M  V30 68 H -1.560188 -0.361160 -2.391864 0
M  V30 69 H -2.179342 0.575379 -0.714298 0
M  V30 70 H -2.381615 1.341692 1.554309 0
M  V30 71 H -3.984414 -0.594827 4.225150 0
M  V30 72 H -3.707814 1.068408 3.634408 0
M  V30 73 H -1.539905 0.944826 4.371399 0
M  V30 74 H 0.229236 1.397577 5.302162 0
M  V30 75 H 2.037350 -1.474762 9.514174 0
M  V30 76 H 4.183601 -2.087450 10.629624 0
M  V30 77 H 6.299518 -2.190587 9.274363 0
M  V30 78 H 6.209194 -1.714416 6.847503 0
M  V30 79 H 4.108606 -1.138079 5.846704 0
M  V30 80 H -0.065738 -3.530174 6.007422 0
M  V30 81 H 0.693702 -3.459535 7.627864 0
M  V30 82 H -3.892054 -2.451127 2.693057 0
M  V30 83 H -3.701363 -3.241515 0.390407 0
M  V30 END ATOM
M  V30 BEGIN BOND
M  V30 1 1 1 2
M  V30 2 1 2 3
M  V30 3 1 3 4
M  V30 4 1 3 5
M  V30 5 1 5 6
M  V30 6 2 6 7
M  V30 7 1 6 8
M  V30 8 1 8 9
M  V30 9 1 9 10
M  V30 10 1 10 11
M  V30 11 1 11 12
M  V30 12 1 12 13
M  V30 13 1 13 14
M  V30 14 1 14 15
M  V30 15 1 15 16
M  V30 16 1 8 17
M  V30 17 1 17 18
M  V30 18 2 18 19
M  V30 19 1 18 20
M  V30 20 2 20 21
M  V30 21 1 21 22
M  V30 22 2 22 23
M  V30 23 1 23 24
M  V30 24 1 24 25
M  V30 25 1 25 26
M  V30 26 2 26 27
M  V30 27 1 26 28
M  V30 28 1 28 29
M  V30 29 2 29 30
M  V30 30 1 30 31
M  V30 31 1 31 32
M  V30 32 2 32 33
M  V30 33 1 33 34
M  V30 34 2 34 35
M  V30 35 1 35 36
M  V30 36 2 36 37
M  V30 37 1 31 38
M  V30 38 1 38 39
M  V30 39 1 23 40
M  V30 40 2 40 41
M  V30 41 1 16 11
M  V30 42 1 41 20
M  V30 43 2 38 28
M  V30 44 1 37 32
M  V30 45 1 1 42
M  V30 46 1 1 43
M  V30 47 1 1 44
M  V30 48 1 2 45
M  V30 49 1 2 46
M  V30 50 1 3 47
M  V30 51 1 4 48
M  V30 52 1 4 49
M  V30 53 1 4 50
M  V30 54 1 5 51
M  V30 55 1 8 52 CFG=3
M  V30 56 1 9 53
M  V30 57 1 9 54
M  V30 58 1 10 55
M  V30 59 1 10 56
M  V30 60 1 11 57
M  V30 61 1 12 58
M  V30 62 1 12 59
M  V30 63 1 13 60
M  V30 64 1 13 61
M  V30 65 1 14 62
M  V30 66 1 14 63
M  V30 67 1 15 64
M  V30 68 1 15 65
M  V30 69 1 16 66
M  V30 70 1 16 67
M  V30 71 1 17 68
M  V30 72 1 21 69
M  V30 73 1 22 70
M  V30 74 1 24 71
M  V30 75 1 24 72
M  V30 76 1 25 73
M  V30 77 1 29 74
M  V30 78 1 33 75
M  V30 79 1 34 76
M  V30 80 1 35 77
M  V30 81 1 36 78
M  V30 82 1 37 79
M  V30 83 1 39 80
M  V30 84 1 39 81
M  V30 85 1 40 82
M  V30 86 1 41 83
M  V30 END BOND
M  V30 END CTAB
M  END
>  <Dataset>  (201) 
ChEMBL_Kinases

>  <Ligand_Instance>  (201) 
nan

>  <PDB_ID>  (201) 
nan

>  <Standardized_SMILES>  (201) 
CCC(C)NC(=O)[C@H](CCC1CCCCC1)NC(=O)c1ccc(CNC(=O)c2cnn(-c3ccccc3)c2N)cc1

>  <Name>  (201) 
nan

>  <Pocket>  (201) 
nan

>  <ATP_Site>  (201) 
nan

>  <Peripheral>  (201) 
nan

>  <Num_H_Atoms_ProtBoundConf>  (201) 
nan

>  <Num_Resolved_Atoms>  (201) 
nan

>  <Num_Not_Resolved_Atoms>  (201) 
nan

$$$$
CHEMBL4798361
     RDKit          3D

  0  0  0  0  0  0  0  0  0  0999 V3000
M  V30 BEGIN CTAB
M  V30 COUNTS 26 28 0 0 0
M  V30 BEGIN ATOM
M  V30 1 N 0.867250 -1.103838 4.268204 0
M  V30 2 C 0.859114 -1.500335 2.909255 0
M  V30 3 N 1.346877 -2.751261 2.795885 0
M  V30 4 C 1.437229 -3.351971 1.571883 0
M  V30 5 N 1.028604 -2.665108 0.489741 0
M  V30 6 C 0.554931 -1.436471 0.645135 0
M  V30 7 C 0.425834 -0.750896 1.830514 0
M  V30 8 C -0.044475 0.554384 2.251508 0
M  V30 9 C -0.516471 1.361118 1.083603 0
M  V30 10 C -0.364137 0.597725 -0.171537 0
M  V30 11 C -0.807619 1.374804 -1.232739 0
M  V30 12 C -0.784330 0.911438 -2.553651 0
M  V30 13 C -0.307704 -0.366772 -2.856570 0
M  V30 14 C 0.132125 -1.135788 -1.798712 0
M  V30 15 C 0.095682 -0.651154 -0.515089 0
M  V30 16 H 0.182441 -0.675015 4.919233 0
M  V30 17 H 1.711485 -1.210130 4.902915 0
M  V30 18 H 1.810719 -4.334896 1.403236 0
M  V30 19 H -0.943442 0.368665 2.915702 0
M  V30 20 H 0.651059 1.108969 2.910225 0
M  V30 21 H 0.084994 2.311637 1.058948 0
M  V30 22 H -1.584787 1.683046 1.236814 0
M  V30 23 H -1.215456 2.393332 -1.218587 0
M  V30 24 H -1.111871 1.460136 -3.419752 0
M  V30 25 H -0.251879 -0.802481 -3.823789 0
M  V30 26 H 0.519786 -2.126066 -1.884231 0
M  V30 END ATOM
M  V30 BEGIN BOND
M  V30 1 1 1 2
M  V30 2 2 2 3
M  V30 3 1 3 4
M  V30 4 2 4 5
M  V30 5 1 5 6
M  V30 6 2 6 7
M  V30 7 1 7 8
M  V30 8 1 8 9
M  V30 9 1 9 10
M  V30 10 2 10 11
M  V30 11 1 11 12
M  V30 12 2 12 13
M  V30 13 1 13 14
M  V30 14 2 14 15
M  V30 15 1 7 2
M  V30 16 1 15 10
M  V30 17 1 15 6
M  V30 18 1 1 16
M  V30 19 1 1 17
M  V30 20 1 4 18
M  V30 21 1 8 19
M  V30 22 1 8 20
M  V30 23 1 9 21
M  V30 24 1 9 22
M  V30 25 1 11 23
M  V30 26 1 12 24
M  V30 27 1 13 25
M  V30 28 1 14 26
M  V30 END BOND
M  V30 END CTAB
M  END
>  <Dataset>  (202) 
ChEMBL_Kinases

>  <Ligand_Instance>  (202) 
nan

>  <PDB_ID>  (202) 
nan

>  <Standardized_SMILES>  (202) 
Nc1ncnc2c1CCc1ccccc1-2

>  <Name>  (202) 
nan

>  <Pocket>  (202) 
nan

>  <ATP_Site>  (202) 
nan

>  <Peripheral>  (202) 
nan

>  <Num_H_Atoms_ProtBoundConf>  (202) 
nan

>  <Num_Resolved_Atoms>  (202) 
nan

>  <Num_Not_Resolved_Atoms>  (202) 
nan

$$$$
CHEMBL4798384
     RDKit          3D

  0  0  0  0  0  0  0  0  0  0999 V3000
M  V30 BEGIN CTAB
M  V30 COUNTS 40 42 0 0 0
M  V30 BEGIN ATOM
M  V30 1 C 0.272683 -6.303601 0.807424 0
M  V30 2 N 0.633001 -5.814859 2.139622 0
M  V30 3 C 0.582208 -4.423785 1.962262 0
M  V30 4 N 1.038810 -4.359468 3.294527 0
M  V30 5 C 1.293291 -3.259523 4.010581 0
M  V30 6 C 1.146871 -1.979068 3.555615 0
M  V30 7 N 0.711523 -1.947090 2.289990 0
M  V30 8 C 0.367540 -0.868932 1.458082 0
M  V30 9 C 1.048463 0.005332 0.639640 0
M  V30 10 C 0.352161 0.998864 -0.015512 0
M  V30 11 C 1.173332 1.872705 -0.852354 0
M  V30 12 O 2.324123 1.498120 -1.178328 0
M  V30 13 N 0.692245 3.114863 -1.284394 0
M  V30 14 C 1.357449 4.110001 -2.106839 0
M  V30 15 C 0.426492 5.112991 -2.763392 0
M  V30 16 C 1.321898 5.535494 -1.647024 0
M  V30 17 C -1.006708 1.126057 0.136878 0
M  V30 18 C -1.755507 0.291336 0.937285 0
M  V30 19 C -1.024731 -0.711140 1.593295 0
M  V30 20 C -1.941983 -1.566350 2.435238 0
M  V30 21 C 0.536034 -3.134943 1.800827 0
M  V30 22 O 0.115186 -3.393110 0.571625 0
M  V30 23 H 0.939481 -5.882679 0.012162 0
M  V30 24 H -0.795853 -6.036229 0.640426 0
M  V30 25 H 0.361860 -7.407918 0.715428 0
M  V30 26 H 0.783394 -6.646357 2.703269 0
M  V30 27 H 1.658902 -3.100393 5.070240 0
M  V30 28 H 1.297664 -1.015603 3.984566 0
M  V30 29 H 2.096461 -0.246638 0.640470 0
M  V30 30 H -0.289734 3.354961 -0.956817 0
M  V30 31 H 2.269982 3.812756 -2.644367 0
M  V30 32 H -0.655080 5.074165 -2.508809 0
M  V30 33 H 0.601360 5.446606 -3.800564 0
M  V30 34 H 2.167109 6.172756 -1.901869 0
M  V30 35 H 0.872770 5.668373 -0.625179 0
M  V30 36 H -1.545625 1.919680 -0.397975 0
M  V30 37 H -2.820416 0.452975 1.009650 0
M  V30 38 H -1.314679 -1.988313 3.250985 0
M  V30 39 H -2.353119 -2.362637 1.813457 0
M  V30 40 H -2.735377 -0.967844 2.915704 0
M  V30 END ATOM
M  V30 BEGIN BOND
M  V30 1 1 1 2
M  V30 2 1 2 3
M  V30 3 2 3 4
M  V30 4 1 4 5
M  V30 5 2 5 6
M  V30 6 1 6 7
M  V30 7 1 7 8
M  V30 8 2 8 9
M  V30 9 1 9 10
M  V30 10 1 10 11
M  V30 11 2 11 12
M  V30 12 1 11 13
M  V30 13 1 13 14
M  V30 14 1 14 15
M  V30 15 1 15 16
M  V30 16 2 10 17
M  V30 17 1 17 18
M  V30 18 2 18 19
M  V30 19 1 19 20
M  V30 20 1 7 21
M  V30 21 2 21 22
M  V30 22 1 21 3
M  V30 23 1 19 8
M  V30 24 1 16 14
M  V30 25 1 1 23
M  V30 26 1 1 24
M  V30 27 1 1 25
M  V30 28 1 2 26
M  V30 29 1 5 27
M  V30 30 1 6 28
M  V30 31 1 9 29
M  V30 32 1 13 30
M  V30 33 1 14 31
M  V30 34 1 15 32
M  V30 35 1 15 33
M  V30 36 1 16 34
M  V30 37 1 16 35
M  V30 38 1 17 36
M  V30 39 1 18 37
M  V30 40 1 20 38
M  V30 41 1 20 39
M  V30 42 1 20 40
M  V30 END BOND
M  V30 END CTAB
M  END
>  <Dataset>  (203) 
ChEMBL_Kinases

>  <Ligand_Instance>  (203) 
nan

>  <PDB_ID>  (203) 
nan

>  <Standardized_SMILES>  (203) 
CNc1nccn(-c2cc(C(=O)NC3CC3)ccc2C)c1=O

>  <Name>  (203) 
nan

>  <Pocket>  (203) 
nan

>  <ATP_Site>  (203) 
nan

>  <Peripheral>  (203) 
nan

>  <Num_H_Atoms_ProtBoundConf>  (203) 
nan

>  <Num_Resolved_Atoms>  (203) 
nan

>  <Num_Not_Resolved_Atoms>  (203) 
nan

$$$$
CHEMBL4798403
     RDKit          3D

  0  0  0  0  0  0  0  0  0  0999 V3000
M  V30 BEGIN CTAB
M  V30 COUNTS 57 61 0 0 0
M  V30 BEGIN ATOM
M  V30 1 C 0.310287 2.702542 4.137535 0
M  V30 2 C 1.302663 1.633163 4.488298 0
M  V30 3 C 1.265823 1.075284 5.755924 0
M  V30 4 C 2.180699 0.084661 6.090025 0
M  V30 5 C 3.108450 -0.319563 5.142239 0
M  V30 6 C 3.140591 0.247354 3.864442 0
M  V30 7 C 4.116515 -0.167155 2.844694 0
M  V30 8 C 2.222083 1.243607 3.525408 0
M  V30 9 C 2.219703 1.865585 2.196710 0
M  V30 10 C 1.486705 1.380347 1.142583 0
M  V30 11 C 1.474301 1.954181 -0.112645 0
M  V30 12 C 2.241823 3.077824 -0.317480 0
M  V30 13 C 2.985434 3.578357 0.734412 0
M  V30 14 N 2.964905 2.977796 1.952740 0
M  V30 15 C 2.030406 3.418572 -1.643434 0
M  V30 16 N 1.172734 2.520113 -2.173842 0
M  V30 17 N 0.825280 1.625080 -1.259747 0
M  V30 18 C -0.058653 0.517783 -1.421041 0
M  V30 19 C -1.314977 0.681068 -1.974258 0
M  V30 20 C -2.098819 -0.447982 -2.089899 0
M  V30 21 C -1.750571 -1.727899 -1.706346 0
M  V30 22 N -2.555133 -2.857473 -1.830973 0
M  V30 23 C -3.888038 -2.849970 -2.399484 0
M  V30 24 C -3.970937 -4.108312 -3.274586 0
M  V30 25 N -4.001590 -5.259598 -2.397720 0
M  V30 26 C -3.341780 -6.378523 -3.044022 0
M  V30 27 C -3.292763 -5.017652 -1.156850 0
M  V30 28 C -2.074865 -4.132693 -1.379885 0
M  V30 29 C -0.484034 -1.808360 -1.164296 0
M  V30 30 C 0.367357 -0.731545 -1.010797 0
M  V30 31 H -0.072360 2.602618 3.111938 0
M  V30 32 H 0.782173 3.686416 4.280773 0
M  V30 33 H -0.563569 2.643042 4.840179 0
M  V30 34 H 0.546861 1.378899 6.510865 0
M  V30 35 H 2.229557 -0.404929 7.043874 0
M  V30 36 H 3.837606 -1.093856 5.375637 0
M  V30 37 H 4.486339 -1.194762 3.093566 0
M  V30 38 H 3.633224 -0.213737 1.844463 0
M  V30 39 H 4.968866 0.542134 2.851864 0
M  V30 40 H 0.898013 0.485801 1.369341 0
M  V30 41 H 3.579574 4.464349 0.541233 0
M  V30 42 H 2.506379 4.272531 -2.104418 0
M  V30 43 H -1.662848 1.649346 -2.299585 0
M  V30 44 H -3.073730 -0.279857 -2.526543 0
M  V30 45 H -4.582152 -2.952546 -1.533610 0
M  V30 46 H -4.121128 -1.959164 -2.978903 0
M  V30 47 H -4.851498 -4.058757 -3.938560 0
M  V30 48 H -3.070693 -4.080203 -3.922385 0
M  V30 49 H -3.648376 -7.303141 -2.531148 0
M  V30 50 H -3.531520 -6.402951 -4.134468 0
M  V30 51 H -2.253125 -6.242375 -2.843644 0
M  V30 52 H -2.965583 -6.013932 -0.776814 0
M  V30 53 H -3.930346 -4.593537 -0.356957 0
M  V30 54 H -1.316320 -4.609245 -1.994167 0
M  V30 55 H -1.625582 -4.022324 -0.350455 0
M  V30 56 H -0.070506 -2.756303 -0.815506 0
M  V30 57 H 1.349158 -0.833864 -0.583185 0
M  V30 END ATOM
M  V30 BEGIN BOND
M  V30 1 1 1 2
M  V30 2 2 2 3
M  V30 3 1 3 4
M  V30 4 2 4 5
M  V30 5 1 5 6
M  V30 6 1 6 7
M  V30 7 2 6 8
M  V30 8 1 8 9
M  V30 9 2 9 10
M  V30 10 1 10 11
M  V30 11 2 11 12
M  V30 12 1 12 13
M  V30 13 2 13 14
M  V30 14 1 12 15
M  V30 15 2 15 16
M  V30 16 1 16 17
M  V30 17 1 17 18
M  V30 18 2 18 19
M  V30 19 1 19 20
M  V30 20 2 20 21
M  V30 21 1 21 22
M  V30 22 1 22 23
M  V30 23 1 23 24
M  V30 24 1 24 25
M  V30 25 1 25 26
M  V30 26 1 25 27
M  V30 27 1 27 28
M  V30 28 1 21 29
M  V30 29 2 29 30
M  V30 30 1 8 2
M  V30 31 1 14 9
M  V30 32 1 30 18
M  V30 33 1 17 11
M  V30 34 1 28 22
M  V30 35 1 1 31
M  V30 36 1 1 32
M  V30 37 1 1 33
M  V30 38 1 3 34
M  V30 39 1 4 35
M  V30 40 1 5 36
M  V30 41 1 7 37
M  V30 42 1 7 38
M  V30 43 1 7 39
M  V30 44 1 10 40
M  V30 45 1 13 41
M  V30 46 1 15 42
M  V30 47 1 19 43
M  V30 48 1 20 44
M  V30 49 1 23 45
M  V30 50 1 23 46
M  V30 51 1 24 47
M  V30 52 1 24 48
M  V30 53 1 26 49
M  V30 54 1 26 50
M  V30 55 1 26 51
M  V30 56 1 27 52
M  V30 57 1 27 53
M  V30 58 1 28 54
M  V30 59 1 28 55
M  V30 60 1 29 56
M  V30 61 1 30 57
M  V30 END BOND
M  V30 END CTAB
M  END
>  <Dataset>  (204) 
ChEMBL_Kinases

>  <Ligand_Instance>  (204) 
nan

>  <PDB_ID>  (204) 
nan

>  <Standardized_SMILES>  (204) 
Cc1cccc(C)c1-c1cc2c(cn1)cnn2-c1ccc(N2CCN(C)CC2)cc1

>  <Name>  (204) 
nan

>  <Pocket>  (204) 
nan

>  <ATP_Site>  (204) 
nan

>  <Peripheral>  (204) 
nan

>  <Num_H_Atoms_ProtBoundConf>  (204) 
nan

>  <Num_Resolved_Atoms>  (204) 
nan

>  <Num_Not_Resolved_Atoms>  (204) 
nan

$$$$
CHEMBL4797249
     RDKit          3D

  0  0  0  0  0  0  0  0  0  0999 V3000
M  V30 BEGIN CTAB
M  V30 COUNTS 54 58 0 0 0
M  V30 BEGIN ATOM
M  V30 1 O 4.508678 -6.150978 1.836675 0
M  V30 2 S 3.938218 -4.764051 1.959527 0
M  V30 3 O 2.459051 -4.953563 2.268583 0
M  V30 4 N 4.126285 -3.983974 0.460439 0
M  V30 5 C 3.702902 -2.724096 0.006369 0
M  V30 6 C 4.435885 -1.796245 -0.704163 0
M  V30 7 C 3.896797 -0.577172 -1.098401 0
M  V30 8 C 2.582453 -0.289194 -0.765495 0
M  V30 9 C 1.980009 0.983277 -1.166366 0
M  V30 10 N 0.717520 1.359322 -0.897923 0
M  V30 11 C 0.437806 2.578969 -1.389031 0
M  V30 12 C -0.865889 3.218875 -1.236392 0
M  V30 13 C -1.032299 4.585730 -1.272618 0
M  V30 14 C -2.323354 5.048583 -1.115361 0
M  V30 15 N -3.394459 4.272100 -0.934634 0
M  V30 16 C -3.270051 2.947074 -0.894116 0
M  V30 17 N -4.428705 2.148990 -0.719298 0
M  V30 18 C -4.691054 0.773074 -0.501159 0
M  V30 19 C -5.790403 0.094530 -0.998318 0
M  V30 20 C -5.957975 -1.224562 -0.709828 0
M  V30 21 C -5.091676 -1.964627 0.063667 0
M  V30 22 O -5.294009 -3.305426 0.335949 0
M  V30 23 C -6.046344 -3.693342 1.494612 0
M  V30 24 F -7.319748 -3.202759 1.458331 0
M  V30 25 F -5.383848 -3.167955 2.591730 0
M  V30 26 F -6.086164 -5.054960 1.615092 0
M  V30 27 C -3.990998 -1.285024 0.561780 0
M  V30 28 C -3.802616 0.067169 0.277189 0
M  V30 29 C -1.996459 2.453119 -1.048085 0
M  V30 30 N 1.588841 2.936641 -1.973162 0
M  V30 31 O 2.476078 1.995842 -1.833777 0
M  V30 32 C 1.829401 -1.202496 -0.054588 0
M  V30 33 C 2.395626 -2.423842 0.330988 0
M  V30 34 C 4.653613 -3.974251 3.299320 0
M  V30 35 C 5.357329 -2.821405 3.377416 0
M  V30 36 C 5.837815 -2.389224 4.589141 0
M  V30 37 C 5.549330 -3.212720 5.702555 0
M  V30 38 Cl 6.018771 -2.939868 7.370321 0
M  V30 39 S 4.559928 -4.618230 4.892011 0
M  V30 40 H 4.628468 -4.412584 -0.350368 0
M  V30 41 H 5.445082 -2.080334 -0.929240 0
M  V30 42 H 4.520855 0.123054 -1.660152 0
M  V30 43 H -0.184618 5.238046 -1.417571 0
M  V30 44 H -2.490601 6.127123 -1.139768 0
M  V30 45 H -5.366344 2.653737 -0.747498 0
M  V30 46 H -6.491877 0.672958 -1.618919 0
M  V30 47 H -6.838362 -1.718099 -1.122791 0
M  V30 48 H -3.321580 -1.903842 1.172998 0
M  V30 49 H -2.905234 0.411348 0.762881 0
M  V30 50 H -1.825881 1.386720 -1.039114 0
M  V30 51 H 0.788100 -0.957508 0.201262 0
M  V30 52 H 1.708223 -3.065001 0.887395 0
M  V30 53 H 5.530632 -2.253957 2.473644 0
M  V30 54 H 6.407811 -1.488443 4.756959 0
M  V30 END ATOM
M  V30 BEGIN BOND
M  V30 1 2 1 2
M  V30 2 2 2 3
M  V30 3 1 2 4
M  V30 4 1 4 5
M  V30 5 2 5 6
M  V30 6 1 6 7
M  V30 7 2 7 8
M  V30 8 1 8 9
M  V30 9 2 9 10
M  V30 10 1 10 11
M  V30 11 1 11 12
M  V30 12 2 12 13
M  V30 13 1 13 14
M  V30 14 2 14 15
M  V30 15 1 15 16
M  V30 16 1 16 17
M  V30 17 1 17 18
M  V30 18 2 18 19
M  V30 19 1 19 20
M  V30 20 2 20 21
M  V30 21 1 21 22
M  V30 22 1 22 23
M  V30 23 1 23 24
M  V30 24 1 23 25
M  V30 25 1 23 26
M  V30 26 1 21 27
M  V30 27 2 27 28
M  V30 28 2 16 29
M  V30 29 2 11 30
M  V30 30 1 30 31
M  V30 31 1 8 32
M  V30 32 2 32 33
M  V30 33 1 2 34
M  V30 34 2 34 35
M  V30 35 1 35 36
M  V30 36 2 36 37
M  V30 37 1 37 38
M  V30 38 1 37 39
M  V30 39 1 33 5
M  V30 40 1 39 34
M  V30 41 1 31 9
M  V30 42 1 29 12
M  V30 43 1 28 18
M  V30 44 1 4 40
M  V30 45 1 6 41
M  V30 46 1 7 42
M  V30 47 1 13 43
M  V30 48 1 14 44
M  V30 49 1 17 45
M  V30 50 1 19 46
M  V30 51 1 20 47
M  V30 52 1 27 48
M  V30 53 1 28 49
M  V30 54 1 29 50
M  V30 55 1 32 51
M  V30 56 1 33 52
M  V30 57 1 35 53
M  V30 58 1 36 54
M  V30 END BOND
M  V30 END CTAB
M  END
>  <Dataset>  (205) 
ChEMBL_Kinases

>  <Ligand_Instance>  (205) 
nan

>  <PDB_ID>  (205) 
nan

>  <Standardized_SMILES>  (205) 
O=S(=O)(Nc1ccc(-c2nc(-c3ccnc(Nc4ccc(OC(F)(F)F)cc4)c3)no2)cc1)c1ccc(Cl)s1

>  <Name>  (205) 
nan

>  <Pocket>  (205) 
nan

>  <ATP_Site>  (205) 
nan

>  <Peripheral>  (205) 
nan

>  <Num_H_Atoms_ProtBoundConf>  (205) 
nan

>  <Num_Resolved_Atoms>  (205) 
nan

>  <Num_Not_Resolved_Atoms>  (205) 
nan

$$$$
CHEMBL4798428
     RDKit          3D

  0  0  0  0  0  0  0  0  0  0999 V3000
M  V30 BEGIN CTAB
M  V30 COUNTS 52 55 0 0 0
M  V30 BEGIN ATOM
M  V30 1 N -3.295321 -3.405705 4.256228 0
M  V30 2 C -2.314132 -2.532420 3.659725 0
M  V30 3 N -1.345670 -2.356166 4.585532 0
M  V30 4 C -0.270962 -1.563712 4.293004 0
M  V30 5 C -0.209980 -0.971012 3.065442 0
M  V30 6 C 0.870673 -0.102173 2.612828 0
M  V30 7 C 1.567354 0.712349 3.491378 0
M  V30 8 N 2.466031 1.345548 2.712003 0
M  V30 9 N 2.362780 0.981313 1.466265 0
M  V30 10 C 3.095660 1.374872 0.269179 0
M  V30 11 C 2.188929 2.199736 -0.640479 0
M  V30 12 C 1.809572 3.441579 0.149537 0
M  V30 13 N 3.000886 4.218106 0.324217 0
M  V30 14 C 3.976540 3.553502 1.132151 0
M  V30 15 C 4.326437 2.177451 0.623603 0
M  V30 16 C 1.369020 0.063673 1.331746 0
M  V30 17 C -1.202308 -1.157785 2.130952 0
M  V30 18 C -2.298942 -1.943249 2.377468 0
M  V30 19 O -3.436228 -2.362538 1.761150 0
M  V30 20 C -3.928763 -2.094682 0.487774 0
M  V30 21 C -3.064940 -2.535557 -0.633627 0
M  V30 22 C -2.124892 -1.869791 -1.375625 0
M  V30 23 C -1.427678 -2.507482 -2.375451 0
M  V30 24 C -1.606458 -3.832415 -2.710949 0
M  V30 25 C -0.850200 -4.488711 -3.780425 0
M  V30 26 F -1.741816 -5.158087 -4.602973 0
M  V30 27 F -0.207370 -3.519875 -4.521319 0
M  V30 28 F 0.097707 -5.369603 -3.280432 0
M  V30 29 C -2.547872 -4.513818 -1.974350 0
M  V30 30 C -3.244475 -3.876547 -0.974934 0
M  V30 31 H -3.304806 -4.431732 4.390887 0
M  V30 32 H -4.185173 -3.030712 4.649337 0
M  V30 33 H 0.565724 -1.345553 4.946709 0
M  V30 34 H 1.519337 0.899599 4.545529 0
M  V30 35 H 3.389415 0.477268 -0.290123 0
M  V30 36 H 2.773004 2.450415 -1.532334 0
M  V30 37 H 1.264579 1.630003 -0.841469 0
M  V30 38 H 1.067767 4.048356 -0.431098 0
M  V30 39 H 1.405721 3.099022 1.115530 0
M  V30 40 H 3.358487 4.566887 -0.574406 0
M  V30 41 H 3.598914 3.479248 2.178290 0
M  V30 42 H 4.915077 4.154572 1.124016 0
M  V30 43 H 4.866403 1.627513 1.421073 0
M  V30 44 H 4.965691 2.273240 -0.261563 0
M  V30 45 H 0.933735 -0.504042 0.513024 0
M  V30 46 H -1.289164 -0.757701 1.140947 0
M  V30 47 H -4.179388 -1.011549 0.343897 0
M  V30 48 H -4.937653 -2.596693 0.390213 0
M  V30 49 H -2.016597 -0.838758 -1.094011 0
M  V30 50 H -0.696375 -1.898914 -2.916447 0
M  V30 51 H -2.700051 -5.557826 -2.227087 0
M  V30 52 H -3.963885 -4.535989 -0.466840 0
M  V30 END ATOM
M  V30 BEGIN BOND
M  V30 1 1 1 2
M  V30 2 2 2 3
M  V30 3 1 3 4
M  V30 4 2 4 5
M  V30 5 1 5 6
M  V30 6 1 6 7
M  V30 7 2 7 8
M  V30 8 1 8 9
M  V30 9 1 9 10
M  V30 10 1 10 11
M  V30 11 1 11 12
M  V30 12 1 12 13
M  V30 13 1 13 14
M  V30 14 1 14 15
M  V30 15 1 9 16
M  V30 16 1 5 17
M  V30 17 2 17 18
M  V30 18 1 18 19
M  V30 19 1 19 20
M  V30 20 1 20 21
M  V30 21 2 21 22
M  V30 22 1 22 23
M  V30 23 2 23 24
M  V30 24 1 24 25
M  V30 25 1 25 26
M  V30 26 1 25 27
M  V30 27 1 25 28
M  V30 28 1 24 29
M  V30 29 2 29 30
M  V30 30 1 18 2
M  V30 31 1 30 21
M  V30 32 2 16 6
M  V30 33 1 15 10
M  V30 34 1 1 31
M  V30 35 1 1 32
M  V30 36 1 4 33
M  V30 37 1 7 34
M  V30 38 1 10 35
M  V30 39 1 11 36
M  V30 40 1 11 37
M  V30 41 1 12 38
M  V30 42 1 12 39
M  V30 43 1 13 40
M  V30 44 1 14 41
M  V30 45 1 14 42
M  V30 46 1 15 43
M  V30 47 1 15 44
M  V30 48 1 16 45
M  V30 49 1 17 46
M  V30 50 1 20 47
M  V30 51 1 20 48
M  V30 52 1 22 49
M  V30 53 1 23 50
M  V30 54 1 29 51
M  V30 55 1 30 52
M  V30 END BOND
M  V30 END CTAB
M  END
>  <Dataset>  (206) 
ChEMBL_Kinases

>  <Ligand_Instance>  (206) 
nan

>  <PDB_ID>  (206) 
nan

>  <Standardized_SMILES>  (206) 
Nc1ncc(-c2cnn(C3CCNCC3)c2)cc1OCc1ccc(C(F)(F)F)cc1

>  <Name>  (206) 
nan

>  <Pocket>  (206) 
nan

>  <ATP_Site>  (206) 
nan

>  <Peripheral>  (206) 
nan

>  <Num_H_Atoms_ProtBoundConf>  (206) 
nan

>  <Num_Resolved_Atoms>  (206) 
nan

>  <Num_Not_Resolved_Atoms>  (206) 
nan

$$$$
CHEMBL4798451
     RDKit          3D

  0  0  0  0  0  0  0  0  0  0999 V3000
M  V30 BEGIN CTAB
M  V30 COUNTS 52 56 0 0 0
M  V30 BEGIN ATOM
M  V30 1 C 0.885247 1.101991 5.165260 0
M  V30 2 O 1.306297 1.469138 3.870341 0
M  V30 3 C 2.655453 1.358795 3.559680 0
M  V30 4 C 3.676284 0.929730 4.355481 0
M  V30 5 C 4.974740 0.878257 3.893247 0
M  V30 6 C 5.315824 1.255031 2.607561 0
M  V30 7 C 4.262790 1.694087 1.797234 0
M  V30 8 F 4.617552 2.062078 0.531220 0
M  V30 9 C 2.941347 1.752976 2.248236 0
M  V30 10 C 1.933879 2.230574 1.301035 0
M  V30 11 C 1.330229 1.269224 0.516541 0
M  V30 12 C 0.357309 1.623940 -0.416779 0
M  V30 13 C 0.020406 2.967489 -0.527719 0
M  V30 14 C 0.640322 3.912764 0.270620 0
M  V30 15 N 1.577636 3.539459 1.164290 0
M  V30 16 C -0.939222 3.056779 -1.493597 0
M  V30 17 N -1.162146 1.806432 -1.938986 0
M  V30 18 N -0.406774 0.938743 -1.317342 0
M  V30 19 C -0.263454 -0.479032 -1.417411 0
M  V30 20 C 0.835913 -0.939654 -2.123415 0
M  V30 21 C 0.940110 -2.313711 -2.198169 0
M  V30 22 C 0.017542 -3.156853 -1.612950 0
M  V30 23 C -1.058829 -2.646571 -0.921356 0
M  V30 24 N -2.099872 -3.353493 -0.259154 0
M  V30 25 C -3.214072 -2.705944 0.449769 0
M  V30 26 C -4.480739 -3.301113 -0.087542 0
M  V30 27 C -4.265053 -4.079572 -1.363211 0
M  V30 28 C -3.256848 -5.171302 -1.250224 0
M  V30 29 C -2.219505 -4.798821 -0.182892 0
M  V30 30 N -1.152882 -1.297787 -0.853244 0
M  V30 31 H 0.825479 -0.008584 5.245647 0
M  V30 32 H -0.137039 1.506553 5.386084 0
M  V30 33 H 1.595147 1.450673 5.934568 0
M  V30 34 H 3.380655 0.639935 5.360164 0
M  V30 35 H 5.753616 0.528589 4.566937 0
M  V30 36 H 6.328058 1.221722 2.226898 0
M  V30 37 H 1.602050 0.223860 0.612766 0
M  V30 38 H 0.400948 4.952537 0.206588 0
M  V30 39 H -1.426831 3.972078 -1.833119 0
M  V30 40 H 1.540322 -0.269543 -2.570101 0
M  V30 41 H 1.775607 -2.754268 -2.735231 0
M  V30 42 H 0.054900 -4.236796 -1.643416 0
M  V30 43 H -3.175751 -2.948254 1.543942 0
M  V30 44 H -3.195332 -1.622425 0.348846 0
M  V30 45 H -5.165658 -2.468083 -0.349914 0
M  V30 46 H -5.017182 -3.926739 0.635449 0
M  V30 47 H -4.065612 -3.388248 -2.224666 0
M  V30 48 H -5.244203 -4.564167 -1.590816 0
M  V30 49 H -3.691227 -6.167166 -1.048901 0
M  V30 50 H -2.697994 -5.240060 -2.204751 0
M  V30 51 H -1.242732 -5.245092 -0.444101 0
M  V30 52 H -2.602360 -5.156703 0.794294 0
M  V30 END ATOM
M  V30 BEGIN BOND
M  V30 1 1 1 2
M  V30 2 1 2 3
M  V30 3 2 3 4
M  V30 4 1 4 5
M  V30 5 2 5 6
M  V30 6 1 6 7
M  V30 7 1 7 8
M  V30 8 2 7 9
M  V30 9 1 9 10
M  V30 10 2 10 11
M  V30 11 1 11 12
M  V30 12 2 12 13
M  V30 13 1 13 14
M  V30 14 2 14 15
M  V30 15 1 13 16
M  V30 16 2 16 17
M  V30 17 1 17 18
M  V30 18 1 18 19
M  V30 19 2 19 20
M  V30 20 1 20 21
M  V30 21 2 21 22
M  V30 22 1 22 23
M  V30 23 1 23 24
M  V30 24 1 24 25
M  V30 25 1 25 26
M  V30 26 1 26 27
M  V30 27 1 27 28
M  V30 28 1 28 29
M  V30 29 2 23 30
M  V30 30 1 9 3
M  V30 31 1 15 10
M  V30 32 1 30 19
M  V30 33 1 18 12
M  V30 34 1 29 24
M  V30 35 1 1 31
M  V30 36 1 1 32
M  V30 37 1 1 33
M  V30 38 1 4 34
M  V30 39 1 5 35
M  V30 40 1 6 36
M  V30 41 1 11 37
M  V30 42 1 14 38
M  V30 43 1 16 39
M  V30 44 1 20 40
M  V30 45 1 21 41
M  V30 46 1 22 42
M  V30 47 1 25 43
M  V30 48 1 25 44
M  V30 49 1 26 45
M  V30 50 1 26 46
M  V30 51 1 27 47
M  V30 52 1 27 48
M  V30 53 1 28 49
M  V30 54 1 28 50
M  V30 55 1 29 51
M  V30 56 1 29 52
M  V30 END BOND
M  V30 END CTAB
M  END
>  <Dataset>  (207) 
ChEMBL_Kinases

>  <Ligand_Instance>  (207) 
nan

>  <PDB_ID>  (207) 
nan

>  <Standardized_SMILES>  (207) 
COc1cccc(F)c1-c1cc2c(cn1)cnn2-c1cccc(N2CCCCC2)n1

>  <Name>  (207) 
nan

>  <Pocket>  (207) 
nan

>  <ATP_Site>  (207) 
nan

>  <Peripheral>  (207) 
nan

>  <Num_H_Atoms_ProtBoundConf>  (207) 
nan

>  <Num_Resolved_Atoms>  (207) 
nan

>  <Num_Not_Resolved_Atoms>  (207) 
nan

$$$$
CHEMBL4798479
     RDKit          3D

  0  0  0  0  0  0  0  0  0  0999 V3000
M  V30 BEGIN CTAB
M  V30 COUNTS 46 48 0 0 0
M  V30 BEGIN ATOM
M  V30 1 N 2.222906 -6.291817 1.748715 0
M  V30 2 C 2.634474 -5.601543 2.944149 0
M  V30 3 C 1.477123 -4.831113 3.571750 0
M  V30 4 C 0.926881 -3.814604 2.648053 0
M  V30 5 C 1.874868 -2.761992 2.190739 0
M  V30 6 C 2.475215 -1.924529 3.253827 0
M  V30 7 N 3.367262 -0.960911 2.631489 0
M  V30 8 C 2.950008 0.030854 1.702775 0
M  V30 9 N 3.853072 0.886743 1.158364 0
M  V30 10 C 3.499440 1.839775 0.279220 0
M  V30 11 C 2.186178 1.991451 -0.113121 0
M  V30 12 C 1.255029 1.130669 0.429758 0
M  V30 13 C -0.164034 1.196999 0.088152 0
M  V30 14 C -1.106972 0.342792 0.622716 0
M  V30 15 N -2.280197 0.719642 0.067323 0
M  V30 16 N -2.062375 1.751460 -0.763628 0
M  V30 17 C -3.106672 2.384347 -1.510065 0
M  V30 18 C -4.020953 1.755788 -2.330123 0
M  V30 19 C -4.971635 2.519602 -2.983137 0
M  V30 20 C -5.043003 3.891864 -2.846917 0
M  V30 21 C -4.111469 4.508291 -2.014765 0
M  V30 22 C -3.161907 3.739376 -1.363352 0
M  V30 23 F -2.322103 4.460468 -0.589841 0
M  V30 24 C -0.750659 2.088856 -0.785899 0
M  V30 25 N 1.707618 0.219708 1.293108 0
M  V30 26 H 2.460469 -7.303172 1.848313 0
M  V30 27 H 1.179088 -6.262378 1.696573 0
M  V30 28 H 3.456533 -4.896315 2.659134 0
M  V30 29 H 3.073828 -6.303599 3.661531 0
M  V30 30 H 1.703257 -4.520243 4.588801 0
M  V30 31 H 0.668394 -5.613206 3.685205 0
M  V30 32 H 0.516214 -4.331341 1.756391 0
M  V30 33 H 0.051649 -3.337853 3.134648 0
M  V30 34 H 1.365816 -2.110110 1.454113 0
M  V30 35 H 2.719771 -3.221764 1.621126 0
M  V30 36 H 3.004654 -2.521449 4.024600 0
M  V30 37 H 1.741541 -1.308942 3.817796 0
M  V30 38 H 4.377378 -1.007038 2.888397 0
M  V30 39 H 4.281278 2.480356 -0.106891 0
M  V30 40 H 1.878289 2.750714 -0.818853 0
M  V30 41 H -1.025291 -0.474176 1.331716 0
M  V30 42 H -3.930776 0.686188 -2.408728 0
M  V30 43 H -5.673757 2.027431 -3.614187 0
M  V30 44 H -5.791844 4.480634 -3.363132 0
M  V30 45 H -4.204856 5.591352 -1.936878 0
M  V30 46 H -0.291433 2.876266 -1.361066 0
M  V30 END ATOM
M  V30 BEGIN BOND
M  V30 1 1 1 2
M  V30 2 1 2 3
M  V30 3 1 3 4
M  V30 4 1 4 5
M  V30 5 1 5 6
M  V30 6 1 6 7
M  V30 7 1 7 8
M  V30 8 2 8 9
M  V30 9 1 9 10
M  V30 10 2 10 11
M  V30 11 1 11 12
M  V30 12 1 12 13
M  V30 13 1 13 14
M  V30 14 2 14 15
M  V30 15 1 15 16
M  V30 16 1 16 17
M  V30 17 2 17 18
M  V30 18 1 18 19
M  V30 19 2 19 20
M  V30 20 1 20 21
M  V30 21 2 21 22
M  V30 22 1 22 23
M  V30 23 1 16 24
M  V30 24 2 12 25
M  V30 25 1 25 8
M  V30 26 2 24 13
M  V30 27 1 22 17
M  V30 28 1 1 26
M  V30 29 1 1 27
M  V30 30 1 2 28
M  V30 31 1 2 29
M  V30 32 1 3 30
M  V30 33 1 3 31
M  V30 34 1 4 32
M  V30 35 1 4 33
M  V30 36 1 5 34
M  V30 37 1 5 35
M  V30 38 1 6 36
M  V30 39 1 6 37
M  V30 40 1 7 38
M  V30 41 1 10 39
M  V30 42 1 11 40
M  V30 43 1 14 41
M  V30 44 1 18 42
M  V30 45 1 19 43
M  V30 46 1 20 44
M  V30 47 1 21 45
M  V30 48 1 24 46
M  V30 END BOND
M  V30 END CTAB
M  END
>  <Dataset>  (208) 
ChEMBL_Kinases

>  <Ligand_Instance>  (208) 
nan

>  <PDB_ID>  (208) 
nan

>  <Standardized_SMILES>  (208) 
NCCCCCNc1nccc(-c2cnn(-c3ccccc3F)c2)n1

>  <Name>  (208) 
nan

>  <Pocket>  (208) 
nan

>  <ATP_Site>  (208) 
nan

>  <Peripheral>  (208) 
nan

>  <Num_H_Atoms_ProtBoundConf>  (208) 
nan

>  <Num_Resolved_Atoms>  (208) 
nan

>  <Num_Not_Resolved_Atoms>  (208) 
nan

$$$$
CHEMBL4798505
     RDKit          3D

  0  0  0  0  0  0  0  0  0  0999 V3000
M  V30 BEGIN CTAB
M  V30 COUNTS 34 36 0 0 0
M  V30 BEGIN ATOM
M  V30 1 C -2.832067 -3.741257 5.221746 0
M  V30 2 O -2.135029 -3.509819 4.135677 0
M  V30 3 C -1.472710 -3.319409 3.073339 0
M  V30 4 C -0.742432 -2.146461 2.892883 0
M  V30 5 C 0.001078 -1.895063 1.739221 0
M  V30 6 C 0.760161 -0.660372 1.567804 0
M  V30 7 C 1.596941 0.042120 2.402426 0
M  V30 8 N 2.037432 1.127356 1.730000 0
M  V30 9 N 1.500020 1.122765 0.499992 0
M  V30 10 C 1.646429 1.994453 -0.517826 0
M  V30 11 C 0.984572 1.788844 -1.722156 0
M  V30 12 O 1.046386 2.601714 -2.843442 0
M  V30 13 C 1.851393 3.788359 -2.834608 0
M  V30 14 C 0.163437 0.664285 -1.864788 0
M  V30 15 C -0.571078 0.386584 -3.123675 0
M  V30 16 N 0.072909 -0.153678 -0.801808 0
M  V30 17 C 0.706397 0.039462 0.356534 0
M  V30 18 C -0.039774 -2.894025 0.789062 0
M  V30 19 C -0.749129 -4.064528 0.932146 0
M  V30 20 N -1.435941 -4.221409 2.075421 0
M  V30 21 H -2.584641 -4.688534 5.802120 0
M  V30 22 H -2.806643 -2.964197 6.038952 0
M  V30 23 H -3.947973 -3.789359 4.973443 0
M  V30 24 H -0.728760 -1.371311 3.664377 0
M  V30 25 H 1.815808 -0.285014 3.414326 0
M  V30 26 H 2.267683 2.885654 -0.472948 0
M  V30 27 H 1.653454 4.277491 -1.853945 0
M  V30 28 H 2.919878 3.490998 -2.936587 0
M  V30 29 H 1.567919 4.453634 -3.670643 0
M  V30 30 H -1.412639 1.112551 -3.188330 0
M  V30 31 H 0.077982 0.499105 -4.000722 0
M  V30 32 H -1.020650 -0.606727 -3.041981 0
M  V30 33 H 0.521137 -2.730817 -0.108642 0
M  V30 34 H -0.713157 -4.776878 0.130876 0
M  V30 END ATOM
M  V30 BEGIN BOND
M  V30 1 1 1 2
M  V30 2 1 2 3
M  V30 3 2 3 4
M  V30 4 1 4 5
M  V30 5 1 5 6
M  V30 6 1 6 7
M  V30 7 2 7 8
M  V30 8 1 8 9
M  V30 9 1 9 10
M  V30 10 2 10 11
M  V30 11 1 11 12
M  V30 12 1 12 13
M  V30 13 1 11 14
M  V30 14 1 14 15
M  V30 15 2 14 16
M  V30 16 1 16 17
M  V30 17 2 5 18
M  V30 18 1 18 19
M  V30 19 2 19 20
M  V30 20 1 20 3
M  V30 21 2 17 6
M  V30 22 1 17 9
M  V30 23 1 1 21
M  V30 24 1 1 22
M  V30 25 1 1 23
M  V30 26 1 4 24
M  V30 27 1 7 25
M  V30 28 1 10 26
M  V30 29 1 13 27
M  V30 30 1 13 28
M  V30 31 1 13 29
M  V30 32 1 15 30
M  V30 33 1 15 31
M  V30 34 1 15 32
M  V30 35 1 18 33
M  V30 36 1 19 34
M  V30 END BOND
M  V30 END CTAB
M  END
>  <Dataset>  (209) 
ChEMBL_Kinases

>  <Ligand_Instance>  (209) 
nan

>  <PDB_ID>  (209) 
nan

>  <Standardized_SMILES>  (209) 
COc1cc(-c2cnn3cc(OC)c(C)nc23)ccn1

>  <Name>  (209) 
nan

>  <Pocket>  (209) 
nan

>  <ATP_Site>  (209) 
nan

>  <Peripheral>  (209) 
nan

>  <Num_H_Atoms_ProtBoundConf>  (209) 
nan

>  <Num_Resolved_Atoms>  (209) 
nan

>  <Num_Not_Resolved_Atoms>  (209) 
nan

$$$$
CHEMBL4798539
     RDKit          3D

  0  0  0  0  0  0  0  0  0  0999 V3000
M  V30 BEGIN CTAB
M  V30 COUNTS 56 59 0 0 0
M  V30 BEGIN ATOM
M  V30 1 C 3.935480 0.859032 7.172137 0
M  V30 2 C 3.964089 0.067508 5.884163 0
M  V30 3 C 2.734625 0.349304 5.032749 0
M  V30 4 S 2.868170 -0.624137 3.567981 0
M  V30 5 O 4.152641 -0.402081 2.842477 0
M  V30 6 O 2.879940 -2.079850 4.007638 0
M  V30 7 N 1.546122 -0.404568 2.495158 0
M  V30 8 C 1.308538 0.880842 1.950735 0
M  V30 9 C 2.275833 1.856329 1.846632 0
M  V30 10 C 2.040264 3.106714 1.313469 0
M  V30 11 C 0.744741 3.383037 0.858094 0
M  V30 12 F 0.634317 4.656813 0.351095 0
M  V30 13 C -0.291699 2.479552 0.915533 0
M  V30 14 C -1.584336 2.876202 0.468794 0
M  V30 15 O -1.673331 4.161651 0.525300 0
M  V30 16 C -2.779646 2.280587 -0.009222 0
M  V30 17 N -3.981480 2.918124 0.150649 0
M  V30 18 N -4.943390 2.186811 -0.390145 0
M  V30 19 C -4.488014 1.047667 -0.935565 0
M  V30 20 N -5.036375 0.011819 -1.595485 0
M  V30 21 C -4.263974 -1.016646 -2.055349 0
M  V30 22 C -2.882738 -0.948852 -1.813685 0
M  V30 23 C -2.125157 -2.077670 -2.344794 0
M  V30 24 C -0.968082 -2.579896 -1.779846 0
M  V30 25 C -0.302035 -3.651388 -2.336952 0
M  V30 26 C -0.754450 -4.274261 -3.481978 0
M  V30 27 S -0.010118 -5.636387 -4.295170 0
M  V30 28 C -0.658268 -7.178240 -3.697529 0
M  V30 29 O 1.482613 -5.667437 -4.068775 0
M  V30 30 O -0.261099 -5.590005 -5.771444 0
M  V30 31 C -1.921550 -3.813276 -4.103099 0
M  V30 32 C -2.539931 -2.730677 -3.486013 0
M  V30 33 C -2.343281 0.111174 -1.140142 0
M  V30 34 C -3.143544 1.136751 -0.684036 0
M  V30 35 C 0.062123 1.264399 1.468334 0
M  V30 36 F -0.888052 0.307034 1.618525 0
M  V30 37 H 3.404234 0.369799 7.999118 0
M  V30 38 H 3.518380 1.872903 6.931684 0
M  V30 39 H 4.984929 1.044335 7.475492 0
M  V30 40 H 4.876749 0.389909 5.322173 0
M  V30 41 H 4.055127 -1.014978 6.059520 0
M  V30 42 H 1.875567 -0.037184 5.659098 0
M  V30 43 H 2.533664 1.407387 4.882425 0
M  V30 44 H 0.891037 -1.171700 2.213162 0
M  V30 45 H 3.281629 1.649281 2.195633 0
M  V30 46 H 2.853732 3.817789 1.271161 0
M  V30 47 H -5.949939 2.508511 -0.368734 0
M  V30 48 H -4.831622 -1.782665 -2.568263 0
M  V30 49 H -0.589258 -2.114206 -0.882011 0
M  V30 50 H 0.606324 -4.070327 -1.917886 0
M  V30 51 H -0.004959 -7.684971 -2.984853 0
M  V30 52 H -0.948477 -7.862636 -4.528428 0
M  V30 53 H -1.642927 -6.940045 -3.180877 0
M  V30 54 H -2.347301 -4.239847 -4.998085 0
M  V30 55 H -3.454190 -2.357264 -3.962586 0
M  V30 56 H -1.278139 0.144065 -0.975129 0
M  V30 END ATOM
M  V30 BEGIN BOND
M  V30 1 1 1 2
M  V30 2 1 2 3
M  V30 3 1 3 4
M  V30 4 2 4 5
M  V30 5 2 4 6
M  V30 6 1 4 7
M  V30 7 1 7 8
M  V30 8 2 8 9
M  V30 9 1 9 10
M  V30 10 2 10 11
M  V30 11 1 11 12
M  V30 12 1 11 13
M  V30 13 1 13 14
M  V30 14 2 14 15
M  V30 15 1 14 16
M  V30 16 2 16 17
M  V30 17 1 17 18
M  V30 18 1 18 19
M  V30 19 2 19 20
M  V30 20 1 20 21
M  V30 21 2 21 22
M  V30 22 1 22 23
M  V30 23 2 23 24
M  V30 24 1 24 25
M  V30 25 2 25 26
M  V30 26 1 26 27
M  V30 27 1 27 28
M  V30 28 2 27 29
M  V30 29 2 27 30
M  V30 30 1 26 31
M  V30 31 2 31 32
M  V30 32 1 22 33
M  V30 33 2 33 34
M  V30 34 2 13 35
M  V30 35 1 35 36
M  V30 36 1 35 8
M  V30 37 1 34 16
M  V30 38 1 34 19
M  V30 39 1 32 23
M  V30 40 1 1 37
M  V30 41 1 1 38
M  V30 42 1 1 39
M  V30 43 1 2 40
M  V30 44 1 2 41
M  V30 45 1 3 42
M  V30 46 1 3 43
M  V30 47 1 7 44
M  V30 48 1 9 45
M  V30 49 1 10 46
M  V30 50 1 18 47
M  V30 51 1 21 48
M  V30 52 1 24 49
M  V30 53 1 25 50
M  V30 54 1 28 51
M  V30 55 1 28 52
M  V30 56 1 28 53
M  V30 57 1 31 54
M  V30 58 1 32 55
M  V30 59 1 33 56
M  V30 END BOND
M  V30 END CTAB
M  END
>  <Dataset>  (210) 
ChEMBL_Kinases

>  <Ligand_Instance>  (210) 
nan

>  <PDB_ID>  (210) 
nan

>  <Standardized_SMILES>  (210) 
CCCS(=O)(=O)Nc1ccc(F)c(C(=O)c2n[nH]c3ncc(-c4ccc(S(C)(=O)=O)cc4)cc23)c1F

>  <Name>  (210) 
nan

>  <Pocket>  (210) 
nan

>  <ATP_Site>  (210) 
nan

>  <Peripheral>  (210) 
nan

>  <Num_H_Atoms_ProtBoundConf>  (210) 
nan

>  <Num_Resolved_Atoms>  (210) 
nan

>  <Num_Not_Resolved_Atoms>  (210) 
nan

$$$$
CHEMBL4798556
     RDKit          3D

  0  0  0  0  0  0  0  0  0  0999 V3000
M  V30 BEGIN CTAB
M  V30 COUNTS 58 62 0 0 0
M  V30 BEGIN ATOM
M  V30 1 C -0.966979 -1.178593 2.672614 0
M  V30 2 C 0.034933 -2.160198 2.169772 0
M  V30 3 C 0.193990 -3.246773 3.246758 0
M  V30 4 N -0.300616 -2.767043 0.894994 0
M  V30 5 C 0.617758 -2.565071 -0.201542 0
M  V30 6 C 1.399123 -1.404500 -0.289691 0
M  V30 7 C 2.294312 -1.174016 -1.315690 0
M  V30 8 N 3.053157 0.026794 -1.373076 0
M  V30 9 C 2.798445 1.305761 -0.806744 0
M  V30 10 N 3.771910 2.231647 -0.788837 0
M  V30 11 C 3.494757 3.438890 -0.277410 0
M  V30 12 C 2.253298 3.758632 0.226023 0
M  V30 13 C 1.256228 2.808905 0.205943 0
M  V30 14 C -0.049270 3.206838 0.703565 0
M  V30 15 C -0.280253 4.394755 1.355683 0
M  V30 16 C -1.509062 4.793889 1.804147 0
M  V30 17 C -2.618716 3.999258 1.619835 0
M  V30 18 C -2.449033 2.797969 0.972649 0
M  V30 19 N -3.356342 1.857704 0.661997 0
M  V30 20 C -2.733450 0.845033 0.013239 0
M  V30 21 C -1.391353 1.212323 -0.059472 0
M  V30 22 C -1.183894 2.441828 0.538983 0
M  V30 23 N 1.572774 1.612534 -0.312893 0
M  V30 24 C 2.414502 -2.139141 -2.293391 0
M  V30 25 C 1.657019 -3.288618 -2.231638 0
M  V30 26 C 0.758979 -3.527821 -1.208855 0
M  V30 27 N -0.034235 -4.732622 -1.140032 0
M  V30 28 C 0.158229 -5.698639 -2.207492 0
M  V30 29 C -0.952097 -4.908219 -0.034924 0
M  V30 30 O -1.180148 -6.104797 0.249633 0
M  V30 31 C -1.428030 -3.582238 0.525444 0 CFG=1
M  V30 32 C -2.298327 -3.995574 1.694354 0
M  V30 33 H -1.396860 -1.485974 3.670028 0
M  V30 34 H -1.810804 -0.981425 2.013472 0
M  V30 35 H -0.506858 -0.175916 2.904650 0
M  V30 36 H 1.030505 -1.686833 2.129142 0
M  V30 37 H 0.651777 -4.161598 2.866837 0
M  V30 38 H -0.769103 -3.379780 3.784934 0
M  V30 39 H 0.878428 -2.816494 4.006753 0
M  V30 40 H 1.292624 -0.659711 0.473573 0
M  V30 41 H 3.954213 -0.071551 -1.935492 0
M  V30 42 H 4.348919 4.116656 -0.308716 0
M  V30 43 H 2.223459 4.767259 0.588808 0
M  V30 44 H 0.506725 5.092846 1.557303 0
M  V30 45 H -1.671522 5.733655 2.315600 0
M  V30 46 H -3.583909 4.313117 1.972309 0
M  V30 47 H -4.362657 1.891179 0.877830 0
M  V30 48 H -3.150286 -0.073009 -0.382082 0
M  V30 49 H -0.651639 0.606450 -0.521723 0
M  V30 50 H 3.089275 -2.030159 -3.119564 0
M  V30 51 H 1.765404 -4.030305 -3.004536 0
M  V30 52 H 1.227024 -5.990808 -2.205262 0
M  V30 53 H -0.548212 -6.533720 -2.092605 0
M  V30 54 H -0.008177 -5.166323 -3.185040 0
M  V30 55 H -2.065028 -3.137311 -0.265311 0
M  V30 56 H -2.653484 -3.185881 2.321522 0
M  V30 57 H -1.810688 -4.841361 2.206162 0
M  V30 58 H -3.232129 -4.409751 1.204726 0
M  V30 END ATOM
M  V30 BEGIN BOND
M  V30 1 1 1 2
M  V30 2 1 2 3
M  V30 3 1 2 4
M  V30 4 1 4 5
M  V30 5 2 5 6
M  V30 6 1 6 7
M  V30 7 1 7 8
M  V30 8 1 8 9
M  V30 9 2 9 10
M  V30 10 1 10 11
M  V30 11 2 11 12
M  V30 12 1 12 13
M  V30 13 1 13 14
M  V30 14 2 14 15
M  V30 15 1 15 16
M  V30 16 2 16 17
M  V30 17 1 17 18
M  V30 18 1 18 19
M  V30 19 1 19 20
M  V30 20 2 20 21
M  V30 21 1 21 22
M  V30 22 2 13 23
M  V30 23 2 7 24
M  V30 24 1 24 25
M  V30 25 2 25 26
M  V30 26 1 26 27
M  V30 27 1 27 28
M  V30 28 1 27 29
M  V30 29 2 29 30
M  V30 30 1 29 31
M  V30 31 1 31 32
M  V30 32 1 31 4
M  V30 33 1 26 5
M  V30 34 1 23 9
M  V30 35 1 22 14
M  V30 36 2 22 18
M  V30 37 1 1 33
M  V30 38 1 1 34
M  V30 39 1 1 35
M  V30 40 1 2 36
M  V30 41 1 3 37
M  V30 42 1 3 38
M  V30 43 1 3 39
M  V30 44 1 6 40
M  V30 45 1 8 41
M  V30 46 1 11 42
M  V30 47 1 12 43
M  V30 48 1 15 44
M  V30 49 1 16 45
M  V30 50 1 17 46
M  V30 51 1 19 47
M  V30 52 1 20 48
M  V30 53 1 21 49
M  V30 54 1 24 50
M  V30 55 1 25 51
M  V30 56 1 28 52
M  V30 57 1 28 53
M  V30 58 1 28 54
M  V30 59 1 31 55 CFG=3
M  V30 60 1 32 56
M  V30 61 1 32 57
M  V30 62 1 32 58
M  V30 END BOND
M  V30 END CTAB
M  END
>  <Dataset>  (211) 
ChEMBL_Kinases

>  <Ligand_Instance>  (211) 
nan

>  <PDB_ID>  (211) 
nan

>  <Standardized_SMILES>  (211) 
CC(C)N1c2cc(Nc3nccc(-c4cccc5[nH]ccc45)n3)ccc2N(C)C(=O)[C@H]1C

>  <Name>  (211) 
nan

>  <Pocket>  (211) 
nan

>  <ATP_Site>  (211) 
nan

>  <Peripheral>  (211) 
nan

>  <Num_H_Atoms_ProtBoundConf>  (211) 
nan

>  <Num_Resolved_Atoms>  (211) 
nan

>  <Num_Not_Resolved_Atoms>  (211) 
nan

$$$$
CHEMBL4798594
     RDKit          3D

  0  0  0  0  0  0  0  0  0  0999 V3000
M  V30 BEGIN CTAB
M  V30 COUNTS 44 47 0 0 0
M  V30 BEGIN ATOM
M  V30 1 C 6.361123 -3.265152 1.204646 0
M  V30 2 C 5.167464 -3.052352 0.654303 0
M  V30 3 C 3.960978 -2.494860 1.284679 0
M  V30 4 N 3.464329 -1.286859 0.658395 0
M  V30 5 C 3.887259 0.072585 1.026103 0
M  V30 6 C 2.495785 -1.514378 -0.392490 0
M  V30 7 O 2.308979 -2.727894 -0.542404 0
M  V30 8 C 1.953303 -0.308191 -1.041076 0
M  V30 9 C 2.392838 0.521331 -2.033949 0
M  V30 10 N 1.637648 1.568160 -2.403735 0
M  V30 11 C 0.440688 1.826582 -1.812438 0
M  V30 12 N -0.376811 2.831239 -2.100596 0
M  V30 13 C -1.454222 2.706634 -1.269086 0
M  V30 14 C -1.283545 1.612436 -0.468198 0
M  V30 15 C -2.108548 1.018053 0.581614 0
M  V30 16 C -2.585329 1.891547 1.549395 0
M  V30 17 C -3.386067 1.442581 2.613642 0
M  V30 18 C -3.677353 0.080057 2.651890 0
M  V30 19 N -4.435261 -0.387890 3.657248 0
M  V30 20 C -4.788453 -1.676298 3.819438 0
M  V30 21 C -4.316054 -2.558651 2.854944 0
M  V30 22 C -3.522347 -2.165840 1.774890 0
M  V30 23 Cl -2.944450 -3.302680 0.576831 0
M  V30 24 C -3.215830 -0.822516 1.699008 0
M  V30 25 C -2.436870 -0.317105 0.682272 0
M  V30 26 C -0.073060 1.049276 -0.814895 0
M  V30 27 C 0.717574 -0.044079 -0.429540 0
M  V30 28 H 7.373914 -3.494618 1.502451 0
M  V30 29 H 6.826772 -3.131919 2.182633 0
M  V30 30 H 5.155152 -3.348188 -0.385787 0
M  V30 31 H 3.163868 -3.284782 1.279467 0
M  V30 32 H 4.155789 -2.245390 2.370508 0
M  V30 33 H 4.316266 0.613161 0.156859 0
M  V30 34 H 4.627363 -0.030580 1.827776 0
M  V30 35 H 2.982606 0.604614 1.347621 0
M  V30 36 H 3.350925 0.173558 -2.387473 0
M  V30 37 H -0.347773 3.622723 -2.782537 0
M  V30 38 H -2.386522 3.271809 -1.113144 0
M  V30 39 H -2.398721 2.965979 1.588415 0
M  V30 40 H -3.773096 2.115958 3.391681 0
M  V30 41 H -5.400772 -2.014789 4.643211 0
M  V30 42 H -4.595184 -3.592818 2.974190 0
M  V30 43 H -2.069190 -0.980931 -0.075997 0
M  V30 44 H 0.232721 -0.610343 0.376822 0
M  V30 END ATOM
M  V30 BEGIN BOND
M  V30 1 2 1 2
M  V30 2 1 2 3
M  V30 3 1 3 4
M  V30 4 1 4 5
M  V30 5 1 4 6
M  V30 6 2 6 7
M  V30 7 1 6 8
M  V30 8 2 8 9
M  V30 9 1 9 10
M  V30 10 2 10 11
M  V30 11 1 11 12
M  V30 12 1 12 13
M  V30 13 2 13 14
M  V30 14 1 14 15
M  V30 15 2 15 16
M  V30 16 1 16 17
M  V30 17 2 17 18
M  V30 18 1 18 19
M  V30 19 2 19 20
M  V30 20 1 20 21
M  V30 21 2 21 22
M  V30 22 1 22 23
M  V30 23 1 22 24
M  V30 24 2 24 25
M  V30 25 1 14 26
M  V30 26 2 26 27
M  V30 27 1 27 8
M  V30 28 1 26 11
M  V30 29 1 25 15
M  V30 30 1 24 18
M  V30 31 1 1 28
M  V30 32 1 1 29
M  V30 33 1 2 30
M  V30 34 1 3 31
M  V30 35 1 3 32
M  V30 36 1 5 33
M  V30 37 1 5 34
M  V30 38 1 5 35
M  V30 39 1 9 36
M  V30 40 1 12 37
M  V30 41 1 13 38
M  V30 42 1 16 39
M  V30 43 1 17 40
M  V30 44 1 20 41
M  V30 45 1 21 42
M  V30 46 1 25 43
M  V30 47 1 27 44
M  V30 END BOND
M  V30 END CTAB
M  END
>  <Dataset>  (212) 
ChEMBL_Kinases

>  <Ligand_Instance>  (212) 
nan

>  <PDB_ID>  (212) 
nan

>  <Standardized_SMILES>  (212) 
C=CCN(C)C(=O)c1cnc2[nH]cc(-c3ccc4nccc(Cl)c4c3)c2c1

>  <Name>  (212) 
nan

>  <Pocket>  (212) 
nan

>  <ATP_Site>  (212) 
nan

>  <Peripheral>  (212) 
nan

>  <Num_H_Atoms_ProtBoundConf>  (212) 
nan

>  <Num_Resolved_Atoms>  (212) 
nan

>  <Num_Not_Resolved_Atoms>  (212) 
nan

$$$$
CHEMBL4798596
     RDKit          3D

  0  0  0  0  0  0  0  0  0  0999 V3000
M  V30 BEGIN CTAB
M  V30 COUNTS 44 47 0 0 0
M  V30 BEGIN ATOM
M  V30 1 O 3.577721 0.223220 -0.049899 0
M  V30 2 C 2.769880 -0.399541 0.645929 0
M  V30 3 N 3.052248 -1.476184 1.554382 0
M  V30 4 C 4.412157 -1.918713 1.709566 0
M  V30 5 C 5.215936 -1.329940 2.681618 0
M  V30 6 C 6.539353 -1.747761 2.845923 0
M  V30 7 C 7.067211 -2.758029 2.038065 0
M  V30 8 C 6.261668 -3.337108 1.075244 0
M  V30 9 C 4.953686 -2.926451 0.910491 0
M  V30 10 Cl 3.939981 -3.677338 -0.324071 0
M  V30 11 N 1.419946 -0.012104 0.537993 0
M  V30 12 C 0.861767 1.006353 -0.270239 0
M  V30 13 C 0.066742 2.076215 0.357229 0
M  V30 14 C -1.425681 1.883448 0.332481 0
M  V30 15 N -1.813211 0.513115 0.055271 0
M  V30 16 C -2.953477 -0.157478 0.631818 0
M  V30 17 N -2.699529 -1.272659 1.369530 0
M  V30 18 C -3.673174 -1.979924 1.955189 0
M  V30 19 N -4.953815 -1.589611 1.820676 0
M  V30 20 C -5.266294 -0.504415 1.109562 0
M  V30 21 N -6.406376 0.146231 0.781919 0
M  V30 22 N -6.129232 1.209252 0.024680 0
M  V30 23 C -4.790376 1.280503 -0.163006 0
M  V30 24 C -4.261740 0.219616 0.509230 0
M  V30 25 C -1.137177 -0.403217 -0.829676 0
M  V30 26 C 0.056053 0.301940 -1.371016 0
M  V30 27 H 2.299144 -1.938995 2.098356 0
M  V30 28 H 4.847466 -0.531865 3.341656 0
M  V30 29 H 7.129506 -1.249817 3.627628 0
M  V30 30 H 8.091838 -3.029303 2.219335 0
M  V30 31 H 6.705623 -4.121159 0.463771 0
M  V30 32 H 0.587911 -0.425377 1.051679 0
M  V30 33 H 1.707129 1.467214 -0.828924 0
M  V30 34 H 0.232462 3.027319 -0.198124 0
M  V30 35 H 0.429206 2.302444 1.384466 0
M  V30 36 H -1.936054 2.170097 1.275916 0
M  V30 37 H -1.936933 2.483750 -0.452395 0
M  V30 38 H -3.507849 -2.860679 2.541410 0
M  V30 39 H -7.371314 -0.153635 1.087474 0
M  V30 40 H -4.274441 2.032919 -0.732344 0
M  V30 41 H -1.808989 -0.649383 -1.669694 0
M  V30 42 H -0.859453 -1.302021 -0.242368 0
M  V30 43 H -0.305110 1.100626 -2.064951 0
M  V30 44 H 0.683476 -0.362374 -1.964195 0
M  V30 END ATOM
M  V30 BEGIN BOND
M  V30 1 2 1 2
M  V30 2 1 2 3
M  V30 3 1 3 4
M  V30 4 2 4 5
M  V30 5 1 5 6
M  V30 6 2 6 7
M  V30 7 1 7 8
M  V30 8 2 8 9
M  V30 9 1 9 10
M  V30 10 1 2 11
M  V30 11 1 11 12
M  V30 12 1 12 13
M  V30 13 1 13 14
M  V30 14 1 14 15
M  V30 15 1 15 16
M  V30 16 2 16 17
M  V30 17 1 17 18
M  V30 18 2 18 19
M  V30 19 1 19 20
M  V30 20 1 20 21
M  V30 21 1 21 22
M  V30 22 2 22 23
M  V30 23 1 23 24
M  V30 24 1 15 25
M  V30 25 1 25 26
M  V30 26 1 9 4
M  V30 27 1 26 12
M  V30 28 1 24 16
M  V30 29 2 24 20
M  V30 30 1 3 27
M  V30 31 1 5 28
M  V30 32 1 6 29
M  V30 33 1 7 30
M  V30 34 1 8 31
M  V30 35 1 11 32
M  V30 36 1 12 33
M  V30 37 1 13 34
M  V30 38 1 13 35
M  V30 39 1 14 36
M  V30 40 1 14 37
M  V30 41 1 18 38
M  V30 42 1 21 39
M  V30 43 1 23 40
M  V30 44 1 25 41
M  V30 45 1 25 42
M  V30 46 1 26 43
M  V30 47 1 26 44
M  V30 END BOND
M  V30 END CTAB
M  END
>  <Dataset>  (213) 
ChEMBL_Kinases

>  <Ligand_Instance>  (213) 
nan

>  <PDB_ID>  (213) 
nan

>  <Standardized_SMILES>  (213) 
O=C(Nc1ccccc1Cl)NC1CCN(c2ncnc3[nH]ncc23)CC1

>  <Name>  (213) 
nan

>  <Pocket>  (213) 
nan

>  <ATP_Site>  (213) 
nan

>  <Peripheral>  (213) 
nan

>  <Num_H_Atoms_ProtBoundConf>  (213) 
nan

>  <Num_Resolved_Atoms>  (213) 
nan

>  <Num_Not_Resolved_Atoms>  (213) 
nan

$$$$
CHEMBL4798630
     RDKit          3D

  0  0  0  0  0  0  0  0  0  0999 V3000
M  V30 BEGIN CTAB
M  V30 COUNTS 34 37 0 0 0
M  V30 BEGIN ATOM
M  V30 1 F -1.110691 -1.905606 4.652521 0
M  V30 2 C 0.006932 -2.436406 4.051259 0
M  V30 3 F 0.357861 -3.548125 4.822126 0
M  V30 4 F 1.036081 -1.544832 4.180908 0
M  V30 5 O -0.218120 -2.877587 2.730907 0
M  V30 6 C -0.639598 -2.099675 1.693452 0
M  V30 7 C 0.321612 -1.477525 0.918375 0
M  V30 8 C -0.026995 -0.674373 -0.149093 0
M  V30 9 C 0.918455 0.022812 -1.023149 0
M  V30 10 C 0.890248 0.100033 -2.417064 0
M  V30 11 N 1.946777 0.838324 -2.802762 0
M  V30 12 C 2.662580 1.248192 -1.755544 0
M  V30 13 N 3.770228 1.982866 -1.590040 0
M  V30 14 C 4.310076 2.264105 -0.396367 0
M  V30 15 C 3.720553 1.787504 0.755447 0
M  V30 16 C 2.577242 1.027031 0.615626 0
M  V30 17 C 2.036562 0.748669 -0.627885 0
M  V30 18 C -1.378788 -0.503675 -0.429753 0
M  V30 19 C -2.352157 -1.117703 0.334169 0
M  V30 20 C -3.699305 -0.952558 0.060999 0
M  V30 21 C -4.656865 -1.577314 0.839661 0
M  V30 22 C -4.249375 -2.369208 1.894860 0
M  V30 23 N -2.937906 -2.532573 2.164188 0
M  V30 24 C -1.982528 -1.925751 1.408943 0
M  V30 25 H 1.355948 -1.593600 1.114027 0
M  V30 26 H 0.106965 -0.388696 -2.980421 0
M  V30 27 H 2.148362 1.044344 -3.820114 0
M  V30 28 H 5.216972 2.867858 -0.293279 0
M  V30 29 H 4.148144 2.007239 1.744830 0
M  V30 30 H 2.125917 0.660120 1.527085 0
M  V30 31 H -1.757152 0.104497 -1.242898 0
M  V30 32 H -4.005473 -0.332467 -0.764724 0
M  V30 33 H -5.728054 -1.482823 0.670718 0
M  V30 34 H -4.916116 -2.906584 2.571236 0
M  V30 END ATOM
M  V30 BEGIN BOND
M  V30 1 1 1 2
M  V30 2 1 2 3
M  V30 3 1 2 4
M  V30 4 1 2 5
M  V30 5 1 5 6
M  V30 6 2 6 7
M  V30 7 1 7 8
M  V30 8 1 8 9
M  V30 9 2 9 10
M  V30 10 1 10 11
M  V30 11 1 11 12
M  V30 12 2 12 13
M  V30 13 1 13 14
M  V30 14 2 14 15
M  V30 15 1 15 16
M  V30 16 2 16 17
M  V30 17 2 8 18
M  V30 18 1 18 19
M  V30 19 2 19 20
M  V30 20 1 20 21
M  V30 21 2 21 22
M  V30 22 1 22 23
M  V30 23 2 23 24
M  V30 24 1 24 6
M  V30 25 1 17 9
M  V30 26 1 24 19
M  V30 27 1 17 12
M  V30 28 1 7 25
M  V30 29 1 10 26
M  V30 30 1 11 27
M  V30 31 1 14 28
M  V30 32 1 15 29
M  V30 33 1 16 30
M  V30 34 1 18 31
M  V30 35 1 20 32
M  V30 36 1 21 33
M  V30 37 1 22 34
M  V30 END BOND
M  V30 END CTAB
M  END
>  <Dataset>  (214) 
ChEMBL_Kinases

>  <Ligand_Instance>  (214) 
nan

>  <PDB_ID>  (214) 
nan

>  <Standardized_SMILES>  (214) 
FC(F)(F)Oc1cc(-c2c[nH]c3ncccc23)cc2cccnc12

>  <Name>  (214) 
nan

>  <Pocket>  (214) 
nan

>  <ATP_Site>  (214) 
nan

>  <Peripheral>  (214) 
nan

>  <Num_H_Atoms_ProtBoundConf>  (214) 
nan

>  <Num_Resolved_Atoms>  (214) 
nan

>  <Num_Not_Resolved_Atoms>  (214) 
nan

$$$$
CHEMBL4798633
     RDKit          3D

  0  0  0  0  0  0  0  0  0  0999 V3000
M  V30 BEGIN CTAB
M  V30 COUNTS 22 23 0 0 0
M  V30 BEGIN ATOM
M  V30 1 C 0.527701 -2.196191 5.066868 0
M  V30 2 C 0.309928 -1.241804 3.945242 0
M  V30 3 O -0.782495 -0.598989 3.817938 0
M  V30 4 N 1.326596 -1.029172 2.987868 0
M  V30 5 C 1.090271 -0.070413 1.872713 0
M  V30 6 N 0.644226 -0.309797 0.855024 0
M  V30 7 C 0.394640 0.455449 -0.191390 0
M  V30 8 C -0.150523 0.138320 -1.422210 0
M  V30 9 O -0.565626 -1.126969 -1.816349 0
M  V30 10 C -0.316950 1.121688 -2.370904 0
M  V30 11 C 0.015501 2.438918 -2.216441 0
M  V30 12 C 0.566275 2.770099 -0.978669 0
M  V30 13 C 0.730342 1.768044 -0.026122 0
M  V30 14 S 1.387717 1.815603 1.635647 0
M  V30 15 H 1.571649 -2.051494 5.405880 0
M  V30 16 H 0.376014 -3.235569 4.695401 0
M  V30 17 H -0.217252 -2.034300 5.873473 0
M  V30 18 H 2.259879 -1.517451 3.015839 0
M  V30 19 H -0.338673 -1.495620 -2.706822 0
M  V30 20 H -0.748148 0.907549 -3.363899 0
M  V30 21 H -0.090685 3.248479 -2.918364 0
M  V30 22 H 0.896141 3.736038 -0.644465 0
M  V30 END ATOM
M  V30 BEGIN BOND
M  V30 1 1 1 2
M  V30 2 2 2 3
M  V30 3 1 2 4
M  V30 4 1 4 5
M  V30 5 2 5 6
M  V30 6 1 6 7
M  V30 7 2 7 8
M  V30 8 1 8 9
M  V30 9 1 8 10
M  V30 10 2 10 11
M  V30 11 1 11 12
M  V30 12 2 12 13
M  V30 13 1 13 14
M  V30 14 1 14 5
M  V30 15 1 13 7
M  V30 16 1 1 15
M  V30 17 1 1 16
M  V30 18 1 1 17
M  V30 19 1 4 18
M  V30 20 1 9 19
M  V30 21 1 10 20
M  V30 22 1 11 21
M  V30 23 1 12 22
M  V30 END BOND
M  V30 END CTAB
M  END
>  <Dataset>  (215) 
ChEMBL_Kinases

>  <Ligand_Instance>  (215) 
nan

>  <PDB_ID>  (215) 
nan

>  <Standardized_SMILES>  (215) 
CC(=O)Nc1nc2c(O)cccc2s1

>  <Name>  (215) 
nan

>  <Pocket>  (215) 
nan

>  <ATP_Site>  (215) 
nan

>  <Peripheral>  (215) 
nan

>  <Num_H_Atoms_ProtBoundConf>  (215) 
nan

>  <Num_Resolved_Atoms>  (215) 
nan

>  <Num_Not_Resolved_Atoms>  (215) 
nan

$$$$
CHEMBL4798660
     RDKit          3D

  0  0  0  0  0  0  0  0  0  0999 V3000
M  V30 BEGIN CTAB
M  V30 COUNTS 57 60 0 0 0
M  V30 BEGIN ATOM
M  V30 1 C 3.015977 -4.422375 -2.793900 0
M  V30 2 C 3.237199 -3.111304 -2.164415 0
M  V30 3 C 2.579174 -1.919217 -2.756423 0
M  V30 4 C 4.027972 -3.073017 -1.078650 0
M  V30 5 C 4.178127 -1.743546 -0.542012 0
M  V30 6 O 4.924285 -1.795734 0.464274 0
M  V30 7 N 4.513124 -0.601690 0.200347 0
M  V30 8 C 5.351017 -0.520308 1.379303 0
M  V30 9 C 5.351820 0.906653 1.898496 0
M  V30 10 C 3.900863 1.318841 1.940364 0
M  V30 11 C 3.146920 1.201515 0.832207 0
M  V30 12 C 1.741981 1.567429 0.759216 0
M  V30 13 C 0.966994 1.447885 -0.374138 0
M  V30 14 C -0.358861 1.826680 -0.329553 0
M  V30 15 C -0.904356 2.320762 0.838705 0
M  V30 16 C -2.338600 2.684451 0.730009 0
M  V30 17 C -3.130792 1.479890 1.086578 0
M  V30 18 O -2.136068 0.750110 1.306148 0
M  V30 19 N -4.548689 1.380747 1.112697 0
M  V30 20 C -5.014318 0.092853 1.494913 0
M  V30 21 C -5.250189 -0.913161 0.556317 0
M  V30 22 C -5.695821 -2.060477 1.192480 0
M  V30 23 C -6.066712 -3.369463 0.595364 0
M  V30 24 C -5.718423 -4.624511 1.355796 0
M  V30 25 C -7.169835 -4.169246 1.240529 0
M  V30 26 N -5.720183 -1.728295 2.489758 0
M  V30 27 N -5.325498 -0.473237 2.690048 0
M  V30 28 C -0.107118 2.428824 1.953890 0
M  V30 29 N 1.184007 2.052038 1.883925 0
M  V30 30 C 3.929528 0.651558 -0.306651 0
M  V30 31 H 2.761120 -4.269057 -3.855170 0
M  V30 32 H 3.901673 -5.089545 -2.733721 0
M  V30 33 H 2.186945 -4.913915 -2.237600 0
M  V30 34 H 3.360399 -1.326002 -3.262722 0
M  V30 35 H 1.861962 -2.240013 -3.533910 0
M  V30 36 H 2.081865 -1.321756 -1.957247 0
M  V30 37 H 4.462114 -3.996781 -0.718616 0
M  V30 38 H 6.379224 -0.901274 1.235910 0
M  V30 39 H 4.827427 -1.115529 2.186555 0
M  V30 40 H 5.694988 0.870130 2.957278 0
M  V30 41 H 5.964016 1.554537 1.274985 0
M  V30 42 H 3.421520 1.714073 2.837606 0
M  V30 43 H 1.415312 1.062183 -1.264740 0
M  V30 44 H -0.912994 1.706033 -1.259923 0
M  V30 45 H -2.588378 3.061767 -0.276158 0
M  V30 46 H -2.623112 3.481855 1.449247 0
M  V30 47 H -5.057276 2.252819 0.851907 0
M  V30 48 H -5.132992 -0.899767 -0.531343 0
M  V30 49 H -5.968076 -3.436979 -0.511814 0
M  V30 50 H -5.428712 -5.536399 0.827190 0
M  V30 51 H -5.286488 -4.538759 2.368901 0
M  V30 52 H -7.806007 -4.827202 0.585364 0
M  V30 53 H -7.643573 -3.754954 2.157013 0
M  V30 54 H -5.998667 -2.312979 3.307832 0
M  V30 55 H -0.593299 2.821392 2.833150 0
M  V30 56 H 3.386090 0.544518 -1.235005 0
M  V30 57 H 4.833411 1.313198 -0.459501 0
M  V30 END ATOM
M  V30 BEGIN BOND
M  V30 1 1 1 2
M  V30 2 1 2 3
M  V30 3 2 2 4 CFG=2
M  V30 4 1 4 5
M  V30 5 2 5 6
M  V30 6 1 5 7
M  V30 7 1 7 8
M  V30 8 1 8 9
M  V30 9 1 9 10
M  V30 10 2 10 11
M  V30 11 1 11 12
M  V30 12 2 12 13
M  V30 13 1 13 14
M  V30 14 2 14 15
M  V30 15 1 15 16
M  V30 16 1 16 17
M  V30 17 2 17 18
M  V30 18 1 17 19
M  V30 19 1 19 20
M  V30 20 1 20 21
M  V30 21 2 21 22
M  V30 22 1 22 23
M  V30 23 1 23 24
M  V30 24 1 24 25
M  V30 25 1 22 26
M  V30 26 1 26 27
M  V30 27 1 15 28
M  V30 28 2 28 29
M  V30 29 1 11 30
M  V30 30 1 30 7
M  V30 31 1 29 12
M  V30 32 2 27 20
M  V30 33 1 25 23
M  V30 34 1 1 31
M  V30 35 1 1 32
M  V30 36 1 1 33
M  V30 37 1 3 34
M  V30 38 1 3 35
M  V30 39 1 3 36
M  V30 40 1 4 37
M  V30 41 1 8 38
M  V30 42 1 8 39
M  V30 43 1 9 40
M  V30 44 1 9 41
M  V30 45 1 10 42
M  V30 46 1 13 43
M  V30 47 1 14 44
M  V30 48 1 16 45
M  V30 49 1 16 46
M  V30 50 1 19 47
M  V30 51 1 21 48
M  V30 52 1 23 49
M  V30 53 1 24 50
M  V30 54 1 24 51
M  V30 55 1 25 52
M  V30 56 1 25 53
M  V30 57 1 26 54
M  V30 58 1 28 55
M  V30 59 1 30 56
M  V30 60 1 30 57
M  V30 END BOND
M  V30 END CTAB
M  END
>  <Dataset>  (216) 
ChEMBL_Kinases

>  <Ligand_Instance>  (216) 
nan

>  <PDB_ID>  (216) 
nan

>  <Standardized_SMILES>  (216) 
CC(C)=CC(=O)N1CCC=C(c2ccc(CC(=O)Nc3cc(C4CC4)[nH]n3)cn2)C1

>  <Name>  (216) 
nan

>  <Pocket>  (216) 
nan

>  <ATP_Site>  (216) 
nan

>  <Peripheral>  (216) 
nan

>  <Num_H_Atoms_ProtBoundConf>  (216) 
nan

>  <Num_Resolved_Atoms>  (216) 
nan

>  <Num_Not_Resolved_Atoms>  (216) 
nan

$$$$
CHEMBL4798690
     RDKit          3D

  0  0  0  0  0  0  0  0  0  0999 V3000
M  V30 BEGIN CTAB
M  V30 COUNTS 69 73 0 0 0
M  V30 BEGIN ATOM
M  V30 1 C 2.589462 -0.881915 -0.080698 0
M  V30 2 C 2.675924 -0.038096 1.156973 0
M  V30 3 C 3.393595 -0.823803 2.270488 0
M  V30 4 N 3.309196 1.244014 0.952095 0
M  V30 5 C 2.511058 2.428858 1.179963 0
M  V30 6 C 1.133686 2.426071 0.966121 0
M  V30 7 C 0.339627 3.533784 1.177289 0
M  V30 8 N -1.054236 3.486151 0.935515 0
M  V30 9 C -1.731713 2.452983 0.238969 0
M  V30 10 N -2.075280 2.893302 -0.986510 0
M  V30 11 C -2.724399 2.077346 -1.834588 0
M  V30 12 C -3.013668 0.787904 -1.388904 0
M  V30 13 C -2.668518 0.322401 -0.138669 0
M  V30 14 C -2.939479 -1.026228 0.334543 0
M  V30 15 C -2.503378 -1.369538 1.603131 0
M  V30 16 C -2.779040 -2.679486 2.012737 0
M  V30 17 C -3.449672 -3.630451 1.235310 0
M  V30 18 C -3.845774 -3.178055 -0.026480 0
M  V30 19 N -4.544617 -4.147044 -0.836310 0
M  V30 20 C -4.804513 -5.484963 -0.397090 0
M  V30 21 C -5.664800 -6.185263 -1.437048 0
M  V30 22 C -4.720743 -6.478587 -2.555467 0
M  V30 23 C -3.496947 -6.957690 -1.819213 0
M  V30 24 C -3.474008 -6.244600 -0.483323 0
M  V30 25 C -3.604173 -1.920480 -0.472791 0
M  V30 26 N -2.015848 1.203104 0.662222 0
M  V30 27 C 0.937348 4.692392 1.618346 0
M  V30 28 C 2.298414 4.743595 1.843312 0
M  V30 29 C 3.083644 3.632022 1.629853 0
M  V30 30 N 4.496269 3.613337 1.844398 0
M  V30 31 C 5.157540 4.833457 2.313200 0
M  V30 32 C 5.234684 2.402494 1.594664 0
M  V30 33 O 6.287621 2.202058 2.244403 0
M  V30 34 C 4.659578 1.468665 0.552180 0 CFG=1
M  V30 35 C 5.519964 0.283446 0.342630 0
M  V30 36 H 3.272078 -1.754679 -0.072077 0
M  V30 37 H 2.768226 -0.259796 -0.985477 0
M  V30 38 H 1.566695 -1.329337 -0.245669 0
M  V30 39 H 1.655410 0.086527 1.554963 0
M  V30 40 H 4.061646 -0.150137 2.837108 0
M  V30 41 H 2.669112 -1.224704 3.007123 0
M  V30 42 H 3.898184 -1.723846 1.850082 0
M  V30 43 H 0.663475 1.510507 0.613290 0
M  V30 44 H -1.640895 4.270915 1.296376 0
M  V30 45 H -3.036617 2.369148 -2.849629 0
M  V30 46 H -3.532435 0.151440 -2.079700 0
M  V30 47 H -1.984384 -0.718382 2.274673 0
M  V30 48 H -2.487828 -3.077344 2.998094 0
M  V30 49 H -3.643510 -4.632707 1.588312 0
M  V30 50 H -4.870854 -3.826617 -1.797883 0
M  V30 51 H -5.242667 -5.591555 0.596341 0
M  V30 52 H -6.122630 -7.093609 -1.047041 0
M  V30 53 H -6.464254 -5.543745 -1.836395 0
M  V30 54 H -5.051739 -7.251846 -3.260246 0
M  V30 55 H -4.525428 -5.549659 -3.146416 0
M  V30 56 H -3.499913 -8.035676 -1.679436 0
M  V30 57 H -2.617978 -6.668216 -2.449854 0
M  V30 58 H -2.616303 -5.530251 -0.520642 0
M  V30 59 H -3.318081 -6.899410 0.376965 0
M  V30 60 H -3.957853 -1.708720 -1.446474 0
M  V30 61 H 0.312588 5.575433 1.788889 0
M  V30 62 H 2.752594 5.660088 2.189637 0
M  V30 63 H 6.233231 4.758253 2.037363 0
M  V30 64 H 5.011937 4.855545 3.420261 0
M  V30 65 H 4.746970 5.738289 1.799977 0
M  V30 66 H 4.668720 2.041672 -0.395708 0
M  V30 67 H 5.114769 -0.305122 -0.504868 0
M  V30 68 H 5.808382 -0.299786 1.212415 0
M  V30 69 H 6.501387 0.670367 -0.071276 0
M  V30 END ATOM
M  V30 BEGIN BOND
M  V30 1 1 1 2
M  V30 2 1 2 3
M  V30 3 1 2 4
M  V30 4 1 4 5
M  V30 5 2 5 6
M  V30 6 1 6 7
M  V30 7 1 7 8
M  V30 8 1 8 9
M  V30 9 2 9 10
M  V30 10 1 10 11
M  V30 11 2 11 12
M  V30 12 1 12 13
M  V30 13 1 13 14
M  V30 14 2 14 15
M  V30 15 1 15 16
M  V30 16 2 16 17
M  V30 17 1 17 18
M  V30 18 1 18 19
M  V30 19 1 19 20
M  V30 20 1 20 21
M  V30 21 1 21 22
M  V30 22 1 22 23
M  V30 23 1 23 24
M  V30 24 2 18 25
M  V30 25 2 13 26
M  V30 26 2 7 27
M  V30 27 1 27 28
M  V30 28 2 28 29
M  V30 29 1 29 30
M  V30 30 1 30 31
M  V30 31 1 30 32
M  V30 32 2 32 33
M  V30 33 1 32 34
M  V30 34 1 34 35
M  V30 35 1 34 4
M  V30 36 1 29 5
M  V30 37 1 26 9
M  V30 38 1 25 14
M  V30 39 1 24 20
M  V30 40 1 1 36
M  V30 41 1 1 37
M  V30 42 1 1 38
M  V30 43 1 2 39
M  V30 44 1 3 40
M  V30 45 1 3 41
M  V30 46 1 3 42
M  V30 47 1 6 43
M  V30 48 1 8 44
M  V30 49 1 11 45
M  V30 50 1 12 46
M  V30 51 1 15 47
M  V30 52 1 16 48
M  V30 53 1 17 49
M  V30 54 1 19 50
M  V30 55 1 20 51
M  V30 56 1 21 52
M  V30 57 1 21 53
M  V30 58 1 22 54
M  V30 59 1 22 55
M  V30 60 1 23 56
M  V30 61 1 23 57
M  V30 62 1 24 58
M  V30 63 1 24 59
M  V30 64 1 25 60
M  V30 65 1 27 61
M  V30 66 1 28 62
M  V30 67 1 31 63
M  V30 68 1 31 64
M  V30 69 1 31 65
M  V30 70 1 34 66 CFG=3
M  V30 71 1 35 67
M  V30 72 1 35 68
M  V30 73 1 35 69
M  V30 END BOND
M  V30 END CTAB
M  END
>  <Dataset>  (217) 
ChEMBL_Kinases

>  <Ligand_Instance>  (217) 
nan

>  <PDB_ID>  (217) 
nan

>  <Standardized_SMILES>  (217) 
CC(C)N1c2cc(Nc3nccc(-c4cccc(NC5CCCC5)c4)n3)ccc2N(C)C(=O)[C@H]1C

>  <Name>  (217) 
nan

>  <Pocket>  (217) 
nan

>  <ATP_Site>  (217) 
nan

>  <Peripheral>  (217) 
nan

>  <Num_H_Atoms_ProtBoundConf>  (217) 
nan

>  <Num_Resolved_Atoms>  (217) 
nan

>  <Num_Not_Resolved_Atoms>  (217) 
nan

$$$$
CHEMBL4798419
     RDKit          3D

  0  0  0  0  0  0  0  0  0  0999 V3000
M  V30 BEGIN CTAB
M  V30 COUNTS 95 100 0 0 0
M  V30 BEGIN ATOM
M  V30 1 C -1.326168 -7.241962 5.472508 0
M  V30 2 N -1.206762 -6.320960 4.319915 0
M  V30 3 C -0.102016 -5.531896 4.652055 0
M  V30 4 O 0.503145 -5.724494 5.723523 0
M  V30 5 C 0.327616 -4.436670 3.665089 0
M  V30 6 S 1.810354 -3.672737 4.522052 0
M  V30 7 C 2.134378 -2.380147 3.113111 0
M  V30 8 C 3.310626 -1.591088 3.543834 0
M  V30 9 C 4.224824 -1.874819 4.525099 0
M  V30 10 C 5.086951 -0.808614 4.752765 0
M  V30 11 N 5.118851 0.377174 4.164484 0
M  V30 12 C 4.168770 0.653270 3.153681 0
M  V30 13 N 4.321073 1.957615 2.698880 0
M  V30 14 C 3.151819 2.723652 2.574378 0
M  V30 15 O 2.087754 2.045761 2.900539 0
M  V30 16 C 1.969597 3.592370 2.418752 0
M  V30 17 N 0.710560 2.978144 2.693423 0
M  V30 18 C 0.183621 2.051120 1.767668 0
M  V30 19 C -1.065155 1.354878 2.360150 0
M  V30 20 C -1.564478 0.317175 1.409114 0
M  V30 21 C -2.002014 0.902571 0.113884 0
M  V30 22 C -2.410110 -0.228095 -0.849536 0
M  V30 23 C -2.878475 0.384552 -2.135593 0
M  V30 24 C -3.180453 -0.723934 -3.156243 0
M  V30 25 C -1.899184 -1.482832 -3.469501 0
M  V30 26 N -0.902242 -0.634878 -4.123697 0
M  V30 27 C -0.452277 0.695752 -4.263914 0
M  V30 28 C 0.427942 1.460419 -3.534296 0
M  V30 29 C 0.674949 2.734019 -3.913026 0
M  V30 30 N 0.087629 3.277130 -4.988115 0
M  V30 31 C -0.781500 2.602889 -5.760982 0
M  V30 32 C -1.282017 3.286703 -6.838525 0
M  V30 33 C -2.162964 2.566581 -7.641192 0
M  V30 34 C -2.481654 1.274964 -7.345085 0
M  V30 35 C -1.927742 0.679744 -6.243065 0
M  V30 36 C -1.049699 1.282265 -5.377698 0
M  V30 37 C 1.588685 3.619213 -3.120223 0
M  V30 38 C 2.594729 2.671996 -2.447949 0
M  V30 39 C 1.770646 1.787606 -1.516020 0
M  V30 40 C 1.025704 0.765415 -2.389941 0
M  V30 41 C 3.347617 -0.387963 2.947042 0
M  V30 42 N 1.281236 -2.976129 2.830497 0
M  V30 43 C 0.320252 -3.670810 2.545847 0
M  V30 44 O -0.721342 -4.188704 1.901096 0
M  V30 45 C -1.461111 -4.287444 0.883876 0
M  V30 46 C -2.319073 -4.329366 -0.270726 0
M  V30 47 C -3.797429 -4.007970 -0.312873 0
M  V30 48 C -3.355226 -5.378523 -0.576045 0
M  V30 49 H -2.265475 -7.843987 5.383396 0
M  V30 50 H -1.421024 -6.696961 6.420770 0
M  V30 51 H -0.419928 -7.868030 5.514751 0
M  V30 52 H -1.772883 -6.258745 3.477952 0
M  V30 53 H 4.193091 -2.820840 4.984297 0
M  V30 54 H 5.825154 -1.040698 5.549822 0
M  V30 55 H 4.900856 2.713959 2.379932 0
M  V30 56 H 1.935237 3.924191 1.341693 0
M  V30 57 H 2.032626 4.495524 3.089523 0
M  V30 58 H 0.518203 2.767330 3.696540 0
M  V30 59 H -0.257333 2.603813 0.880948 0
M  V30 60 H 0.798319 1.244831 1.380846 0
M  V30 61 H -1.801568 2.187364 2.473112 0
M  V30 62 H -0.844351 0.973426 3.359167 0
M  V30 63 H -0.804347 -0.505303 1.267318 0
M  V30 64 H -2.421730 -0.211165 1.906330 0
M  V30 65 H -1.227932 1.468334 -0.419158 0
M  V30 66 H -2.890563 1.543365 0.277996 0
M  V30 67 H -1.566833 -0.903049 -0.901358 0
M  V30 68 H -3.322121 -0.714532 -0.405885 0
M  V30 69 H -3.903588 0.822392 -1.937220 0
M  V30 70 H -2.241145 1.170291 -2.500431 0
M  V30 71 H -3.930789 -1.396293 -2.734863 0
M  V30 72 H -3.541934 -0.241090 -4.056732 0
M  V30 73 H -2.186783 -2.275723 -4.187203 0
M  V30 74 H -1.447041 -1.977477 -2.616656 0
M  V30 75 H -0.229998 -1.153722 -4.738876 0
M  V30 76 H -1.009102 4.326074 -7.046018 0
M  V30 77 H -2.558539 3.115471 -8.496956 0
M  V30 78 H -3.168902 0.721235 -7.983835 0
M  V30 79 H -2.204805 -0.363627 -6.032389 0
M  V30 80 H 0.933180 3.978337 -2.264180 0
M  V30 81 H 2.061404 4.414183 -3.670087 0
M  V30 82 H 3.033924 2.041054 -3.226526 0
M  V30 83 H 3.323013 3.218322 -1.832266 0
M  V30 84 H 1.007316 2.397707 -1.000062 0
M  V30 85 H 2.440308 1.227705 -0.863205 0
M  V30 86 H 0.301438 0.225867 -1.783549 0
M  V30 87 H 1.815391 0.075263 -2.735438 0
M  V30 88 H 2.647711 -0.070761 2.137074 0
M  V30 89 H -2.288442 -3.353802 1.422970 0
M  V30 90 H -2.254483 -5.218369 1.476625 0
M  V30 91 H -1.849153 -3.912129 -1.267419 0
M  V30 92 H -4.232173 -3.365860 -1.074094 0
M  V30 93 H -4.268723 -3.865524 0.702564 0
M  V30 94 H -3.496245 -6.173856 0.207417 0
M  V30 95 H -3.464012 -5.755422 -1.600731 0
M  V30 END ATOM
M  V30 BEGIN BOND
M  V30 1 1 1 2
M  V30 2 1 2 3
M  V30 3 2 3 4
M  V30 4 1 3 5
M  V30 5 1 5 6
M  V30 6 1 6 7
M  V30 7 1 7 8
M  V30 8 2 8 9
M  V30 9 1 9 10
M  V30 10 2 10 11
M  V30 11 1 11 12
M  V30 12 1 12 13
M  V30 13 1 13 14
M  V30 14 2 14 15
M  V30 15 1 14 16
M  V30 16 1 16 17
M  V30 17 1 17 18
M  V30 18 1 18 19
M  V30 19 1 19 20
M  V30 20 1 20 21
M  V30 21 1 21 22
M  V30 22 1 22 23
M  V30 23 1 23 24
M  V30 24 1 24 25
M  V30 25 1 25 26
M  V30 26 1 26 27
M  V30 27 2 27 28
M  V30 28 1 28 29
M  V30 29 2 29 30
M  V30 30 1 30 31
M  V30 31 2 31 32
M  V30 32 1 32 33
M  V30 33 2 33 34
M  V30 34 1 34 35
M  V30 35 2 35 36
M  V30 36 1 29 37
M  V30 37 1 37 38
M  V30 38 1 38 39
M  V30 39 1 39 40
M  V30 40 2 12 41
M  V30 41 2 7 42
M  V30 42 1 42 43
M  V30 43 1 43 44
M  V30 44 1 44 45
M  V30 45 1 45 46
M  V30 46 1 46 47
M  V30 47 1 47 48
M  V30 48 2 43 5
M  V30 49 1 48 46
M  V30 50 1 41 8
M  V30 51 1 36 27
M  V30 52 1 40 28
M  V30 53 1 36 31
M  V30 54 1 1 49
M  V30 55 1 1 50
M  V30 56 1 1 51
M  V30 57 1 2 52
M  V30 58 1 9 53
M  V30 59 1 10 54
M  V30 60 1 13 55
M  V30 61 1 16 56
M  V30 62 1 16 57
M  V30 63 1 17 58
M  V30 64 1 18 59
M  V30 65 1 18 60
M  V30 66 1 19 61
M  V30 67 1 19 62
M  V30 68 1 20 63
M  V30 69 1 20 64
M  V30 70 1 21 65
M  V30 71 1 21 66
M  V30 72 1 22 67
M  V30 73 1 22 68
M  V30 74 1 23 69
M  V30 75 1 23 70
M  V30 76 1 24 71
M  V30 77 1 24 72
M  V30 78 1 25 73
M  V30 79 1 25 74
M  V30 80 1 26 75
M  V30 81 1 32 76
M  V30 82 1 33 77
M  V30 83 1 34 78
M  V30 84 1 35 79
M  V30 85 1 37 80
M  V30 86 1 37 81
M  V30 87 1 38 82
M  V30 88 1 38 83
M  V30 89 1 39 84
M  V30 90 1 39 85
M  V30 91 1 40 86
M  V30 92 1 40 87
M  V30 93 1 41 88
M  V30 94 1 45 89
M  V30 95 1 45 90
M  V30 96 1 46 91
M  V30 97 1 47 92
M  V30 98 1 47 93
M  V30 99 1 48 94
M  V30 100 1 48 95
M  V30 END BOND
M  V30 END CTAB
M  END
>  <Dataset>  (218) 
ChEMBL_Kinases

>  <Ligand_Instance>  (218) 
nan

>  <PDB_ID>  (218) 
nan

>  <Standardized_SMILES>  (218) 
CNC(=O)c1sc(-c2ccnc(NC(=O)CNCCCCCCCCNc3c4c(nc5ccccc35)CCCC4)c2)nc1OCC1CC1

>  <Name>  (218) 
nan

>  <Pocket>  (218) 
nan

>  <ATP_Site>  (218) 
nan

>  <Peripheral>  (218) 
nan

>  <Num_H_Atoms_ProtBoundConf>  (218) 
nan

>  <Num_Resolved_Atoms>  (218) 
nan

>  <Num_Not_Resolved_Atoms>  (218) 
nan

$$$$
CHEMBL4797256
     RDKit          3D

  0  0  0  0  0  0  0  0  0  0999 V3000
M  V30 BEGIN CTAB
M  V30 COUNTS 44 47 0 0 0
M  V30 BEGIN ATOM
M  V30 1 O -2.008251 -3.258738 0.064681 0
M  V30 2 C -1.152095 -4.162396 -0.131056 0
M  V30 3 N 0.214506 -3.878691 0.112502 0
M  V30 4 C 0.493178 -2.551241 0.570853 0
M  V30 5 C 0.737474 -1.629106 -0.420344 0
M  V30 6 C 1.007808 -0.348716 -0.019464 0
M  V30 7 C 1.063590 0.124234 1.265861 0
M  V30 8 O 1.300639 1.295743 1.896761 0
M  V30 9 C 1.592786 2.540389 1.510036 0
M  V30 10 C 1.783965 3.200803 0.343197 0
M  V30 11 C 2.086969 4.528619 0.161218 0
M  V30 12 C 2.214263 5.288920 1.285144 0
M  V30 13 C 2.520002 6.626462 1.089183 0
M  V30 14 C 2.665778 7.462427 2.172505 0
M  V30 15 C 2.498106 6.922720 3.429623 0
M  V30 16 C 2.196148 5.595082 3.583454 0
M  V30 17 C 2.041445 4.724498 2.532734 0
M  V30 18 C 1.736388 3.373624 2.632846 0
M  V30 19 Br 1.545170 2.827092 4.471623 0
M  V30 20 C 0.809283 -0.843817 2.251050 0
M  V30 21 Cl 0.768715 -0.718846 4.019027 0
M  V30 22 C 0.525915 -2.173211 1.904173 0
M  V30 23 C -1.629565 -5.458226 -0.601651 0
M  V30 24 C -0.788881 -6.517363 -0.849506 0
M  V30 25 C -1.211833 -7.762186 -1.297806 0
M  V30 26 Cl -0.071374 -9.056827 -1.588254 0
M  V30 27 C -2.568515 -7.928400 -1.502339 0
M  V30 28 C -3.470142 -6.910320 -1.274537 0
M  V30 29 Cl -5.194656 -7.095805 -1.526354 0
M  V30 30 C -2.967870 -5.705551 -0.830304 0
M  V30 31 O -3.889649 -4.670622 -0.599251 0
M  V30 32 H 0.937254 -4.615000 -0.044038 0
M  V30 33 H 0.732771 -1.832632 -1.470580 0
M  V30 34 H 1.201768 0.394087 -0.747215 0
M  V30 35 H 1.683050 2.599298 -0.542726 0
M  V30 36 H 2.210520 4.915284 -0.832153 0
M  V30 37 H 2.654178 7.061732 0.103764 0
M  V30 38 H 2.900766 8.511970 2.149690 0
M  V30 39 H 2.602317 7.541575 4.330021 0
M  V30 40 H 2.070864 5.200458 4.575398 0
M  V30 41 H 0.312793 -3.017272 2.542513 0
M  V30 42 H 0.267313 -6.423974 -0.701842 0
M  V30 43 H -2.946411 -8.887794 -1.853641 0
M  V30 44 H -4.078593 -3.959097 -1.287212 0
M  V30 END ATOM
M  V30 BEGIN BOND
M  V30 1 2 1 2
M  V30 2 1 2 3
M  V30 3 1 3 4
M  V30 4 2 4 5
M  V30 5 1 5 6
M  V30 6 2 6 7
M  V30 7 1 7 8
M  V30 8 1 8 9
M  V30 9 2 9 10
M  V30 10 1 10 11
M  V30 11 2 11 12
M  V30 12 1 12 13
M  V30 13 2 13 14
M  V30 14 1 14 15
M  V30 15 2 15 16
M  V30 16 1 16 17
M  V30 17 2 17 18
M  V30 18 1 18 19
M  V30 19 1 7 20
M  V30 20 1 20 21
M  V30 21 2 20 22
M  V30 22 1 2 23
M  V30 23 2 23 24
M  V30 24 1 24 25
M  V30 25 1 25 26
M  V30 26 2 25 27
M  V30 27 1 27 28
M  V30 28 1 28 29
M  V30 29 2 28 30
M  V30 30 1 30 31
M  V30 31 1 22 4
M  V30 32 1 30 23
M  V30 33 1 18 9
M  V30 34 1 17 12
M  V30 35 1 3 32
M  V30 36 1 5 33
M  V30 37 1 6 34
M  V30 38 1 10 35
M  V30 39 1 11 36
M  V30 40 1 13 37
M  V30 41 1 14 38
M  V30 42 1 15 39
M  V30 43 1 16 40
M  V30 44 1 22 41
M  V30 45 1 24 42
M  V30 46 1 27 43
M  V30 47 1 31 44
M  V30 END BOND
M  V30 END CTAB
M  END
>  <Dataset>  (219) 
ChEMBL_Kinases

>  <Ligand_Instance>  (219) 
nan

>  <PDB_ID>  (219) 
nan

>  <Standardized_SMILES>  (219) 
O=C(Nc1ccc(Oc2ccc3ccccc3c2Br)c(Cl)c1)c1cc(Cl)cc(Cl)c1O

>  <Name>  (219) 
nan

>  <Pocket>  (219) 
nan

>  <ATP_Site>  (219) 
nan

>  <Peripheral>  (219) 
nan

>  <Num_H_Atoms_ProtBoundConf>  (219) 
nan

>  <Num_Resolved_Atoms>  (219) 
nan

>  <Num_Not_Resolved_Atoms>  (219) 
nan

$$$$
CHEMBL4797274
     RDKit          3D

  0  0  0  0  0  0  0  0  0  0999 V3000
M  V30 BEGIN CTAB
M  V30 COUNTS 54 57 0 0 0
M  V30 BEGIN ATOM
M  V30 1 C -4.184259 -3.346839 -1.105229 0
M  V30 2 C -4.530321 -4.081725 0.165448 0
M  V30 3 C -3.356691 -4.331672 1.053041 0
M  V30 4 S -2.556054 -2.855542 1.582062 0
M  V30 5 O -1.397843 -3.221464 2.500454 0
M  V30 6 O -3.500018 -2.068540 2.445246 0
M  V30 7 N -1.952934 -1.918897 0.279694 0
M  V30 8 C -0.969750 -2.387543 -0.615719 0
M  V30 9 C -0.298497 -3.564146 -0.360415 0
M  V30 10 C 0.663249 -4.014024 -1.235652 0
M  V30 11 C 0.987432 -3.302350 -2.395845 0
M  V30 12 F 1.961889 -3.839687 -3.201257 0
M  V30 13 C 0.334691 -2.123151 -2.676845 0
M  V30 14 C 0.685705 -1.452043 -3.901815 0
M  V30 15 O 1.133135 -2.259297 -4.768268 0
M  V30 16 C 0.665479 -0.101621 -4.412080 0
M  V30 17 N 0.585867 0.180199 -5.705041 0
M  V30 18 N 0.624478 1.508407 -5.886000 0
M  V30 19 C 0.732966 2.157609 -4.713356 0
M  V30 20 N 0.820570 3.459965 -4.390225 0
M  V30 21 C 0.945431 3.840465 -3.085155 0
M  V30 22 C 0.975478 2.829698 -2.144862 0
M  V30 23 C 1.111707 3.256654 -0.741079 0
M  V30 24 C 1.852685 4.424328 -0.531493 0
M  V30 25 C 2.038579 4.910121 0.761827 0
M  V30 26 C 1.505840 4.259740 1.828061 0
M  V30 27 C 1.726714 4.804732 3.160134 0
M  V30 28 N 1.162149 4.116347 4.260268 0
M  V30 29 O 2.392018 5.849734 3.357422 0
M  V30 30 C 0.783540 3.120575 1.617606 0
M  V30 31 C 0.572831 2.602122 0.358762 0
M  V30 32 C 0.885288 1.494365 -2.473912 0
M  V30 33 C 0.758105 1.128659 -3.796654 0
M  V30 34 C -0.614845 -1.725055 -1.769955 0
M  V30 35 F -1.339931 -0.606678 -1.987507 0
M  V30 36 H -3.991495 -2.275474 -0.967647 0
M  V30 37 H -3.301786 -3.790126 -1.599542 0
M  V30 38 H -5.057243 -3.407550 -1.815910 0
M  V30 39 H -5.304123 -3.529240 0.730859 0
M  V30 40 H -4.963287 -5.066421 -0.110157 0
M  V30 41 H -2.677955 -5.074554 0.609693 0
M  V30 42 H -3.767533 -4.819960 1.979739 0
M  V30 43 H -2.327764 -0.944037 0.131832 0
M  V30 44 H -0.472315 -4.178532 0.502112 0
M  V30 45 H 1.195515 -4.941821 -1.040271 0
M  V30 46 H 0.570979 1.894611 -6.847910 0
M  V30 47 H 1.012256 4.897987 -2.871093 0
M  V30 48 H 2.316436 5.014033 -1.307776 0
M  V30 49 H 2.598552 5.803011 0.986109 0
M  V30 50 H 0.729741 3.663399 5.084960 0
M  V30 51 H 1.133422 3.121269 4.547551 0
M  V30 52 H 0.337765 2.567123 2.452314 0
M  V30 53 H 0.014738 1.712643 0.136265 0
M  V30 54 H 0.920909 0.728944 -1.732375 0
M  V30 END ATOM
M  V30 BEGIN BOND
M  V30 1 1 1 2
M  V30 2 1 2 3
M  V30 3 1 3 4
M  V30 4 2 4 5
M  V30 5 2 4 6
M  V30 6 1 4 7
M  V30 7 1 7 8
M  V30 8 2 8 9
M  V30 9 1 9 10
M  V30 10 2 10 11
M  V30 11 1 11 12
M  V30 12 1 11 13
M  V30 13 1 13 14
M  V30 14 2 14 15
M  V30 15 1 14 16
M  V30 16 2 16 17
M  V30 17 1 17 18
M  V30 18 1 18 19
M  V30 19 2 19 20
M  V30 20 1 20 21
M  V30 21 2 21 22
M  V30 22 1 22 23
M  V30 23 2 23 24
M  V30 24 1 24 25
M  V30 25 2 25 26
M  V30 26 1 26 27
M  V30 27 1 27 28
M  V30 28 2 27 29
M  V30 29 1 26 30
M  V30 30 2 30 31
M  V30 31 1 22 32
M  V30 32 2 32 33
M  V30 33 2 13 34
M  V30 34 1 34 35
M  V30 35 1 34 8
M  V30 36 1 33 16
M  V30 37 1 33 19
M  V30 38 1 31 23
M  V30 39 1 1 36
M  V30 40 1 1 37
M  V30 41 1 1 38
M  V30 42 1 2 39
M  V30 43 1 2 40
M  V30 44 1 3 41
M  V30 45 1 3 42
M  V30 46 1 7 43
M  V30 47 1 9 44
M  V30 48 1 10 45
M  V30 49 1 18 46
M  V30 50 1 21 47
M  V30 51 1 24 48
M  V30 52 1 25 49
M  V30 53 1 28 50
M  V30 54 1 28 51
M  V30 55 1 30 52
M  V30 56 1 31 53
M  V30 57 1 32 54
M  V30 END BOND
M  V30 END CTAB
M  END
>  <Dataset>  (220) 
ChEMBL_Kinases

>  <Ligand_Instance>  (220) 
nan

>  <PDB_ID>  (220) 
nan

>  <Standardized_SMILES>  (220) 
CCCS(=O)(=O)Nc1ccc(F)c(C(=O)c2n[nH]c3ncc(-c4ccc(C(N)=O)cc4)cc23)c1F

>  <Name>  (220) 
nan

>  <Pocket>  (220) 
nan

>  <ATP_Site>  (220) 
nan

>  <Peripheral>  (220) 
nan

>  <Num_H_Atoms_ProtBoundConf>  (220) 
nan

>  <Num_Resolved_Atoms>  (220) 
nan

>  <Num_Not_Resolved_Atoms>  (220) 
nan

$$$$
CHEMBL4797284
     RDKit          3D

  0  0  0  0  0  0  0  0  0  0999 V3000
M  V30 BEGIN CTAB
M  V30 COUNTS 55 58 0 0 0
M  V30 BEGIN ATOM
M  V30 1 C 1.943423 -4.083493 1.275030 0
M  V30 2 C 3.001630 -3.081108 1.562886 0
M  V30 3 C 3.422338 -2.315773 0.328554 0
M  V30 4 C 2.754084 -2.191927 2.752307 0 CFG=2
M  V30 5 C 2.627878 -3.067742 4.011194 0
M  V30 6 C 1.749177 -2.275010 4.952162 0
M  V30 7 C 1.313296 -1.027176 4.201060 0 CFG=1
M  V30 8 C 2.269280 0.085435 4.570821 0
M  V30 9 O 2.200574 0.284207 5.951652 0
M  V30 10 C 1.449593 -1.490794 2.775532 0 CFG=1
M  V30 11 N 1.344975 -0.449173 1.792427 0
M  V30 12 C 0.125409 0.324544 1.716715 0
M  V30 13 N -0.536752 0.735854 2.733638 0
M  V30 14 C -1.681507 1.463834 2.514623 0
M  V30 15 O -2.396865 1.909221 3.467484 0
M  V30 16 C -2.007154 1.682489 1.135619 0
M  V30 17 C -3.013598 2.335770 0.608663 0
M  V30 18 C -3.258868 2.501181 -0.825421 0
M  V30 19 C -3.728784 3.666176 -1.426480 0
M  V30 20 S -3.808200 3.118809 -3.240576 0
M  V30 21 C -3.206475 1.481006 -2.806605 0
M  V30 22 C -3.015595 0.417625 -3.887340 0
M  V30 23 C -2.553280 -0.826832 -3.531297 0
M  V30 24 C -2.361972 -1.828066 -4.455521 0
M  V30 25 C -2.648203 -1.556898 -5.774071 0
M  V30 26 C -3.109275 -0.300704 -6.095233 0
M  V30 27 C -3.311734 0.721817 -5.199460 0
M  V30 28 O -3.777158 1.983309 -5.536731 0
M  V30 29 N -3.032698 1.472201 -1.615016 0
M  V30 30 S -0.718149 0.868620 0.199489 0
M  V30 31 H 2.020035 -5.024982 1.892007 0
M  V30 32 H 0.913109 -3.740417 1.256411 0
M  V30 33 H 2.144108 -4.458409 0.227350 0
M  V30 34 H 3.919705 -3.681754 1.845402 0
M  V30 35 H 2.587459 -2.026268 -0.330884 0
M  V30 36 H 4.079558 -2.999955 -0.286145 0
M  V30 37 H 4.081923 -1.469571 0.627109 0
M  V30 38 H 3.648923 -1.546013 2.852345 0
M  V30 39 H 3.608042 -3.297734 4.438474 0
M  V30 40 H 2.088757 -3.972027 3.678827 0
M  V30 41 H 0.819726 -2.832844 5.230722 0
M  V30 42 H 2.253946 -2.045921 5.912750 0
M  V30 43 H 0.275738 -0.779216 4.456849 0
M  V30 44 H 1.935303 1.015430 4.083356 0
M  V30 45 H 3.300410 -0.162572 4.300429 0
M  V30 46 H 1.262896 0.424699 6.216822 0
M  V30 47 H 0.665057 -2.282263 2.658784 0
M  V30 48 H 2.087901 -0.165980 1.080832 0
M  V30 49 H -3.763470 2.816401 1.248605 0
M  V30 50 H -3.943642 4.619534 -0.726049 0
M  V30 51 H -2.334925 -1.011749 -2.472736 0
M  V30 52 H -1.991303 -2.789086 -4.091208 0
M  V30 53 H -2.504337 -2.330412 -6.517249 0
M  V30 54 H -3.348741 -0.045511 -7.139480 0
M  V30 55 H -3.896487 2.288288 -6.492179 0
M  V30 END ATOM
M  V30 BEGIN BOND
M  V30 1 1 1 2
M  V30 2 1 2 3
M  V30 3 1 2 4
M  V30 4 1 4 5
M  V30 5 1 5 6
M  V30 6 1 6 7
M  V30 7 1 7 8
M  V30 8 1 8 9
M  V30 9 1 7 10
M  V30 10 1 10 11
M  V30 11 1 11 12
M  V30 12 2 12 13
M  V30 13 1 13 14
M  V30 14 2 14 15
M  V30 15 1 14 16
M  V30 16 2 16 17
M  V30 17 1 17 18
M  V30 18 2 18 19
M  V30 19 1 19 20
M  V30 20 1 20 21
M  V30 21 1 21 22
M  V30 22 2 22 23
M  V30 23 1 23 24
M  V30 24 2 24 25
M  V30 25 1 25 26
M  V30 26 2 26 27
M  V30 27 1 27 28
M  V30 28 2 21 29
M  V30 29 1 16 30
M  V30 30 1 10 4
M  V30 31 1 30 12
M  V30 32 1 29 18
M  V30 33 1 27 22
M  V30 34 1 1 31
M  V30 35 1 1 32
M  V30 36 1 1 33
M  V30 37 1 2 34
M  V30 38 1 3 35
M  V30 39 1 3 36
M  V30 40 1 3 37
M  V30 41 1 4 38 CFG=1
M  V30 42 1 5 39
M  V30 43 1 5 40
M  V30 44 1 6 41
M  V30 45 1 6 42
M  V30 46 1 7 43 CFG=1
M  V30 47 1 8 44
M  V30 48 1 8 45
M  V30 49 1 9 46
M  V30 50 1 10 47 CFG=3
M  V30 51 1 11 48
M  V30 52 1 17 49
M  V30 53 1 19 50
M  V30 54 1 23 51
M  V30 55 1 24 52
M  V30 56 1 25 53
M  V30 57 1 26 54
M  V30 58 1 28 55
M  V30 END BOND
M  V30 END CTAB
M  END
>  <Dataset>  (221) 
ChEMBL_Kinases

>  <Ligand_Instance>  (221) 
nan

>  <PDB_ID>  (221) 
nan

>  <Standardized_SMILES>  (221) 
CC(C)[C@@H]1CC[C@@H](CO)[C@H]1NC1=NC(=O)/C(=C/c2csc(-c3ccccc3O)n2)S1

>  <Name>  (221) 
nan

>  <Pocket>  (221) 
nan

>  <ATP_Site>  (221) 
nan

>  <Peripheral>  (221) 
nan

>  <Num_H_Atoms_ProtBoundConf>  (221) 
nan

>  <Num_Resolved_Atoms>  (221) 
nan

>  <Num_Not_Resolved_Atoms>  (221) 
nan

$$$$
CHEMBL4797288
     RDKit          3D

  0  0  0  0  0  0  0  0  0  0999 V3000
M  V30 BEGIN CTAB
M  V30 COUNTS 57 60 0 0 0
M  V30 BEGIN ATOM
M  V30 1 C 3.635190 -5.472172 3.039047 0
M  V30 2 C 4.268538 -4.598831 2.257236 0
M  V30 3 C 4.598820 -3.399342 1.465127 0
M  V30 4 O 5.651479 -3.182141 0.812228 0
M  V30 5 N 3.609317 -2.394828 1.449835 0
M  V30 6 C 3.307916 -1.110556 0.935767 0
M  V30 7 C 3.570410 0.099036 1.568673 0
M  V30 8 C 3.201226 1.272060 0.897874 0
M  V30 9 C 2.598502 1.218264 -0.345288 0
M  V30 10 C 2.287909 2.601267 -0.772558 0
M  V30 11 O 3.092618 3.497539 -1.126985 0
M  V30 12 N 0.870155 2.912298 -0.764693 0
M  V30 13 C 0.232469 4.145689 -1.129200 0
M  V30 14 C -0.773612 4.665340 -0.138807 0
M  V30 15 C -1.741622 3.579963 0.312453 0
M  V30 16 C -0.881907 2.470358 0.849764 0 CFG=1
M  V30 17 N -1.638291 1.381650 1.355485 0
M  V30 18 C -2.432891 0.610734 0.412702 0
M  V30 19 N -2.756926 0.498847 -0.665937 0
M  V30 20 C -3.532876 -0.430385 -1.216347 0
M  V30 21 C -4.009804 -1.390899 -0.361209 0
M  V30 22 S -5.063479 -2.723098 -1.032895 0
M  V30 23 C -3.980818 -4.120034 -1.498770 0
M  V30 24 C -3.375808 -4.762932 -0.307990 0
M  V30 25 C -4.161545 -5.818715 0.141533 0
M  V30 26 N -3.775956 -6.536768 1.232934 0
M  V30 27 C -2.624702 -6.229125 1.890356 0
M  V30 28 N -1.886606 -5.205755 1.435556 0
M  V30 29 C -2.226410 -4.472089 0.366094 0
M  V30 30 S -3.285442 -0.872755 1.237380 0
M  V30 31 C -0.108737 1.928311 -0.357585 0
M  V30 32 C 2.339641 0.025352 -0.970501 0
M  V30 33 C 2.702017 -1.137930 -0.314431 0
M  V30 34 H 2.661579 -5.325390 3.472718 0
M  V30 35 H 2.688624 -4.983326 3.282723 0
M  V30 36 H 5.047079 -5.348969 2.238390 0
M  V30 37 H 2.700277 -2.517533 1.982097 0
M  V30 38 H 4.043625 0.021915 2.537353 0
M  V30 39 H 3.464781 2.141826 1.503382 0
M  V30 40 H -0.359351 3.944380 -2.072124 0
M  V30 41 H 0.939819 4.983362 -1.328120 0
M  V30 42 H -1.395754 5.412501 -0.687017 0
M  V30 43 H -0.338446 5.172264 0.722671 0
M  V30 44 H -2.360946 3.252195 -0.523237 0
M  V30 45 H -2.355289 4.068578 1.120854 0
M  V30 46 H -0.179062 2.933759 1.565212 0
M  V30 47 H -1.553758 1.228051 2.374867 0
M  V30 48 H -3.704533 -0.322388 -2.290059 0
M  V30 49 H -3.144255 -3.647631 -2.091657 0
M  V30 50 H -4.471704 -4.835176 -2.174055 0
M  V30 51 H -5.093080 -6.230910 -0.219079 0
M  V30 52 H -2.315086 -6.799559 2.762799 0
M  V30 53 H -1.687027 -3.643569 -0.048438 0
M  V30 54 H 0.299434 0.956333 -0.092407 0
M  V30 55 H -0.862086 1.850300 -1.179469 0
M  V30 56 H 1.867508 0.163000 -1.936192 0
M  V30 57 H 2.460892 -2.036113 -0.886971 0
M  V30 END ATOM
M  V30 BEGIN BOND
M  V30 1 2 1 2
M  V30 2 1 2 3
M  V30 3 2 3 4
M  V30 4 1 3 5
M  V30 5 1 5 6
M  V30 6 2 6 7
M  V30 7 1 7 8
M  V30 8 2 8 9
M  V30 9 1 9 10
M  V30 10 2 10 11
M  V30 11 1 10 12
M  V30 12 1 12 13
M  V30 13 1 13 14
M  V30 14 1 14 15
M  V30 15 1 15 16
M  V30 16 1 16 17
M  V30 17 1 17 18
M  V30 18 2 18 19
M  V30 19 1 19 20
M  V30 20 2 20 21
M  V30 21 1 21 22
M  V30 22 1 22 23
M  V30 23 1 23 24
M  V30 24 2 24 25
M  V30 25 1 25 26
M  V30 26 2 26 27
M  V30 27 1 27 28
M  V30 28 2 28 29
M  V30 29 1 21 30
M  V30 30 1 16 31
M  V30 31 1 9 32
M  V30 32 2 32 33
M  V30 33 1 33 6
M  V30 34 1 31 12
M  V30 35 1 30 18
M  V30 36 1 29 24
M  V30 37 1 1 34
M  V30 38 1 1 35
M  V30 39 1 2 36
M  V30 40 1 5 37
M  V30 41 1 7 38
M  V30 42 1 8 39
M  V30 43 1 13 40
M  V30 44 1 13 41
M  V30 45 1 14 42
M  V30 46 1 14 43
M  V30 47 1 15 44
M  V30 48 1 15 45
M  V30 49 1 16 46 CFG=1
M  V30 50 1 17 47
M  V30 51 1 20 48
M  V30 52 1 23 49
M  V30 53 1 23 50
M  V30 54 1 25 51
M  V30 55 1 27 52
M  V30 56 1 29 53
M  V30 57 1 31 54
M  V30 58 1 31 55
M  V30 59 1 32 56
M  V30 60 1 33 57
M  V30 END BOND
M  V30 END CTAB
M  END
>  <Dataset>  (222) 
ChEMBL_Kinases

>  <Ligand_Instance>  (222) 
nan

>  <PDB_ID>  (222) 
nan

>  <Standardized_SMILES>  (222) 
C=CC(=O)Nc1ccc(C(=O)N2CCC[C@@H](Nc3ncc(SCc4cncnc4)s3)C2)cc1

>  <Name>  (222) 
nan

>  <Pocket>  (222) 
nan

>  <ATP_Site>  (222) 
nan

>  <Peripheral>  (222) 
nan

>  <Num_H_Atoms_ProtBoundConf>  (222) 
nan

>  <Num_Resolved_Atoms>  (222) 
nan

>  <Num_Not_Resolved_Atoms>  (222) 
nan

$$$$
CHEMBL4797332
     RDKit          3D

  0  0  0  0  0  0  0  0  0  0999 V3000
M  V30 BEGIN CTAB
M  V30 COUNTS 50 53 0 0 0
M  V30 BEGIN ATOM
M  V30 1 N 4.937558 -4.675203 4.504473 0
M  V30 2 C 4.673582 -4.282787 3.443237 0
M  V30 3 C 4.357955 -3.817703 2.120800 0
M  V30 4 C 4.191126 -2.437227 1.948519 0
M  V30 5 N 3.891936 -2.030484 0.696590 0
M  V30 6 C 3.758459 -2.906240 -0.343706 0
M  V30 7 N 3.436990 -2.216543 -1.568947 0
M  V30 8 C 1.998304 -2.245835 -1.458177 0
M  V30 9 C 1.394726 -1.234808 -0.743354 0
M  V30 10 C 0.043451 -1.089311 -0.524812 0
M  V30 11 N -0.445249 0.016130 0.224176 0
M  V30 12 C 0.493519 0.976005 0.769932 0
M  V30 13 C -0.170019 2.051283 1.566269 0 CFG=1
M  V30 14 C 0.882793 3.043309 2.022546 0
M  V30 15 N 0.286760 3.816615 3.078383 0
M  V30 16 C -1.159303 3.813957 3.022244 0
M  V30 17 C -1.730598 3.694132 1.650206 0
M  V30 18 O -1.086593 2.793261 0.823157 0
M  V30 19 C -0.771784 -2.053817 -1.079200 0
M  V30 20 C -2.212882 -2.001927 -0.887703 0
M  V30 21 C -2.742398 -1.880020 0.391026 0
M  V30 22 C -4.097354 -1.809966 0.632808 0
M  V30 23 C -5.017108 -1.859638 -0.417688 0
M  V30 24 F -6.336379 -1.791117 -0.183360 0
M  V30 25 C -4.456244 -1.981316 -1.671029 0
M  V30 26 F -5.350411 -2.030334 -2.696580 0
M  V30 27 C -3.112518 -2.054567 -1.960875 0
M  V30 28 C -0.159653 -3.082087 -1.806560 0
M  V30 29 N 1.171731 -3.168184 -1.984735 0
M  V30 30 C 3.933767 -4.252308 -0.114924 0
M  V30 31 N 4.231816 -4.698341 1.114580 0
M  V30 32 H 4.293817 -1.723734 2.768618 0
M  V30 33 H 4.008802 -1.792443 -2.354269 0
M  V30 34 H 2.030584 -0.474129 -0.304726 0
M  V30 35 H -1.428415 0.213285 0.418587 0
M  V30 36 H 1.186890 1.371200 0.000166 0
M  V30 37 H 1.147772 0.382292 1.464694 0
M  V30 38 H -0.644581 1.612326 2.460091 0
M  V30 39 H 1.850524 2.575818 2.274953 0
M  V30 40 H 1.078088 3.756591 1.173744 0
M  V30 41 H 0.553937 3.377189 3.990451 0
M  V30 42 H -1.491729 4.818391 3.419610 0
M  V30 43 H -1.580855 3.063068 3.721836 0
M  V30 44 H -2.779672 3.298406 1.785881 0
M  V30 45 H -1.777134 4.660343 1.102495 0
M  V30 46 H -2.151221 -1.841412 1.291161 0
M  V30 47 H -4.521457 -1.713478 1.633315 0
M  V30 48 H -2.735054 -2.148934 -2.959666 0
M  V30 49 H -0.774069 -3.855950 -2.254337 0
M  V30 50 H 3.799317 -4.825195 -1.030635 0
M  V30 END ATOM
M  V30 BEGIN BOND
M  V30 1 3 1 2
M  V30 2 1 2 3
M  V30 3 2 3 4
M  V30 4 1 4 5
M  V30 5 2 5 6
M  V30 6 1 6 7
M  V30 7 1 7 8
M  V30 8 2 8 9
M  V30 9 1 9 10
M  V30 10 1 10 11
M  V30 11 1 11 12
M  V30 12 1 12 13
M  V30 13 1 13 14
M  V30 14 1 14 15
M  V30 15 1 15 16
M  V30 16 1 16 17
M  V30 17 1 17 18
M  V30 18 2 10 19
M  V30 19 1 19 20
M  V30 20 2 20 21
M  V30 21 1 21 22
M  V30 22 2 22 23
M  V30 23 1 23 24
M  V30 24 1 23 25
M  V30 25 1 25 26
M  V30 26 2 25 27
M  V30 27 1 19 28
M  V30 28 2 28 29
M  V30 29 1 6 30
M  V30 30 2 30 31
M  V30 31 1 31 3
M  V30 32 1 29 8
M  V30 33 1 18 13
M  V30 34 1 27 20
M  V30 35 1 4 32
M  V30 36 1 7 33
M  V30 37 1 9 34
M  V30 38 1 11 35
M  V30 39 1 12 36
M  V30 40 1 12 37
M  V30 41 1 13 38 CFG=1
M  V30 42 1 14 39
M  V30 43 1 14 40
M  V30 44 1 15 41
M  V30 45 1 16 42
M  V30 46 1 16 43
M  V30 47 1 17 44
M  V30 48 1 17 45
M  V30 49 1 21 46
M  V30 50 1 22 47
M  V30 51 1 27 48
M  V30 52 1 28 49
M  V30 53 1 30 50
M  V30 END BOND
M  V30 END CTAB
M  END
>  <Dataset>  (223) 
ChEMBL_Kinases

>  <Ligand_Instance>  (223) 
nan

>  <PDB_ID>  (223) 
nan

>  <Standardized_SMILES>  (223) 
N#Cc1cnc(Nc2cc(NC[C@H]3CNCCO3)c(-c3ccc(F)c(F)c3)cn2)cn1

>  <Name>  (223) 
nan

>  <Pocket>  (223) 
nan

>  <ATP_Site>  (223) 
nan

>  <Peripheral>  (223) 
nan

>  <Num_H_Atoms_ProtBoundConf>  (223) 
nan

>  <Num_Resolved_Atoms>  (223) 
nan

>  <Num_Not_Resolved_Atoms>  (223) 
nan

$$$$
CHEMBL4797354
     RDKit          3D

  0  0  0  0  0  0  0  0  0  0999 V3000
M  V30 BEGIN CTAB
M  V30 COUNTS 51 54 0 0 0
M  V30 BEGIN ATOM
M  V30 1 C 1.751836 -6.116733 0.106667 0
M  V30 2 C 3.083617 -5.612769 -0.337844 0
M  V30 3 C 3.034526 -4.168398 -0.821364 0
M  V30 4 S 2.490544 -3.075435 0.440213 0
M  V30 5 O 3.493516 -3.239420 1.575701 0
M  V30 6 O 1.191027 -3.526704 1.063084 0
M  V30 7 N 2.455144 -1.475420 -0.086805 0
M  V30 8 C 1.815209 -0.703690 -1.050963 0
M  V30 9 C 1.595698 -1.099986 -2.349510 0
M  V30 10 C 0.967055 -0.294377 -3.271645 0
M  V30 11 C 0.534244 0.955818 -2.900073 0
M  V30 12 F -0.075327 1.689503 -3.854841 0
M  V30 13 C 0.707479 1.442729 -1.621228 0
M  V30 14 C 0.244571 2.780146 -1.368387 0
M  V30 15 O 0.219652 3.537624 -2.406044 0
M  V30 16 C -0.215844 3.527040 -0.218214 0
M  V30 17 N -0.139479 4.858537 -0.096166 0
M  V30 18 N -0.687514 5.239620 1.058355 0
M  V30 19 C -1.155003 4.193875 1.759630 0
M  V30 20 N -1.789667 4.037576 2.937912 0
M  V30 21 C -2.164014 2.805845 3.379547 0
M  V30 22 C -1.887964 1.680244 2.599372 0
M  V30 23 C -2.303505 0.355830 3.092356 0
M  V30 24 C -2.093102 -0.042089 4.394300 0
M  V30 25 C -2.510176 -1.298992 4.786393 0
M  V30 26 C -3.133586 -2.170055 3.907605 0
M  V30 27 C -3.356388 -1.784297 2.580784 0
M  V30 28 C -2.926251 -0.524539 2.230280 0
M  V30 29 O -3.169156 -0.185992 0.900644 0
M  V30 30 C -1.240782 1.876104 1.407827 0
M  V30 31 C -0.858498 3.120964 0.956893 0
M  V30 32 C 1.338162 0.583331 -0.776287 0
M  V30 33 F 1.592305 0.999934 0.491942 0
M  V30 34 H 1.625935 -7.213190 -0.039665 0
M  V30 35 H 1.660951 -5.956115 1.206364 0
M  V30 36 H 0.898585 -5.640350 -0.421839 0
M  V30 37 H 3.415734 -6.210896 -1.204752 0
M  V30 38 H 3.864904 -5.682230 0.445366 0
M  V30 39 H 4.068875 -3.894715 -1.100795 0
M  V30 40 H 2.435023 -4.114990 -1.766178 0
M  V30 41 H 3.115396 -0.825928 0.451791 0
M  V30 42 H 1.911988 -2.063638 -2.704663 0
M  V30 43 H 0.812815 -0.646714 -4.288567 0
M  V30 44 H -0.725572 6.242939 1.338748 0
M  V30 45 H -2.675802 2.636842 4.322754 0
M  V30 46 H -1.607614 0.634219 5.084040 0
M  V30 47 H -2.332673 -1.585943 5.810871 0
M  V30 48 H -3.451032 -3.160628 4.254785 0
M  V30 49 H -3.844680 -2.472440 1.904844 0
M  V30 50 H -2.693853 -0.560869 0.109036 0
M  V30 51 H -1.039605 1.022114 0.812387 0
M  V30 END ATOM
M  V30 BEGIN BOND
M  V30 1 1 1 2
M  V30 2 1 2 3
M  V30 3 1 3 4
M  V30 4 2 4 5
M  V30 5 2 4 6
M  V30 6 1 4 7
M  V30 7 1 7 8
M  V30 8 2 8 9
M  V30 9 1 9 10
M  V30 10 2 10 11
M  V30 11 1 11 12
M  V30 12 1 11 13
M  V30 13 1 13 14
M  V30 14 2 14 15
M  V30 15 1 14 16
M  V30 16 2 16 17
M  V30 17 1 17 18
M  V30 18 1 18 19
M  V30 19 2 19 20
M  V30 20 1 20 21
M  V30 21 2 21 22
M  V30 22 1 22 23
M  V30 23 2 23 24
M  V30 24 1 24 25
M  V30 25 2 25 26
M  V30 26 1 26 27
M  V30 27 2 27 28
M  V30 28 1 28 29
M  V30 29 1 22 30
M  V30 30 2 30 31
M  V30 31 2 13 32
M  V30 32 1 32 33
M  V30 33 1 32 8
M  V30 34 1 31 16
M  V30 35 1 31 19
M  V30 36 1 28 23
M  V30 37 1 1 34
M  V30 38 1 1 35
M  V30 39 1 1 36
M  V30 40 1 2 37
M  V30 41 1 2 38
M  V30 42 1 3 39
M  V30 43 1 3 40
M  V30 44 1 7 41
M  V30 45 1 9 42
M  V30 46 1 10 43
M  V30 47 1 18 44
M  V30 48 1 21 45
M  V30 49 1 24 46
M  V30 50 1 25 47
M  V30 51 1 26 48
M  V30 52 1 27 49
M  V30 53 1 29 50
M  V30 54 1 30 51
M  V30 END BOND
M  V30 END CTAB
M  END
>  <Dataset>  (224) 
ChEMBL_Kinases

>  <Ligand_Instance>  (224) 
nan

>  <PDB_ID>  (224) 
nan

>  <Standardized_SMILES>  (224) 
CCCS(=O)(=O)Nc1ccc(F)c(C(=O)c2n[nH]c3ncc(-c4ccccc4O)cc23)c1F

>  <Name>  (224) 
nan

>  <Pocket>  (224) 
nan

>  <ATP_Site>  (224) 
nan

>  <Peripheral>  (224) 
nan

>  <Num_H_Atoms_ProtBoundConf>  (224) 
nan

>  <Num_Resolved_Atoms>  (224) 
nan

>  <Num_Not_Resolved_Atoms>  (224) 
nan

$$$$
CHEMBL4797371
     RDKit          3D

  0  0  0  0  0  0  0  0  0  0999 V3000
M  V30 BEGIN CTAB
M  V30 COUNTS 56 61 0 0 0
M  V30 BEGIN ATOM
M  V30 1 O 2.368543 1.293454 4.653250 0
M  V30 2 C 1.829787 0.494489 3.876003 0
M  V30 3 N 2.524734 -0.675444 3.471263 0
M  V30 4 C 3.858271 -1.092033 3.859418 0
M  V30 5 C 4.801120 -0.245736 3.062102 0
M  V30 6 C 5.166317 -0.712340 1.801244 0
M  V30 7 C 6.018677 -0.084598 0.922937 0
M  V30 8 C 6.561302 1.118059 1.329457 0
M  V30 9 C 6.225149 1.615002 2.571336 0
M  V30 10 C 5.366170 0.956431 3.425587 0
M  V30 11 C 0.486359 0.832589 3.427399 0
M  V30 12 C -0.084520 2.003325 3.892716 0
M  V30 13 N -1.337433 2.403948 3.523124 0
M  V30 14 C -2.075175 1.662947 2.678866 0
M  V30 15 N -3.303279 1.768912 2.127705 0
M  V30 16 C -3.555142 0.725258 1.329702 0
M  V30 17 C -2.463546 -0.151184 1.316993 0
M  V30 18 C -2.274174 -1.412102 0.611394 0
M  V30 19 C -1.795200 -2.545429 1.278557 0
M  V30 20 C -1.612156 -3.732320 0.605692 0
M  V30 21 F -1.145443 -4.835252 1.255439 0
M  V30 22 C -1.894496 -3.847121 -0.751050 0
M  V30 23 N -1.713257 -5.000998 -1.424007 0
M  V30 24 C -1.998433 -5.050465 -2.745875 0
M  V30 25 C -2.465994 -3.915506 -3.358530 0
M  V30 26 C -2.668598 -2.711880 -2.713703 0
M  V30 27 C -3.192971 -1.624508 -3.527484 0
M  V30 28 C -4.274229 -0.784784 -3.367030 0
M  V30 29 C -4.514731 0.184439 -4.315310 0
M  V30 30 C -3.720271 0.358591 -5.429127 0
M  V30 31 N -2.662777 -0.454784 -5.597113 0
M  V30 32 C -2.413171 -1.413150 -4.672290 0
M  V30 33 C -2.364343 -2.707446 -1.369088 0
M  V30 34 C -2.552330 -1.519450 -0.717517 0
M  V30 35 C -1.565247 0.488185 2.180711 0
M  V30 36 C -0.305872 0.104901 2.564797 0
M  V30 37 H 1.963151 -1.275384 2.812914 0
M  V30 38 H 4.028644 -0.957523 4.949515 0
M  V30 39 H 3.985679 -2.140974 3.539846 0
M  V30 40 H 4.754041 -1.655482 1.455902 0
M  V30 41 H 6.249171 -0.516880 -0.038249 0
M  V30 42 H 7.238637 1.626971 0.642911 0
M  V30 43 H 6.647320 2.562337 2.901865 0
M  V30 44 H 5.087710 1.319843 4.404258 0
M  V30 45 H 0.400825 2.708080 4.587523 0
M  V30 46 H -3.943293 2.560013 2.313450 0
M  V30 47 H -4.451233 0.516828 0.743581 0
M  V30 48 H -1.557190 -2.517914 2.347151 0
M  V30 49 H -1.829748 -5.999009 -3.213831 0
M  V30 50 H -2.673909 -4.024595 -4.416371 0
M  V30 51 H -4.838427 -1.003597 -2.475368 0
M  V30 52 H -5.388336 0.797194 -4.101639 0
M  V30 53 H -3.985087 1.148845 -6.124182 0
M  V30 54 H -1.519553 -1.986353 -4.957795 0
M  V30 55 H -2.906737 -0.646970 -1.206083 0
M  V30 56 H 0.108199 -0.815294 2.179877 0
M  V30 END ATOM
M  V30 BEGIN BOND
M  V30 1 2 1 2
M  V30 2 1 2 3
M  V30 3 1 3 4
M  V30 4 1 4 5
M  V30 5 2 5 6
M  V30 6 1 6 7
M  V30 7 2 7 8
M  V30 8 1 8 9
M  V30 9 2 9 10
M  V30 10 1 2 11
M  V30 11 2 11 12
M  V30 12 1 12 13
M  V30 13 2 13 14
M  V30 14 1 14 15
M  V30 15 1 15 16
M  V30 16 2 16 17
M  V30 17 1 17 18
M  V30 18 2 18 19
M  V30 19 1 19 20
M  V30 20 1 20 21
M  V30 21 2 20 22
M  V30 22 1 22 23
M  V30 23 2 23 24
M  V30 24 1 24 25
M  V30 25 2 25 26
M  V30 26 1 26 27
M  V30 27 2 27 28
M  V30 28 1 28 29
M  V30 29 2 29 30
M  V30 30 1 30 31
M  V30 31 2 31 32
M  V30 32 1 26 33
M  V30 33 2 33 34
M  V30 34 1 17 35
M  V30 35 2 35 36
M  V30 36 1 10 5
M  V30 37 1 36 11
M  V30 38 1 35 14
M  V30 39 1 34 18
M  V30 40 1 33 22
M  V30 41 1 32 27
M  V30 42 1 3 37
M  V30 43 1 4 38
M  V30 44 1 4 39
M  V30 45 1 6 40
M  V30 46 1 7 41
M  V30 47 1 8 42
M  V30 48 1 9 43
M  V30 49 1 10 44
M  V30 50 1 12 45
M  V30 51 1 15 46
M  V30 52 1 16 47
M  V30 53 1 19 48
M  V30 54 1 24 49
M  V30 55 1 25 50
M  V30 56 1 28 51
M  V30 57 1 29 52
M  V30 58 1 30 53
M  V30 59 1 32 54
M  V30 60 1 34 55
M  V30 61 1 36 56
M  V30 END BOND
M  V30 END CTAB
M  END
>  <Dataset>  (225) 
ChEMBL_Kinases

>  <Ligand_Instance>  (225) 
nan

>  <PDB_ID>  (225) 
nan

>  <Standardized_SMILES>  (225) 
O=C(NCc1ccccc1)c1cnc2[nH]cc(-c3cc(F)c4nccc(-c5cccnc5)c4c3)c2c1

>  <Name>  (225) 
nan

>  <Pocket>  (225) 
nan

>  <ATP_Site>  (225) 
nan

>  <Peripheral>  (225) 
nan

>  <Num_H_Atoms_ProtBoundConf>  (225) 
nan

>  <Num_Resolved_Atoms>  (225) 
nan

>  <Num_Not_Resolved_Atoms>  (225) 
nan

$$$$
CHEMBL4797405
     RDKit          3D

  0  0  0  0  0  0  0  0  0  0999 V3000
M  V30 BEGIN CTAB
M  V30 COUNTS 100 106 0 0 0
M  V30 BEGIN ATOM
M  V30 1 C 2.496879 0.591702 5.039181 0
M  V30 2 N 2.938774 0.116102 3.741512 0
M  V30 3 C 3.557355 1.086877 2.878859 0
M  V30 4 O 3.634160 2.247555 3.341545 0
M  V30 5 C 4.074954 0.784047 1.550803 0
M  V30 6 S 4.823973 2.184042 0.659434 0
M  V30 7 C 5.259201 1.071918 -0.808542 0
M  V30 8 C 5.934911 1.649637 -2.018145 0
M  V30 9 C 6.243581 2.966250 -2.182888 0
M  V30 10 C 6.840327 3.351442 -3.358384 0
M  V30 11 N 7.110367 2.425395 -4.323126 0
M  V30 12 C 6.790712 1.148154 -4.115884 0
M  V30 13 N 7.076025 0.207560 -5.161764 0
M  V30 14 C 5.878560 0.131707 -5.918841 0
M  V30 15 O 4.906966 0.858516 -5.513569 0
M  V30 16 C 5.570228 -0.685099 -7.142811 0
M  V30 17 C 4.468383 -0.296962 -8.022767 0
M  V30 18 C 4.277626 -1.450765 -7.046475 0
M  V30 19 C 6.179317 0.671528 -2.945983 0
M  V30 20 N 4.850346 0.099503 -0.423827 0
M  V30 21 C 4.240807 -0.241050 0.690981 0
M  V30 22 O 3.738255 -1.509262 1.088377 0
M  V30 23 C 3.971181 -2.618390 0.187927 0
M  V30 24 C 3.320959 -3.855834 0.682992 0
M  V30 25 O 1.985966 -3.958938 0.796061 0
M  V30 26 C 1.251229 -4.251848 -0.274151 0
M  V30 27 C 1.109015 -3.352281 -1.426794 0
M  V30 28 O 0.553343 -2.153287 -1.333078 0
M  V30 29 C 0.896277 -1.187578 -0.494922 0
M  V30 30 C 0.035211 0.086128 -0.788192 0
M  V30 31 O 0.378923 1.040745 0.116675 0
M  V30 32 C -0.179277 2.298296 -0.044094 0
M  V30 33 C 0.151806 3.127516 1.238591 0
M  V30 34 N -0.533909 2.404024 2.321165 0
M  V30 35 C -1.734993 2.583409 2.854947 0
M  V30 36 C -2.062018 1.591126 3.710799 0
M  V30 37 C -3.138801 1.081974 4.597579 0
M  V30 38 O -4.052196 0.286517 3.865347 0
M  V30 39 C -4.922718 0.692991 2.904045 0
M  V30 40 C -5.131211 1.972627 2.460350 0
M  V30 41 C -6.004725 2.406334 1.493127 0
M  V30 42 C -6.786337 1.453066 0.872510 0
M  V30 43 C -6.633044 0.121876 1.272060 0
M  V30 44 C -5.725224 -0.241618 2.260799 0
M  V30 45 C -5.871630 -1.684192 2.367614 0
M  V30 46 O -5.239518 -2.469152 3.151581 0
M  V30 47 N -6.841143 -2.198534 1.471374 0
M  V30 48 C -7.360888 -3.498252 1.164729 0
M  V30 49 C -7.013426 -3.827048 -0.252902 0
M  V30 50 C -8.155632 -4.171508 -1.143109 0
M  V30 51 C -9.243571 -4.933309 -0.509615 0
M  V30 52 O -9.751280 -5.964050 -1.026888 0
M  V30 53 N -9.729344 -4.455324 0.755370 0
M  V30 54 C -8.795426 -3.615275 1.466429 0
M  V30 55 O -9.323014 -2.949201 2.422197 0
M  V30 56 C -7.331664 -1.062343 0.770722 0
M  V30 57 O -8.222453 -1.013535 -0.145193 0
M  V30 58 N -0.946148 0.784706 3.660181 0
M  V30 59 N -0.068400 1.298049 2.831761 0
M  V30 60 H 1.408833 0.626440 5.097928 0
M  V30 61 H 2.826945 -0.142243 5.815348 0
M  V30 62 H 2.928545 1.573931 5.301494 0
M  V30 63 H 2.872397 -0.841127 3.352677 0
M  V30 64 H 6.002022 3.651876 -1.370701 0
M  V30 65 H 7.079501 4.397743 -3.483399 0
M  V30 66 H 7.820881 -0.397538 -5.527072 0
M  V30 67 H 6.396245 -1.305849 -7.543941 0
M  V30 68 H 4.507663 -0.596678 -9.099604 0
M  V30 69 H 3.864637 0.618188 -7.856501 0
M  V30 70 H 3.580987 -1.257754 -6.223902 0
M  V30 71 H 4.215335 -2.467105 -7.488904 0
M  V30 72 H 5.951232 -0.376465 -2.841328 0
M  V30 73 H 5.099567 -2.799304 0.364972 0
M  V30 74 H 3.792803 -2.294862 -0.809504 0
M  V30 75 H 3.853264 -4.126900 1.662211 0
M  V30 76 H 3.663875 -4.696350 -0.000672 0
M  V30 77 H 0.189399 -4.605439 0.070509 0
M  V30 78 H 1.657345 -5.261239 -0.697555 0
M  V30 79 H 0.553831 -3.966778 -2.276710 0
M  V30 80 H 2.117821 -3.240088 -1.925078 0
M  V30 81 H 1.919367 -0.817537 -0.778343 0
M  V30 82 H 0.757770 -1.371708 0.569902 0
M  V30 83 H 0.229061 0.322036 -1.849718 0
M  V30 84 H -1.028076 -0.234031 -0.699265 0
M  V30 85 H 0.321865 2.807559 -0.865222 0
M  V30 86 H -1.256639 2.267069 -0.225191 0
M  V30 87 H -0.217363 4.141800 1.156119 0
M  V30 88 H 1.220448 3.072965 1.377609 0
M  V30 89 H -2.393968 3.405805 2.669978 0
M  V30 90 H -2.719020 0.473319 5.402144 0
M  V30 91 H -3.638076 1.946552 5.100053 0
M  V30 92 H -4.578900 2.778552 2.912021 0
M  V30 93 H -6.117870 3.435257 1.192585 0
M  V30 94 H -7.481564 1.761596 0.108664 0
M  V30 95 H -6.840324 -4.230404 1.823779 0
M  V30 96 H -6.264246 -4.644334 -0.317240 0
M  V30 97 H -6.494256 -2.954080 -0.752620 0
M  V30 98 H -8.523193 -3.261585 -1.674657 0
M  V30 99 H -7.762453 -4.824582 -1.981729 0
M  V30 100 H -10.677113 -4.731087 1.065932 0
M  V30 END ATOM
M  V30 BEGIN BOND
M  V30 1 1 1 2
M  V30 2 1 2 3
M  V30 3 2 3 4
M  V30 4 1 3 5
M  V30 5 1 5 6
M  V30 6 1 6 7
M  V30 7 1 7 8
M  V30 8 2 8 9
M  V30 9 1 9 10
M  V30 10 2 10 11
M  V30 11 1 11 12
M  V30 12 1 12 13
M  V30 13 1 13 14
M  V30 14 2 14 15
M  V30 15 1 14 16
M  V30 16 1 16 17
M  V30 17 1 17 18
M  V30 18 2 12 19
M  V30 19 2 7 20
M  V30 20 1 20 21
M  V30 21 1 21 22
M  V30 22 1 22 23
M  V30 23 1 23 24
M  V30 24 1 24 25
M  V30 25 1 25 26
M  V30 26 1 26 27
M  V30 27 1 27 28
M  V30 28 1 28 29
M  V30 29 1 29 30
M  V30 30 1 30 31
M  V30 31 1 31 32
M  V30 32 1 32 33
M  V30 33 1 33 34
M  V30 34 1 34 35
M  V30 35 2 35 36
M  V30 36 1 36 37
M  V30 37 1 37 38
M  V30 38 1 38 39
M  V30 39 2 39 40
M  V30 40 1 40 41
M  V30 41 2 41 42
M  V30 42 1 42 43
M  V30 43 2 43 44
M  V30 44 1 44 45
M  V30 45 2 45 46
M  V30 46 1 45 47
M  V30 47 1 47 48
M  V30 48 1 48 49
M  V30 49 1 49 50
M  V30 50 1 50 51
M  V30 51 2 51 52
M  V30 52 1 51 53
M  V30 53 1 53 54
M  V30 54 2 54 55
M  V30 55 1 47 56
M  V30 56 2 56 57
M  V30 57 1 36 58
M  V30 58 2 58 59
M  V30 59 2 21 5
M  V30 60 1 59 34
M  V30 61 1 19 8
M  V30 62 1 44 39
M  V30 63 1 54 48
M  V30 64 1 18 16
M  V30 65 1 56 43
M  V30 66 1 1 60
M  V30 67 1 1 61
M  V30 68 1 1 62
M  V30 69 1 2 63
M  V30 70 1 9 64
M  V30 71 1 10 65
M  V30 72 1 13 66
M  V30 73 1 16 67
M  V30 74 1 17 68
M  V30 75 1 17 69
M  V30 76 1 18 70
M  V30 77 1 18 71
M  V30 78 1 19 72
M  V30 79 1 23 73
M  V30 80 1 23 74
M  V30 81 1 24 75
M  V30 82 1 24 76
M  V30 83 1 26 77
M  V30 84 1 26 78
M  V30 85 1 27 79
M  V30 86 1 27 80
M  V30 87 1 29 81
M  V30 88 1 29 82
M  V30 89 1 30 83
M  V30 90 1 30 84
M  V30 91 1 32 85
M  V30 92 1 32 86
M  V30 93 1 33 87
M  V30 94 1 33 88
M  V30 95 1 35 89
M  V30 96 1 37 90
M  V30 97 1 37 91
M  V30 98 1 40 92
M  V30 99 1 41 93
M  V30 100 1 42 94
M  V30 101 1 48 95
M  V30 102 1 49 96
M  V30 103 1 49 97
M  V30 104 1 50 98
M  V30 105 1 50 99
M  V30 106 1 53 100
M  V30 END BOND
M  V30 END CTAB
M  END
>  <Dataset>  (226) 
ChEMBL_Kinases

>  <Ligand_Instance>  (226) 
nan

>  <PDB_ID>  (226) 
nan

>  <Standardized_SMILES>  (226) 
CNC(=O)c1sc(-c2ccnc(NC(=O)C3CC3)c2)nc1OCCOCCOCCOCCn1cc(COc2cccc3c2C(=O)N(C2CCC(=O)NC2=O)C3=O)nn1

>  <Name>  (226) 
nan

>  <Pocket>  (226) 
nan

>  <ATP_Site>  (226) 
nan

>  <Peripheral>  (226) 
nan

>  <Num_H_Atoms_ProtBoundConf>  (226) 
nan

>  <Num_Resolved_Atoms>  (226) 
nan

>  <Num_Not_Resolved_Atoms>  (226) 
nan

$$$$
CHEMBL4797449
     RDKit          3D

  0  0  0  0  0  0  0  0  0  0999 V3000
M  V30 BEGIN CTAB
M  V30 COUNTS 52 55 0 0 0
M  V30 BEGIN ATOM
M  V30 1 C 4.222981 1.377171 5.491324 0
M  V30 2 C 3.562164 0.310520 4.638723 0
M  V30 3 C 4.378633 -0.063202 3.430365 0
M  V30 4 S 3.482129 -1.303596 2.548877 0
M  V30 5 O 3.319837 -2.465379 3.495508 0
M  V30 6 O 4.339334 -1.803531 1.422097 0
M  V30 7 N 1.939463 -0.797515 2.019962 0
M  V30 8 C 1.741562 0.276052 1.112095 0
M  V30 9 C 2.835325 0.833068 0.483603 0
M  V30 10 C 2.664898 1.872132 -0.403120 0
M  V30 11 C 1.389879 2.376288 -0.680492 0
M  V30 12 F 1.335531 3.407345 -1.575241 0
M  V30 13 C 0.273505 1.843222 -0.071645 0
M  V30 14 C -0.993770 2.428179 -0.373383 0
M  V30 15 O -0.870663 3.649672 -0.737138 0
M  V30 16 C -2.374443 2.022301 -0.381388 0
M  V30 17 N -3.394629 2.882980 -0.239696 0
M  V30 18 N -4.549140 2.243248 -0.321997 0
M  V30 19 C -4.375429 0.924930 -0.523673 0
M  V30 20 N -5.202558 -0.120897 -0.685680 0
M  V30 21 C -4.749224 -1.375009 -0.898132 0
M  V30 22 C -3.365342 -1.518959 -0.939672 0
M  V30 23 C -2.870584 -2.890688 -1.172639 0
M  V30 24 C -3.627767 -3.950918 -0.679435 0
M  V30 25 C -3.278041 -5.298705 -0.828004 0
M  V30 26 C -2.104389 -5.567603 -1.510071 0
M  V30 27 C -1.345110 -4.527197 -2.003645 0
M  V30 28 N -0.127226 -4.832753 -2.710299 0
M  V30 29 C -1.690820 -3.199932 -1.856566 0
M  V30 30 C -2.501217 -0.459293 -0.775286 0
M  V30 31 C -3.001666 0.807245 -0.558649 0
M  V30 32 C 0.506028 0.806819 0.807050 0
M  V30 33 F -0.494165 0.246301 1.487427 0
M  V30 34 H 3.466430 1.764309 6.201704 0
M  V30 35 H 5.075866 0.968547 6.048840 0
M  V30 36 H 4.569462 2.247224 4.901114 0
M  V30 37 H 2.523444 0.570066 4.379140 0
M  V30 38 H 3.545022 -0.614643 5.286476 0
M  V30 39 H 5.302338 -0.559359 3.826130 0
M  V30 40 H 4.722352 0.778666 2.837675 0
M  V30 41 H 1.060977 -1.287127 2.366296 0
M  V30 42 H 3.854457 0.511337 0.630177 0
M  V30 43 H 3.534333 2.320568 -0.906648 0
M  V30 44 H -5.450549 2.758876 -0.232785 0
M  V30 45 H -5.461689 -2.178982 -1.021413 0
M  V30 46 H -4.556816 -3.777588 -0.137487 0
M  V30 47 H -3.911404 -6.071941 -0.420336 0
M  V30 48 H -1.804885 -6.604070 -1.642246 0
M  V30 49 H -0.488860 -5.032288 -3.669123 0
M  V30 50 H 0.864788 -4.866874 -2.420969 0
M  V30 51 H -1.117636 -2.362913 -2.231460 0
M  V30 52 H -1.438374 -0.592648 -0.822574 0
M  V30 END ATOM
M  V30 BEGIN BOND
M  V30 1 1 1 2
M  V30 2 1 2 3
M  V30 3 1 3 4
M  V30 4 2 4 5
M  V30 5 2 4 6
M  V30 6 1 4 7
M  V30 7 1 7 8
M  V30 8 2 8 9
M  V30 9 1 9 10
M  V30 10 2 10 11
M  V30 11 1 11 12
M  V30 12 1 11 13
M  V30 13 1 13 14
M  V30 14 2 14 15
M  V30 15 1 14 16
M  V30 16 2 16 17
M  V30 17 1 17 18
M  V30 18 1 18 19
M  V30 19 2 19 20
M  V30 20 1 20 21
M  V30 21 2 21 22
M  V30 22 1 22 23
M  V30 23 2 23 24
M  V30 24 1 24 25
M  V30 25 2 25 26
M  V30 26 1 26 27
M  V30 27 1 27 28
M  V30 28 2 27 29
M  V30 29 1 22 30
M  V30 30 2 30 31
M  V30 31 2 13 32
M  V30 32 1 32 33
M  V30 33 1 32 8
M  V30 34 1 31 16
M  V30 35 1 31 19
M  V30 36 1 29 23
M  V30 37 1 1 34
M  V30 38 1 1 35
M  V30 39 1 1 36
M  V30 40 1 2 37
M  V30 41 1 2 38
M  V30 42 1 3 39
M  V30 43 1 3 40
M  V30 44 1 7 41
M  V30 45 1 9 42
M  V30 46 1 10 43
M  V30 47 1 18 44
M  V30 48 1 21 45
M  V30 49 1 24 46
M  V30 50 1 25 47
M  V30 51 1 26 48
M  V30 52 1 28 49
M  V30 53 1 28 50
M  V30 54 1 29 51
M  V30 55 1 30 52
M  V30 END BOND
M  V30 END CTAB
M  END
>  <Dataset>  (227) 
ChEMBL_Kinases

>  <Ligand_Instance>  (227) 
nan

>  <PDB_ID>  (227) 
nan

>  <Standardized_SMILES>  (227) 
CCCS(=O)(=O)Nc1ccc(F)c(C(=O)c2n[nH]c3ncc(-c4cccc(N)c4)cc23)c1F

>  <Name>  (227) 
nan

>  <Pocket>  (227) 
nan

>  <ATP_Site>  (227) 
nan

>  <Peripheral>  (227) 
nan

>  <Num_H_Atoms_ProtBoundConf>  (227) 
nan

>  <Num_Resolved_Atoms>  (227) 
nan

>  <Num_Not_Resolved_Atoms>  (227) 
nan

$$$$
CHEMBL4797452
     RDKit          3D

  0  0  0  0  0  0  0  0  0  0999 V3000
M  V30 BEGIN CTAB
M  V30 COUNTS 59 64 0 0 0
M  V30 BEGIN ATOM
M  V30 1 C 3.752256 -2.932047 2.049692 0
M  V30 2 N 4.465764 -1.980858 1.263588 0
M  V30 3 C 4.309488 -0.620406 1.720827 0
M  V30 4 C 5.127335 0.351749 0.893708 0
M  V30 5 N 4.886670 0.109072 -0.456746 0
M  V30 6 C 4.264436 1.056727 -1.282282 0
M  V30 7 C 2.900591 1.365881 -0.780325 0
M  V30 8 C 2.480319 2.357539 0.079316 0
M  V30 9 C 1.149760 2.467655 0.426544 0
M  V30 10 C 0.175842 1.613376 -0.052533 0
M  V30 11 C -1.223984 1.754812 0.330347 0
M  V30 12 C -1.784933 2.990479 0.607163 0
M  V30 13 N -3.071239 3.171385 0.964045 0
M  V30 14 C -3.908010 2.116419 1.073279 0
M  V30 15 N -5.196398 1.932142 1.391951 0
M  V30 16 C -5.517447 0.608924 1.337556 0
M  V30 17 C -4.377742 -0.086480 0.965759 0
M  V30 18 C -4.316394 -1.541164 0.798313 0
M  V30 19 C -5.320743 -2.220067 0.102048 0
M  V30 20 C -5.216893 -3.598637 -0.028337 0
M  V30 21 C -6.267431 -4.276286 -0.752091 0
M  V30 22 N -7.116704 -4.823363 -1.315860 0
M  V30 23 C -4.157125 -4.300691 0.508266 0
M  V30 24 N -3.861663 -5.613583 0.502136 0
M  V30 25 N -2.718271 -5.796589 1.161473 0
M  V30 26 C -2.249591 -4.609837 1.607842 0
M  V30 27 C -3.156696 -3.644258 1.199033 0
M  V30 28 C -3.254693 -2.272577 1.331912 0
M  V30 29 C -3.389733 0.864118 0.806039 0
M  V30 30 C -2.072712 0.673349 0.440082 0
M  V30 31 C 0.570407 0.610643 -0.915959 0
M  V30 32 C 1.905452 0.507187 -1.258543 0
M  V30 33 C 5.063340 -1.211447 -0.915556 0
M  V30 34 C 4.167005 -2.144270 -0.131851 0
M  V30 35 H 2.817156 -3.206358 1.508545 0
M  V30 36 H 4.327765 -3.858972 2.259090 0
M  V30 37 H 3.460888 -2.483533 3.024595 0
M  V30 38 H 3.244054 -0.353499 1.579440 0
M  V30 39 H 4.624303 -0.575089 2.772098 0
M  V30 40 H 4.806752 1.370949 1.184675 0
M  V30 41 H 6.198836 0.269078 1.202435 0
M  V30 42 H 4.199157 0.725275 -2.356253 0
M  V30 43 H 4.832194 2.017717 -1.301339 0
M  V30 44 H 3.275071 3.003082 0.422851 0
M  V30 45 H 0.893483 3.275690 1.109332 0
M  V30 46 H -1.130299 3.858849 0.526192 0
M  V30 47 H -5.849924 2.706764 1.644185 0
M  V30 48 H -6.483936 0.157096 1.543611 0
M  V30 49 H -6.119254 -1.609223 -0.291017 0
M  V30 50 H -4.467870 -6.333424 0.038736 0
M  V30 51 H -1.362900 -4.349278 2.174926 0
M  V30 52 H -2.460530 -1.803890 1.873313 0
M  V30 53 H -1.613324 -0.287197 0.218514 0
M  V30 54 H -0.171645 -0.072138 -1.305927 0
M  V30 55 H 2.128130 -0.314210 -1.945287 0
M  V30 56 H 6.122634 -1.556299 -0.828491 0
M  V30 57 H 4.767072 -1.333229 -1.977564 0
M  V30 58 H 4.477594 -3.184371 -0.393200 0
M  V30 59 H 3.113200 -1.957623 -0.344749 0
M  V30 END ATOM
M  V30 BEGIN BOND
M  V30 1 1 1 2
M  V30 2 1 2 3
M  V30 3 1 3 4
M  V30 4 1 4 5
M  V30 5 1 5 6
M  V30 6 1 6 7
M  V30 7 2 7 8
M  V30 8 1 8 9
M  V30 9 2 9 10
M  V30 10 1 10 11
M  V30 11 2 11 12
M  V30 12 1 12 13
M  V30 13 2 13 14
M  V30 14 1 14 15
M  V30 15 1 15 16
M  V30 16 2 16 17
M  V30 17 1 17 18
M  V30 18 2 18 19
M  V30 19 1 19 20
M  V30 20 1 20 21
M  V30 21 3 21 22
M  V30 22 2 20 23
M  V30 23 1 23 24
M  V30 24 1 24 25
M  V30 25 2 25 26
M  V30 26 1 26 27
M  V30 27 2 27 28
M  V30 28 1 17 29
M  V30 29 2 29 30
M  V30 30 1 10 31
M  V30 31 2 31 32
M  V30 32 1 5 33
M  V30 33 1 33 34
M  V30 34 1 34 2
M  V30 35 1 32 7
M  V30 36 1 30 11
M  V30 37 1 29 14
M  V30 38 1 28 18
M  V30 39 1 27 23
M  V30 40 1 1 35
M  V30 41 1 1 36
M  V30 42 1 1 37
M  V30 43 1 3 38
M  V30 44 1 3 39
M  V30 45 1 4 40
M  V30 46 1 4 41
M  V30 47 1 6 42
M  V30 48 1 6 43
M  V30 49 1 8 44
M  V30 50 1 9 45
M  V30 51 1 12 46
M  V30 52 1 15 47
M  V30 53 1 16 48
M  V30 54 1 19 49
M  V30 55 1 24 50
M  V30 56 1 26 51
M  V30 57 1 28 52
M  V30 58 1 30 53
M  V30 59 1 31 54
M  V30 60 1 32 55
M  V30 61 1 33 56
M  V30 62 1 33 57
M  V30 63 1 34 58
M  V30 64 1 34 59
M  V30 END BOND
M  V30 END CTAB
M  END
>  <Dataset>  (228) 
ChEMBL_Kinases

>  <Ligand_Instance>  (228) 
nan

>  <PDB_ID>  (228) 
nan

>  <Standardized_SMILES>  (228) 
CN1CCN(Cc2ccc(-c3cnc4[nH]cc(-c5cc(C#N)c6[nH]ncc6c5)c4c3)cc2)CC1

>  <Name>  (228) 
nan

>  <Pocket>  (228) 
nan

>  <ATP_Site>  (228) 
nan

>  <Peripheral>  (228) 
nan

>  <Num_H_Atoms_ProtBoundConf>  (228) 
nan

>  <Num_Resolved_Atoms>  (228) 
nan

>  <Num_Not_Resolved_Atoms>  (228) 
nan

$$$$
CHEMBL4797480
     RDKit          3D

  0  0  0  0  0  0  0  0  0  0999 V3000
M  V30 BEGIN CTAB
M  V30 COUNTS 58 61 0 0 0
M  V30 BEGIN ATOM
M  V30 1 C 5.075495 -0.595401 4.979916 0
M  V30 2 C 4.669727 -1.792192 4.141752 0
M  V30 3 C 3.221525 -2.098495 4.382690 0
M  V30 4 C 2.799590 -3.298539 3.587810 0
M  V30 5 S 2.976069 -3.145285 1.843099 0
M  V30 6 O 4.426023 -3.070666 1.447705 0
M  V30 7 O 2.458361 -4.432968 1.238684 0
M  V30 8 N 2.063029 -1.863084 1.224553 0
M  V30 9 C 1.949059 -0.462899 1.312214 0
M  V30 10 C 3.200771 0.131933 1.191110 0
M  V30 11 C 3.353182 1.514005 1.204629 0
M  V30 12 C 2.218390 2.326791 1.343293 0
M  V30 13 F 2.435584 3.672290 1.347211 0
M  V30 14 C 0.978417 1.726770 1.462087 0
M  V30 15 C -0.172563 2.570823 1.621728 0
M  V30 16 O 0.228857 3.694939 2.117860 0
M  V30 17 C -1.590734 2.635466 1.439286 0
M  V30 18 N -2.346702 3.503012 2.131025 0
M  V30 19 N -3.621118 3.362618 1.740673 0
M  V30 20 C -3.747873 2.419316 0.798061 0
M  V30 21 N -4.799717 1.920356 0.091194 0
M  V30 22 C -4.608652 0.950427 -0.826860 0
M  V30 23 C -3.338095 0.465500 -1.047323 0
M  V30 24 C -3.112911 -0.595029 -2.016450 0
M  V30 25 C -4.197722 -1.469052 -2.108204 0
M  V30 26 C -4.162401 -2.549712 -2.966569 0
M  V30 27 C -3.047602 -2.799401 -3.762381 0
M  V30 28 S -3.019085 -4.175086 -4.837561 0
M  V30 29 N -3.600078 -3.740559 -6.414296 0
M  V30 30 O -1.625425 -4.741012 -4.947517 0
M  V30 31 O -3.916596 -5.256850 -4.314173 0
M  V30 32 C -2.001967 -1.910959 -3.639000 0
M  V30 33 C -1.995894 -0.818416 -2.794812 0
M  V30 34 C -2.285892 0.980665 -0.326567 0
M  V30 35 C -2.463342 1.966888 0.613696 0
M  V30 36 C 0.865388 0.374509 1.446790 0
M  V30 37 F -0.235880 -0.356791 1.609092 0
M  V30 38 H 4.183340 -0.112784 5.433901 0
M  V30 39 H 5.791990 -0.929689 5.754819 0
M  V30 40 H 5.573060 0.149613 4.348567 0
M  V30 41 H 4.767571 -1.476042 3.071439 0
M  V30 42 H 5.340500 -2.643501 4.332024 0
M  V30 43 H 3.064308 -2.370135 5.467119 0
M  V30 44 H 2.603434 -1.210746 4.177254 0
M  V30 45 H 3.392450 -4.209290 3.911047 0
M  V30 46 H 1.729679 -3.573226 3.810340 0
M  V30 47 H 1.286840 -2.051486 0.519382 0
M  V30 48 H 4.149801 -0.371888 1.070959 0
M  V30 49 H 4.328489 2.001774 1.112021 0
M  V30 50 H -4.366710 3.951447 2.160264 0
M  V30 51 H -5.481322 0.591239 -1.359112 0
M  V30 52 H -5.128187 -1.412962 -1.565619 0
M  V30 53 H -4.977587 -3.266639 -3.084043 0
M  V30 54 H -4.640815 -3.808488 -6.468651 0
M  V30 55 H -3.284364 -2.794741 -6.699541 0
M  V30 56 H -1.111278 -2.061288 -4.235779 0
M  V30 57 H -1.199290 -0.105109 -2.673126 0
M  V30 58 H -1.306519 0.622179 -0.510440 0
M  V30 END ATOM
M  V30 BEGIN BOND
M  V30 1 1 1 2
M  V30 2 1 2 3
M  V30 3 1 3 4
M  V30 4 1 4 5
M  V30 5 2 5 6
M  V30 6 2 5 7
M  V30 7 1 5 8
M  V30 8 1 8 9
M  V30 9 2 9 10
M  V30 10 1 10 11
M  V30 11 2 11 12
M  V30 12 1 12 13
M  V30 13 1 12 14
M  V30 14 1 14 15
M  V30 15 2 15 16
M  V30 16 1 15 17
M  V30 17 2 17 18
M  V30 18 1 18 19
M  V30 19 1 19 20
M  V30 20 2 20 21
M  V30 21 1 21 22
M  V30 22 2 22 23
M  V30 23 1 23 24
M  V30 24 2 24 25
M  V30 25 1 25 26
M  V30 26 2 26 27
M  V30 27 1 27 28
M  V30 28 1 28 29
M  V30 29 2 28 30
M  V30 30 2 28 31
M  V30 31 1 27 32
M  V30 32 2 32 33
M  V30 33 1 23 34
M  V30 34 2 34 35
M  V30 35 2 14 36
M  V30 36 1 36 37
M  V30 37 1 36 9
M  V30 38 1 35 17
M  V30 39 1 35 20
M  V30 40 1 33 24
M  V30 41 1 1 38
M  V30 42 1 1 39
M  V30 43 1 1 40
M  V30 44 1 2 41
M  V30 45 1 2 42
M  V30 46 1 3 43
M  V30 47 1 3 44
M  V30 48 1 4 45
M  V30 49 1 4 46
M  V30 50 1 8 47
M  V30 51 1 10 48
M  V30 52 1 11 49
M  V30 53 1 19 50
M  V30 54 1 22 51
M  V30 55 1 25 52
M  V30 56 1 26 53
M  V30 57 1 29 54
M  V30 58 1 29 55
M  V30 59 1 32 56
M  V30 60 1 33 57
M  V30 61 1 34 58
M  V30 END BOND
M  V30 END CTAB
M  END
>  <Dataset>  (229) 
ChEMBL_Kinases

>  <Ligand_Instance>  (229) 
nan

>  <PDB_ID>  (229) 
nan

>  <Standardized_SMILES>  (229) 
CCCCS(=O)(=O)Nc1ccc(F)c(C(=O)c2n[nH]c3ncc(-c4ccc(S(N)(=O)=O)cc4)cc23)c1F

>  <Name>  (229) 
nan

>  <Pocket>  (229) 
nan

>  <ATP_Site>  (229) 
nan

>  <Peripheral>  (229) 
nan

>  <Num_H_Atoms_ProtBoundConf>  (229) 
nan

>  <Num_Resolved_Atoms>  (229) 
nan

>  <Num_Not_Resolved_Atoms>  (229) 
nan

$$$$
CHEMBL4798119
     RDKit          3D

  0  0  0  0  0  0  0  0  0  0999 V3000
M  V30 BEGIN CTAB
M  V30 COUNTS 54 57 0 0 0
M  V30 BEGIN ATOM
M  V30 1 C 0.750309 -4.547858 -5.214144 0
M  V30 2 O 1.900710 -4.256029 -4.435821 0
M  V30 3 C 1.747439 -3.210901 -3.512470 0
M  V30 4 C 0.545215 -2.542403 -3.401885 0
M  V30 5 C 0.362964 -1.495055 -2.489884 0
M  V30 6 C 1.415598 -1.098659 -1.657132 0
M  V30 7 C 1.191329 -0.021366 -0.721637 0
M  V30 8 C 2.142684 0.998375 -0.842292 0
M  V30 9 N 2.027480 2.091574 -0.039349 0
M  V30 10 C 1.031546 2.211425 0.855832 0
M  V30 11 N 1.020989 3.398414 1.637402 0
M  V30 12 C 1.498150 3.761177 2.923438 0
M  V30 13 C 1.317448 5.069559 3.314277 0
M  V30 14 N 1.767916 5.383430 4.536885 0
M  V30 15 C 2.360135 4.462138 5.325184 0
M  V30 16 C 2.848395 4.797462 6.650440 0
M  V30 17 N 3.244972 5.079212 7.699361 0
M  V30 18 C 2.521531 3.163482 4.895609 0
M  V30 19 N 2.083142 2.812873 3.677601 0
M  V30 20 C 0.082672 1.203136 0.982667 0
M  V30 21 C 0.168919 0.097079 0.196516 0
M  V30 22 N -0.742953 -0.988039 0.294141 0
M  V30 23 C -1.823717 -0.866289 1.253008 0
M  V30 24 C -2.620157 -2.153273 1.221143 0 CFG=2
M  V30 25 C -3.745096 -2.094365 2.230318 0
M  V30 26 N -4.609653 -3.223031 1.981823 0
M  V30 27 C -3.981827 -4.316051 1.302087 0
M  V30 28 C -2.515067 -4.417557 1.540855 0
M  V30 29 O -1.817971 -3.242283 1.561309 0
M  V30 30 C 2.611170 -1.786967 -1.789507 0
M  V30 31 C 2.795397 -2.818674 -2.686147 0
M  V30 32 H 0.901117 -5.451461 -5.850583 0
M  V30 33 H -0.104337 -4.806826 -4.531725 0
M  V30 34 H 0.392097 -3.694555 -5.815624 0
M  V30 35 H -0.280083 -2.830962 -4.033678 0
M  V30 36 H -0.630452 -1.036959 -2.497658 0
M  V30 37 H 2.982409 0.985488 -1.540584 0
M  V30 38 H 0.527618 4.034283 0.990993 0
M  V30 39 H 0.852690 5.828829 2.717288 0
M  V30 40 H 2.983609 2.400934 5.484701 0
M  V30 41 H -0.710040 1.319912 1.709118 0
M  V30 42 H -0.655874 -1.849918 -0.284442 0
M  V30 43 H -1.431406 -0.688453 2.269583 0
M  V30 44 H -2.517867 -0.044417 0.989937 0
M  V30 45 H -2.980392 -2.341889 0.189448 0
M  V30 46 H -4.294690 -1.129255 2.179496 0
M  V30 47 H -3.256162 -2.249656 3.224922 0
M  V30 48 H -5.456915 -2.884884 1.510176 0
M  V30 49 H -4.251284 -4.381726 0.218785 0
M  V30 50 H -4.438876 -5.252073 1.738470 0
M  V30 51 H -2.374127 -4.883229 2.556871 0
M  V30 52 H -2.109918 -5.170592 0.833457 0
M  V30 53 H 3.435326 -1.490883 -1.150649 0
M  V30 54 H 3.728848 -3.355699 -2.789234 0
M  V30 END ATOM
M  V30 BEGIN BOND
M  V30 1 1 1 2
M  V30 2 1 2 3
M  V30 3 2 3 4
M  V30 4 1 4 5
M  V30 5 2 5 6
M  V30 6 1 6 7
M  V30 7 2 7 8
M  V30 8 1 8 9
M  V30 9 2 9 10
M  V30 10 1 10 11
M  V30 11 1 11 12
M  V30 12 2 12 13
M  V30 13 1 13 14
M  V30 14 2 14 15
M  V30 15 1 15 16
M  V30 16 3 16 17
M  V30 17 1 15 18
M  V30 18 2 18 19
M  V30 19 1 10 20
M  V30 20 2 20 21
M  V30 21 1 21 22
M  V30 22 1 22 23
M  V30 23 1 23 24
M  V30 24 1 24 25
M  V30 25 1 25 26
M  V30 26 1 26 27
M  V30 27 1 27 28
M  V30 28 1 28 29
M  V30 29 1 6 30
M  V30 30 2 30 31
M  V30 31 1 31 3
M  V30 32 1 21 7
M  V30 33 1 29 24
M  V30 34 1 19 12
M  V30 35 1 1 32
M  V30 36 1 1 33
M  V30 37 1 1 34
M  V30 38 1 4 35
M  V30 39 1 5 36
M  V30 40 1 8 37
M  V30 41 1 11 38
M  V30 42 1 13 39
M  V30 43 1 18 40
M  V30 44 1 20 41
M  V30 45 1 22 42
M  V30 46 1 23 43
M  V30 47 1 23 44
M  V30 48 1 24 45 CFG=3
M  V30 49 1 25 46
M  V30 50 1 25 47
M  V30 51 1 26 48
M  V30 52 1 27 49
M  V30 53 1 27 50
M  V30 54 1 28 51
M  V30 55 1 28 52
M  V30 56 1 30 53
M  V30 57 1 31 54
M  V30 END BOND
M  V30 END CTAB
M  END
>  <Dataset>  (230) 
ChEMBL_Kinases

>  <Ligand_Instance>  (230) 
nan

>  <PDB_ID>  (230) 
nan

>  <Standardized_SMILES>  (230) 
COc1ccc(-c2cnc(Nc3cnc(C#N)cn3)cc2NC[C@@H]2CNCCO2)cc1

>  <Name>  (230) 
nan

>  <Pocket>  (230) 
nan

>  <ATP_Site>  (230) 
nan

>  <Peripheral>  (230) 
nan

>  <Num_H_Atoms_ProtBoundConf>  (230) 
nan

>  <Num_Resolved_Atoms>  (230) 
nan

>  <Num_Not_Resolved_Atoms>  (230) 
nan

$$$$
CHEMBL4797635
     RDKit          3D

  0  0  0  0  0  0  0  0  0  0999 V3000
M  V30 BEGIN CTAB
M  V30 COUNTS 59 63 0 0 0
M  V30 BEGIN ATOM
M  V30 1 C -5.187081 -0.247067 3.632146 0
M  V30 2 O -3.868012 0.062950 3.313323 0
M  V30 3 C -2.997414 -0.851707 2.791859 0
M  V30 4 C -3.449003 -2.119047 2.577607 0
M  V30 5 C -2.634747 -3.083920 2.058502 0
M  V30 6 C -1.349540 -2.713564 1.766745 0
M  V30 7 C -0.923362 -1.435691 1.991997 0
M  V30 8 C -1.723949 -0.431764 2.517585 0
M  V30 9 C -1.139525 0.884857 2.689240 0
M  V30 10 C -1.685919 1.955725 3.315094 0
M  V30 11 C -1.073328 3.176631 3.471772 0
M  V30 12 N 0.152475 3.287145 2.958349 0
M  V30 13 C 0.771816 2.254686 2.312655 0
M  V30 14 N 2.094348 2.424602 1.803198 0
M  V30 15 C 2.914756 1.530986 1.054376 0 CFG=1
M  V30 16 C 3.023084 0.137979 1.588841 0
M  V30 17 O 2.802288 -0.716632 0.481478 0
M  V30 18 C 1.976706 -0.062150 -0.390236 0 CFG=1
M  V30 19 C 2.510206 1.346492 -0.368541 0 CFG=2
M  V30 20 O 3.629398 1.304581 -1.171488 0
M  V30 21 C 3.607369 0.206823 -1.982297 0
M  V30 22 C 2.230878 -0.413131 -1.850745 0 CFG=2
M  V30 23 N 1.357436 0.334796 -2.702182 0
M  V30 24 C 0.608355 -0.393532 -3.688433 0
M  V30 25 O 0.705232 -1.641444 -3.811524 0
M  V30 26 N -0.248058 0.426663 -4.507445 0
M  V30 27 C -1.125349 0.114566 -5.562058 0
M  V30 28 C -0.480300 0.160426 -6.792130 0
M  V30 29 C -1.135629 -0.109780 -7.985233 0
M  V30 30 C -2.466547 -0.432396 -7.938067 0
M  V30 31 C -3.105793 -0.478258 -6.723497 0
M  V30 32 C -4.488961 -0.811203 -6.647623 0
M  V30 33 N -5.620401 -1.071932 -6.601668 0
M  V30 34 C -2.450627 -0.209329 -5.543902 0
M  V30 35 N 0.082182 1.104998 2.216032 0
M  V30 36 H -5.836173 -0.435331 2.748226 0
M  V30 37 H -5.265762 -1.150127 4.286320 0
M  V30 38 H -5.598337 0.619253 4.221203 0
M  V30 39 H -4.471542 -2.385517 2.817677 0
M  V30 40 H -2.985888 -4.085291 1.887392 0
M  V30 41 H -0.697129 -3.469299 1.355780 0
M  V30 42 H 0.107473 -1.253553 1.735613 0
M  V30 43 H -2.673084 1.882755 3.738861 0
M  V30 44 H -1.532569 4.010763 3.974495 0
M  V30 45 H 2.518714 3.380748 2.028572 0
M  V30 46 H 3.953180 1.977390 1.020545 0
M  V30 47 H 4.056649 -0.068002 1.930581 0
M  V30 48 H 2.300292 -0.111902 2.393808 0
M  V30 49 H 0.894505 -0.104932 -0.154808 0
M  V30 50 H 1.755702 2.084344 -0.714259 0
M  V30 51 H 3.793875 0.513842 -3.050203 0
M  V30 52 H 4.367956 -0.558274 -1.737731 0
M  V30 53 H 2.233254 -1.493579 -2.046991 0
M  V30 54 H 1.306067 1.367917 -2.567606 0
M  V30 55 H -0.303315 1.465439 -4.375828 0
M  V30 56 H 0.580258 0.405868 -6.957962 0
M  V30 57 H -0.660734 -0.081795 -8.953903 0
M  V30 58 H -2.993596 -0.646521 -8.862462 0
M  V30 59 H -2.876849 -0.222447 -4.543281 0
M  V30 END ATOM
M  V30 BEGIN BOND
M  V30 1 1 1 2
M  V30 2 1 2 3
M  V30 3 2 3 4
M  V30 4 1 4 5
M  V30 5 2 5 6
M  V30 6 1 6 7
M  V30 7 2 7 8
M  V30 8 1 8 9
M  V30 9 2 9 10
M  V30 10 1 10 11
M  V30 11 2 11 12
M  V30 12 1 12 13
M  V30 13 1 13 14
M  V30 14 1 14 15
M  V30 15 1 15 16
M  V30 16 1 16 17
M  V30 17 1 17 18
M  V30 18 1 18 19
M  V30 19 1 19 20
M  V30 20 1 20 21
M  V30 21 1 21 22
M  V30 22 1 22 23
M  V30 23 1 23 24
M  V30 24 2 24 25
M  V30 25 1 24 26
M  V30 26 1 26 27
M  V30 27 2 27 28
M  V30 28 1 28 29
M  V30 29 2 29 30
M  V30 30 1 30 31
M  V30 31 1 31 32
M  V30 32 3 32 33
M  V30 33 2 31 34
M  V30 34 2 13 35
M  V30 35 1 8 3
M  V30 36 1 35 9
M  V30 37 1 19 15
M  V30 38 1 34 27
M  V30 39 1 22 18
M  V30 40 1 1 36
M  V30 41 1 1 37
M  V30 42 1 1 38
M  V30 43 1 4 39
M  V30 44 1 5 40
M  V30 45 1 6 41
M  V30 46 1 7 42
M  V30 47 1 10 43
M  V30 48 1 11 44
M  V30 49 1 14 45
M  V30 50 1 15 46 CFG=3
M  V30 51 1 16 47
M  V30 52 1 16 48
M  V30 53 1 18 49 CFG=1
M  V30 54 1 19 50 CFG=3
M  V30 55 1 21 51
M  V30 56 1 21 52
M  V30 57 1 22 53 CFG=1
M  V30 58 1 23 54
M  V30 59 1 26 55
M  V30 60 1 28 56
M  V30 61 1 29 57
M  V30 62 1 30 58
M  V30 63 1 34 59
M  V30 END BOND
M  V30 END CTAB
M  END
>  <Dataset>  (231) 
ChEMBL_Kinases

>  <Ligand_Instance>  (231) 
nan

>  <PDB_ID>  (231) 
nan

>  <Standardized_SMILES>  (231) 
COc1ccccc1-c1ccnc(N[C@H]2CO[C@H]3[C@@H]2OC[C@@H]3NC(=O)Nc2cccc(C#N)c2)n1

>  <Name>  (231) 
nan

>  <Pocket>  (231) 
nan

>  <ATP_Site>  (231) 
nan

>  <Peripheral>  (231) 
nan

>  <Num_H_Atoms_ProtBoundConf>  (231) 
nan

>  <Num_Resolved_Atoms>  (231) 
nan

>  <Num_Not_Resolved_Atoms>  (231) 
nan

$$$$
CHEMBL4797678
     RDKit          3D

  0  0  0  0  0  0  0  0  0  0999 V3000
M  V30 BEGIN CTAB
M  V30 COUNTS 62 68 0 0 0
M  V30 BEGIN ATOM
M  V30 1 C 0.877637 -4.189868 -0.075594 0
M  V30 2 C 0.946667 -3.151979 0.977713 0
M  V30 3 C 1.532779 -3.315718 2.205612 0
M  V30 4 C 1.532327 -2.263653 3.109744 0
M  V30 5 C 2.043284 -2.143770 4.406106 0
M  V30 6 N 1.767987 -0.904145 4.829553 0
M  V30 7 N 1.114644 -0.227500 3.885860 0
M  V30 8 C 0.632237 1.135447 3.931777 0
M  V30 9 C -0.461616 1.710562 4.543748 0
M  V30 10 N -0.456187 3.023267 4.273998 0
M  V30 11 N 0.607656 3.320338 3.505133 0
M  V30 12 C 0.911586 4.549092 3.050516 0
M  V30 13 C -0.018109 5.683567 2.901517 0
M  V30 14 C 1.336550 6.204468 2.406382 0
M  V30 15 C 1.904162 5.512403 3.605792 0
M  V30 16 C 1.433847 4.891141 1.701178 0
M  V30 17 C 1.289843 2.180124 3.282003 0
M  V30 18 C 0.956966 -1.040837 2.818035 0
M  V30 19 C 0.372597 -0.906136 1.569157 0
M  V30 20 C 0.359176 -1.951740 0.638248 0
M  V30 21 N -0.293478 -1.579609 -0.565703 0
M  V30 22 C 0.253548 -1.541602 -1.915577 0
M  V30 23 C -0.943192 -1.616363 -2.868795 0
M  V30 24 N -1.813809 -2.611882 -2.342935 0
M  V30 25 C -2.494455 -3.445188 -3.262896 0 CFG=2
M  V30 26 C -3.448229 -4.348125 -2.466184 0
M  V30 27 O -2.572080 -5.251588 -1.905939 0
M  V30 28 C -1.700109 -5.645723 -2.906194 0
M  V30 29 C -1.552148 -4.471143 -3.844148 0 CFG=2
M  V30 30 O -0.243516 -4.058773 -3.839896 0
M  V30 31 C -2.511849 -2.254216 -1.151387 0
M  V30 32 C -1.698512 -1.181072 -0.433385 0
M  V30 33 H 1.814220 -4.076461 -0.687291 0
M  V30 34 H 0.031172 -4.063647 -0.747816 0
M  V30 35 H 0.941858 -5.199729 0.380723 0
M  V30 36 H 1.982438 -4.269724 2.435060 0
M  V30 37 H 2.563863 -2.906439 4.965766 0
M  V30 38 H -1.154701 1.114773 5.125951 0
M  V30 39 H -0.732742 5.646107 2.071503 0
M  V30 40 H -0.297728 6.285092 3.778508 0
M  V30 41 H 1.508998 7.132874 2.059771 0
M  V30 42 H 2.931633 5.127263 3.547018 0
M  V30 43 H 1.642849 5.949510 4.596838 0
M  V30 44 H 0.661291 4.743168 0.916351 0
M  V30 45 H 2.446004 4.547908 1.428241 0
M  V30 46 H 2.209922 2.070043 2.691718 0
M  V30 47 H -0.065610 0.084731 1.398464 0
M  V30 48 H 0.698809 -0.525365 -2.106037 0
M  V30 49 H 0.986319 -2.329277 -2.104297 0
M  V30 50 H -1.461064 -0.611015 -2.871222 0
M  V30 51 H -0.671515 -1.803742 -3.903313 0
M  V30 52 H -3.051096 -2.898994 -4.052002 0
M  V30 53 H -3.989535 -3.798025 -1.685686 0
M  V30 54 H -4.153736 -4.873853 -3.125982 0
M  V30 55 H -2.168983 -6.513277 -3.444461 0
M  V30 56 H -0.723315 -5.958429 -2.501935 0
M  V30 57 H -1.891410 -4.792012 -4.873566 0
M  V30 58 H 0.391296 -4.787442 -3.641817 0
M  V30 59 H -2.517599 -3.123130 -0.442270 0
M  V30 60 H -3.516527 -1.819725 -1.309021 0
M  V30 61 H -2.024153 -1.098434 0.615873 0
M  V30 62 H -1.858347 -0.184768 -0.894800 0
M  V30 END ATOM
M  V30 BEGIN BOND
M  V30 1 1 1 2
M  V30 2 1 2 3
M  V30 3 2 3 4
M  V30 4 1 4 5
M  V30 5 2 5 6
M  V30 6 1 6 7
M  V30 7 1 7 8
M  V30 8 1 8 9
M  V30 9 2 9 10
M  V30 10 1 10 11
M  V30 11 1 11 12
M  V30 12 1 12 13
M  V30 13 1 13 14
M  V30 14 1 14 15
M  V30 15 1 14 16
M  V30 16 1 11 17
M  V30 17 1 7 18
M  V30 18 2 18 19
M  V30 19 1 19 20
M  V30 20 1 20 21
M  V30 21 1 21 22
M  V30 22 1 22 23
M  V30 23 1 23 24
M  V30 24 1 24 25
M  V30 25 1 25 26
M  V30 26 1 26 27
M  V30 27 1 27 28
M  V30 28 1 28 29
M  V30 29 1 29 30
M  V30 30 1 24 31
M  V30 31 1 31 32
M  V30 32 2 20 2
M  V30 33 1 32 21
M  V30 34 1 18 4
M  V30 35 1 29 25
M  V30 36 2 17 8
M  V30 37 1 15 12
M  V30 38 1 16 12
M  V30 39 1 1 33
M  V30 40 1 1 34
M  V30 41 1 1 35
M  V30 42 1 3 36
M  V30 43 1 5 37
M  V30 44 1 9 38
M  V30 45 1 13 39
M  V30 46 1 13 40
M  V30 47 1 14 41
M  V30 48 1 15 42
M  V30 49 1 15 43
M  V30 50 1 16 44
M  V30 51 1 16 45
M  V30 52 1 17 46
M  V30 53 1 19 47
M  V30 54 1 22 48
M  V30 55 1 22 49
M  V30 56 1 23 50
M  V30 57 1 23 51
M  V30 58 1 25 52 CFG=3
M  V30 59 1 26 53
M  V30 60 1 26 54
M  V30 61 1 28 55
M  V30 62 1 28 56
M  V30 63 1 29 57 CFG=3
M  V30 64 1 30 58
M  V30 65 1 31 59
M  V30 66 1 31 60
M  V30 67 1 32 61
M  V30 68 1 32 62
M  V30 END BOND
M  V30 END CTAB
M  END
>  <Dataset>  (232) 
ChEMBL_Kinases

>  <Ligand_Instance>  (232) 
nan

>  <PDB_ID>  (232) 
nan

>  <Standardized_SMILES>  (232) 
Cc1cc2cnn(-c3cnn(C45CC(C4)C5)c3)c2cc1N1CCN([C@@H]2COC[C@@H]2O)CC1

>  <Name>  (232) 
nan

>  <Pocket>  (232) 
nan

>  <ATP_Site>  (232) 
nan

>  <Peripheral>  (232) 
nan

>  <Num_H_Atoms_ProtBoundConf>  (232) 
nan

>  <Num_Resolved_Atoms>  (232) 
nan

>  <Num_Not_Resolved_Atoms>  (232) 
nan

$$$$
CHEMBL4797682
     RDKit          3D

  0  0  0  0  0  0  0  0  0  0999 V3000
M  V30 BEGIN CTAB
M  V30 COUNTS 56 60 0 0 0
M  V30 BEGIN ATOM
M  V30 1 C -3.386884 0.817696 0.846864 0
M  V30 2 C -2.417831 -0.307639 0.772122 0
M  V30 3 C -1.171316 -0.230825 1.361682 0
M  V30 4 C -0.258373 -1.257560 1.305451 0
M  V30 5 N 1.041300 -1.237585 1.869568 0
M  V30 6 C 1.602860 -0.150035 2.584747 0
M  V30 7 C 1.761606 0.943877 1.729198 0
M  V30 8 C 2.298537 2.139596 2.142338 0
M  V30 9 N 2.465954 3.289246 1.325414 0
M  V30 10 C 1.898168 3.556390 0.020735 0
M  V30 11 C 3.021234 3.716392 -0.989479 0
M  V30 12 O 3.846446 4.746356 -0.538922 0
M  V30 13 C 4.414376 4.473230 0.691453 0
M  V30 14 C 3.299033 4.399825 1.745027 0
M  V30 15 N 2.692055 2.251187 3.448778 0
M  V30 16 C 2.530370 1.182782 4.264537 0
M  V30 17 N 2.008964 0.017080 3.872915 0
M  V30 18 C -0.682835 -2.368987 0.616961 0
M  V30 19 O 0.135536 -3.341568 0.546420 0
M  V30 20 N -1.881687 -2.512235 0.018086 0
M  V30 21 C -2.735188 -1.475109 0.104605 0
M  V30 22 C -3.983664 -1.803756 -0.607867 0
M  V30 23 O -5.047676 -1.157782 -0.793068 0
M  V30 24 N -3.730716 -3.121468 -1.093151 0
M  V30 25 C -2.419425 -3.629460 -0.728243 0
M  V30 26 C -1.677790 -3.957138 -1.959262 0
M  V30 27 C -0.780285 -5.141177 -1.950313 0
M  V30 28 C -1.185081 -6.292931 -1.112491 0
M  V30 29 C -2.498326 -6.134472 -0.407542 0
M  V30 30 C -2.634645 -4.776364 0.214440 0
M  V30 31 H -4.061958 0.859586 -0.032235 0
M  V30 32 H -2.879283 1.799563 0.933863 0
M  V30 33 H -4.007109 0.623439 1.764981 0
M  V30 34 H -0.882870 0.677317 1.897940 0
M  V30 35 H 1.667175 -2.061869 1.776325 0
M  V30 36 H 1.491716 0.980004 0.678511 0
M  V30 37 H 1.254946 4.461771 0.026271 0
M  V30 38 H 1.233472 2.726338 -0.287440 0
M  V30 39 H 3.581326 2.785211 -1.072626 0
M  V30 40 H 2.563310 4.004353 -1.935697 0
M  V30 41 H 4.882454 3.445404 0.710786 0
M  V30 42 H 5.132678 5.265687 0.930282 0
M  V30 43 H 3.752626 4.260070 2.751209 0
M  V30 44 H 2.694893 5.320349 1.664252 0
M  V30 45 H 2.812613 1.188035 5.307275 0
M  V30 46 H -4.355481 -3.744915 -1.663527 0
M  V30 47 H -2.373909 -4.027867 -2.824246 0
M  V30 48 H -1.015580 -3.066789 -2.187544 0
M  V30 49 H 0.285334 -4.884582 -1.692039 0
M  V30 50 H -0.677212 -5.504949 -3.013452 0
M  V30 51 H -0.403788 -6.561889 -0.353113 0
M  V30 52 H -1.273208 -7.238384 -1.723393 0
M  V30 53 H -3.372542 -6.418361 -1.041168 0
M  V30 54 H -2.496089 -6.860297 0.433137 0
M  V30 55 H -3.602826 -4.752101 0.756439 0
M  V30 56 H -1.851900 -4.718552 1.017046 0
M  V30 END ATOM
M  V30 BEGIN BOND
M  V30 1 1 1 2
M  V30 2 1 2 3
M  V30 3 2 3 4
M  V30 4 1 4 5
M  V30 5 1 5 6
M  V30 6 2 6 7
M  V30 7 1 7 8
M  V30 8 1 8 9
M  V30 9 1 9 10
M  V30 10 1 10 11
M  V30 11 1 11 12
M  V30 12 1 12 13
M  V30 13 1 13 14
M  V30 14 2 8 15
M  V30 15 1 15 16
M  V30 16 2 16 17
M  V30 17 1 4 18
M  V30 18 2 18 19
M  V30 19 1 18 20
M  V30 20 1 20 21
M  V30 21 1 21 22
M  V30 22 2 22 23
M  V30 23 1 22 24
M  V30 24 1 24 25
M  V30 25 1 25 26
M  V30 26 1 26 27
M  V30 27 1 27 28
M  V30 28 1 28 29
M  V30 29 1 29 30
M  V30 30 2 21 2
M  V30 31 1 30 25
M  V30 32 1 17 6
M  V30 33 1 25 20
M  V30 34 1 14 9
M  V30 35 1 1 31
M  V30 36 1 1 32
M  V30 37 1 1 33
M  V30 38 1 3 34
M  V30 39 1 5 35
M  V30 40 1 7 36
M  V30 41 1 10 37
M  V30 42 1 10 38
M  V30 43 1 11 39
M  V30 44 1 11 40
M  V30 45 1 13 41
M  V30 46 1 13 42
M  V30 47 1 14 43
M  V30 48 1 14 44
M  V30 49 1 16 45
M  V30 50 1 24 46
M  V30 51 1 26 47
M  V30 52 1 26 48
M  V30 53 1 27 49
M  V30 54 1 27 50
M  V30 55 1 28 51
M  V30 56 1 28 52
M  V30 57 1 29 53
M  V30 58 1 29 54
M  V30 59 1 30 55
M  V30 60 1 30 56
M  V30 END BOND
M  V30 END CTAB
M  END
>  <Dataset>  (233) 
ChEMBL_Kinases

>  <Ligand_Instance>  (233) 
nan

>  <PDB_ID>  (233) 
nan

>  <Standardized_SMILES>  (233) 
Cc1cc(Nc2cc(N3CCOCC3)ncn2)c(=O)n2c1C(=O)NC21CCCCC1

>  <Name>  (233) 
nan

>  <Pocket>  (233) 
nan

>  <ATP_Site>  (233) 
nan

>  <Peripheral>  (233) 
nan

>  <Num_H_Atoms_ProtBoundConf>  (233) 
nan

>  <Num_Resolved_Atoms>  (233) 
nan

>  <Num_Not_Resolved_Atoms>  (233) 
nan

$$$$
CHEMBL4797725
     RDKit          3D

  0  0  0  0  0  0  0  0  0  0999 V3000
M  V30 BEGIN CTAB
M  V30 COUNTS 30 32 0 0 0
M  V30 BEGIN ATOM
M  V30 1 C -1.777083 -1.729533 3.149746 0
M  V30 2 C -1.069173 -2.945557 2.607957 0
M  V30 3 C -0.989396 -2.921720 1.115129 0
M  V30 4 N -0.262562 -1.749705 0.684421 0
M  V30 5 C 1.070565 -1.885102 0.577737 0
M  V30 6 O 1.640725 -2.974146 0.846605 0
M  V30 7 C 1.790845 -0.788425 0.163303 0
M  V30 8 C 3.159361 -0.875802 0.038218 0
M  V30 9 C 3.849791 0.240475 -0.378746 0
M  V30 10 C 3.245835 1.466756 -0.685732 0
M  V30 11 C 1.879045 1.496409 -0.543243 0
M  V30 12 Cl 1.360447 3.084207 -0.969096 0
M  V30 13 C 1.187419 0.403545 -0.133325 0
M  V30 14 N -0.121468 0.486157 -0.013431 0
M  V30 15 C -0.964742 1.465705 -0.221988 0
M  V30 16 S -0.980410 2.996534 -0.689879 0
M  V30 17 N -2.215099 1.068648 0.035544 0
M  V30 18 N -2.127190 -0.219041 0.420656 0
M  V30 19 C -0.827402 -0.565009 0.385567 0
M  V30 20 H -1.182909 -0.812384 2.974449 0
M  V30 21 H -2.786933 -1.666494 2.708109 0
M  V30 22 H -1.897837 -1.876251 4.245978 0
M  V30 23 H -0.046395 -2.954786 3.040624 0
M  V30 24 H -1.591444 -3.873753 2.910868 0
M  V30 25 H -2.004930 -2.904179 0.646200 0
M  V30 26 H -0.443953 -3.835343 0.786565 0
M  V30 27 H 3.621287 -1.820492 0.275079 0
M  V30 28 H 4.913999 0.067282 -0.443951 0
M  V30 29 H 3.994317 2.200794 -0.992579 0
M  V30 30 H -3.221836 1.404068 0.042120 0
M  V30 END ATOM
M  V30 BEGIN BOND
M  V30 1 1 1 2
M  V30 2 1 2 3
M  V30 3 1 3 4
M  V30 4 1 4 5
M  V30 5 2 5 6
M  V30 6 1 5 7
M  V30 7 2 7 8
M  V30 8 1 8 9
M  V30 9 2 9 10
M  V30 10 1 10 11
M  V30 11 1 11 12
M  V30 12 2 11 13
M  V30 13 1 13 14
M  V30 14 1 14 15
M  V30 15 2 15 16
M  V30 16 1 15 17
M  V30 17 1 17 18
M  V30 18 2 18 19
M  V30 19 1 19 4
M  V30 20 1 13 7
M  V30 21 1 19 14
M  V30 22 1 1 20
M  V30 23 1 1 21
M  V30 24 1 1 22
M  V30 25 1 2 23
M  V30 26 1 2 24
M  V30 27 1 3 25
M  V30 28 1 3 26
M  V30 29 1 8 27
M  V30 30 1 9 28
M  V30 31 1 10 29
M  V30 32 1 17 30
M  V30 END BOND
M  V30 END CTAB
M  END
>  <Dataset>  (234) 
ChEMBL_Kinases

>  <Ligand_Instance>  (234) 
nan

>  <PDB_ID>  (234) 
nan

>  <Standardized_SMILES>  (234) 
CCCn1c(=O)c2cccc(Cl)c2n2c(=S)[nH]nc12

>  <Name>  (234) 
nan

>  <Pocket>  (234) 
nan

>  <ATP_Site>  (234) 
nan

>  <Peripheral>  (234) 
nan

>  <Num_H_Atoms_ProtBoundConf>  (234) 
nan

>  <Num_Resolved_Atoms>  (234) 
nan

>  <Num_Not_Resolved_Atoms>  (234) 
nan

$$$$
CHEMBL4797744
     RDKit          3D

  0  0  0  0  0  0  0  0  0  0999 V3000
M  V30 BEGIN CTAB
M  V30 COUNTS 58 62 0 0 0
M  V30 BEGIN ATOM
M  V30 1 O 3.541775 -3.326597 -1.704651 0
M  V30 2 C 3.678528 -2.787128 -0.554274 0
M  V30 3 N 4.472905 -1.587755 -0.653822 0
M  V30 4 C 4.835666 -1.420806 -2.034160 0
M  V30 5 C 5.987832 -1.943249 -2.624828 0
M  V30 6 N 5.943554 -1.554522 -3.930711 0
M  V30 7 N 4.837883 -0.841694 -4.125983 0
M  V30 8 C 4.137780 -0.735247 -3.006607 0
M  V30 9 C 2.873044 -0.042060 -2.789572 0
M  V30 10 N 2.203290 0.033182 -1.622803 0
M  V30 11 C 1.067928 0.760691 -1.807243 0
M  V30 12 C 0.080512 1.055707 -0.750302 0
M  V30 13 C 0.333194 0.555276 0.511163 0
M  V30 14 C -0.607989 0.838734 1.510514 0
M  V30 15 C -1.719832 1.590619 1.187017 0
M  V30 16 C -2.800239 1.966655 2.131846 0
M  V30 17 N -3.829432 0.989062 2.097433 0
M  V30 18 C -3.465427 -0.346287 2.438515 0
M  V30 19 C -4.532544 -1.252617 1.806499 0
M  V30 20 C -5.914528 -0.904164 2.225672 0
M  V30 21 C -6.168391 0.574078 2.347044 0
M  V30 22 C -5.002143 1.344085 2.862542 0
M  V30 23 C -1.930115 2.070674 -0.091768 0
M  V30 24 C -1.023284 1.811041 -1.102914 0
M  V30 25 C 1.030838 1.149437 -3.128713 0
M  V30 26 N 2.150802 0.639774 -3.696362 0
M  V30 27 C 3.116019 -3.298682 0.700373 0
M  V30 28 C 3.274205 -2.701284 1.938072 0
M  V30 29 C 2.688198 -3.292387 3.041286 0
M  V30 30 C 1.962924 -4.458588 2.882457 0
M  V30 31 Cl 1.236896 -5.170036 4.322591 0
M  V30 32 C 1.806835 -5.051217 1.650105 0
M  V30 33 C 2.390185 -4.462025 0.554593 0
M  V30 34 H 4.651811 -1.054355 0.246805 0
M  V30 35 H 6.747475 -2.538365 -2.110907 0
M  V30 36 H 6.736725 -1.854616 -4.551993 0
M  V30 37 H 1.193709 -0.024729 0.754129 0
M  V30 38 H -0.504743 0.498100 2.529304 0
M  V30 39 H -3.236309 2.948132 1.916268 0
M  V30 40 H -2.425284 1.995745 3.191681 0
M  V30 41 H -3.432996 -0.532318 3.536602 0
M  V30 42 H -2.500995 -0.700992 2.021466 0
M  V30 43 H -4.343384 -1.183002 0.714001 0
M  V30 44 H -4.286005 -2.291012 2.124785 0
M  V30 45 H -6.176003 -1.473540 3.140285 0
M  V30 46 H -6.606545 -1.257218 1.407814 0
M  V30 47 H -7.008156 0.695868 3.085941 0
M  V30 48 H -6.559612 1.027482 1.403192 0
M  V30 49 H -4.862552 1.235619 3.959083 0
M  V30 50 H -5.195338 2.424612 2.623460 0
M  V30 51 H -2.790448 2.668468 -0.399305 0
M  V30 52 H -1.142014 2.164691 -2.122655 0
M  V30 53 H 0.247293 1.742181 -3.582802 0
M  V30 54 H 2.406544 0.768568 -4.709642 0
M  V30 55 H 3.855186 -1.793345 1.973244 0
M  V30 56 H 2.845908 -2.779481 3.985248 0
M  V30 57 H 1.228611 -5.964751 1.580378 0
M  V30 58 H 2.244859 -4.962264 -0.412126 0
M  V30 END ATOM
M  V30 BEGIN BOND
M  V30 1 2 1 2
M  V30 2 1 2 3
M  V30 3 1 3 4
M  V30 4 2 4 5
M  V30 5 1 5 6
M  V30 6 1 6 7
M  V30 7 2 7 8
M  V30 8 1 8 9
M  V30 9 2 9 10
M  V30 10 1 10 11
M  V30 11 1 11 12
M  V30 12 2 12 13
M  V30 13 1 13 14
M  V30 14 2 14 15
M  V30 15 1 15 16
M  V30 16 1 16 17
M  V30 17 1 17 18
M  V30 18 1 18 19
M  V30 19 1 19 20
M  V30 20 1 20 21
M  V30 21 1 21 22
M  V30 22 1 15 23
M  V30 23 2 23 24
M  V30 24 2 11 25
M  V30 25 1 25 26
M  V30 26 1 2 27
M  V30 27 2 27 28
M  V30 28 1 28 29
M  V30 29 2 29 30
M  V30 30 1 30 31
M  V30 31 1 30 32
M  V30 32 2 32 33
M  V30 33 1 8 4
M  V30 34 1 26 9
M  V30 35 1 33 27
M  V30 36 1 24 12
M  V30 37 1 22 17
M  V30 38 1 3 34
M  V30 39 1 5 35
M  V30 40 1 6 36
M  V30 41 1 13 37
M  V30 42 1 14 38
M  V30 43 1 16 39
M  V30 44 1 16 40
M  V30 45 1 18 41
M  V30 46 1 18 42
M  V30 47 1 19 43
M  V30 48 1 19 44
M  V30 49 1 20 45
M  V30 50 1 20 46
M  V30 51 1 21 47
M  V30 52 1 21 48
M  V30 53 1 22 49
M  V30 54 1 22 50
M  V30 55 1 23 51
M  V30 56 1 24 52
M  V30 57 1 25 53
M  V30 58 1 26 54
M  V30 59 1 28 55
M  V30 60 1 29 56
M  V30 61 1 32 57
M  V30 62 1 33 58
M  V30 END BOND
M  V30 END CTAB
M  END
>  <Dataset>  (235) 
ChEMBL_Kinases

>  <Ligand_Instance>  (235) 
nan

>  <PDB_ID>  (235) 
nan

>  <Standardized_SMILES>  (235) 
O=C(Nc1c[nH]nc1-c1nc(-c2ccc(CN3CCCCC3)cc2)c[nH]1)c1ccc(Cl)cc1

>  <Name>  (235) 
nan

>  <Pocket>  (235) 
nan

>  <ATP_Site>  (235) 
nan

>  <Peripheral>  (235) 
nan

>  <Num_H_Atoms_ProtBoundConf>  (235) 
nan

>  <Num_Resolved_Atoms>  (235) 
nan

>  <Num_Not_Resolved_Atoms>  (235) 
nan

$$$$
CHEMBL4797770
     RDKit          3D

  0  0  0  0  0  0  0  0  0  0999 V3000
M  V30 BEGIN CTAB
M  V30 COUNTS 56 59 0 0 0
M  V30 BEGIN ATOM
M  V30 1 C 4.985852 -2.269224 1.387190 0
M  V30 2 C 4.842786 -0.900123 1.983984 0
M  V30 3 C 4.766195 -1.087287 3.495386 0
M  V30 4 C 6.079891 -0.151322 1.702022 0
M  V30 5 O 6.194081 0.968764 1.096477 0
M  V30 6 O 7.229729 -0.806714 2.185103 0
M  V30 7 C 3.614292 -0.231579 1.475058 0
M  V30 8 C 3.419311 1.130172 1.663595 0
M  V30 9 C 2.273888 1.733339 1.184566 0
M  V30 10 C 1.292678 1.010823 0.508321 0
M  V30 11 C 0.061118 1.581699 -0.023882 0
M  V30 12 C 0.088020 2.892635 -0.472840 0
M  V30 13 N -1.046236 3.462670 -0.977287 0
M  V30 14 C -2.175888 2.703921 -1.018095 0
M  V30 15 N -3.433170 3.000764 -1.459726 0
M  V30 16 C -4.219686 1.939629 -1.301929 0
M  V30 17 C -3.463382 0.912013 -0.740760 0
M  V30 18 C -4.082861 -0.359916 -0.464528 0
M  V30 19 C -5.330894 -0.386562 0.152691 0
M  V30 20 C -6.044051 -1.521398 0.477402 0
M  V30 21 C -7.325327 -1.413288 1.114071 0
M  V30 22 N -8.364230 -1.322076 1.609788 0
M  V30 23 C -5.449827 -2.727075 0.153052 0
M  V30 24 C -4.196349 -2.762330 -0.468417 0
M  V30 25 N -3.691263 -4.055846 -0.751328 0
M  V30 26 S -2.085816 -4.597058 -0.459462 0
M  V30 27 C -0.884672 -3.677798 -1.366556 0
M  V30 28 O -1.928316 -6.046204 -0.724308 0
M  V30 29 O -1.812549 -4.337525 1.016188 0
M  V30 30 C -3.539712 -1.590392 -0.764188 0
M  V30 31 C -2.202384 1.412331 -0.575696 0
M  V30 32 C -1.088436 0.782575 -0.055961 0
M  V30 33 C 1.565114 -0.333137 0.364763 0
M  V30 34 C 2.674964 -1.026293 0.805656 0
M  V30 35 H 5.989898 -2.664090 1.714805 0
M  V30 36 H 5.037702 -2.232189 0.278122 0
M  V30 37 H 4.222616 -2.947086 1.777027 0
M  V30 38 H 4.125220 -1.942841 3.732714 0
M  V30 39 H 5.785446 -1.195891 3.868905 0
M  V30 40 H 4.355986 -0.119106 3.887100 0
M  V30 41 H 8.173496 -0.448074 1.998053 0
M  V30 42 H 4.151443 1.732992 2.181607 0
M  V30 43 H 2.086535 2.804070 1.314217 0
M  V30 44 H 1.028831 3.438904 -0.409104 0
M  V30 45 H -3.702081 3.934187 -1.857495 0
M  V30 46 H -5.261034 1.952131 -1.586002 0
M  V30 47 H -5.792695 0.577700 0.405478 0
M  V30 48 H -6.025000 -3.612729 0.415267 0
M  V30 49 H -4.366846 -4.747397 -1.181001 0
M  V30 50 H 0.016428 -4.310305 -1.540736 0
M  V30 51 H -0.522267 -2.788647 -0.808839 0
M  V30 52 H -1.282491 -3.331326 -2.329878 0
M  V30 53 H -2.572918 -1.627641 -1.244078 0
M  V30 54 H -1.135892 -0.221780 0.280925 0
M  V30 55 H 0.815366 -0.912024 -0.157843 0
M  V30 56 H 2.772895 -2.072912 0.633254 0
M  V30 END ATOM
M  V30 BEGIN BOND
M  V30 1 1 1 2
M  V30 2 1 2 3
M  V30 3 1 2 4
M  V30 4 2 4 5
M  V30 5 1 4 6
M  V30 6 1 2 7
M  V30 7 2 7 8
M  V30 8 1 8 9
M  V30 9 2 9 10
M  V30 10 1 10 11
M  V30 11 2 11 12
M  V30 12 1 12 13
M  V30 13 2 13 14
M  V30 14 1 14 15
M  V30 15 1 15 16
M  V30 16 2 16 17
M  V30 17 1 17 18
M  V30 18 2 18 19
M  V30 19 1 19 20
M  V30 20 1 20 21
M  V30 21 3 21 22
M  V30 22 2 20 23
M  V30 23 1 23 24
M  V30 24 1 24 25
M  V30 25 1 25 26
M  V30 26 1 26 27
M  V30 27 2 26 28
M  V30 28 2 26 29
M  V30 29 2 24 30
M  V30 30 1 17 31
M  V30 31 2 31 32
M  V30 32 1 10 33
M  V30 33 2 33 34
M  V30 34 1 34 7
M  V30 35 1 32 11
M  V30 36 1 31 14
M  V30 37 1 30 18
M  V30 38 1 1 35
M  V30 39 1 1 36
M  V30 40 1 1 37
M  V30 41 1 3 38
M  V30 42 1 3 39
M  V30 43 1 3 40
M  V30 44 1 6 41
M  V30 45 1 8 42
M  V30 46 1 9 43
M  V30 47 1 12 44
M  V30 48 1 15 45
M  V30 49 1 16 46
M  V30 50 1 19 47
M  V30 51 1 23 48
M  V30 52 1 25 49
M  V30 53 1 27 50
M  V30 54 1 27 51
M  V30 55 1 27 52
M  V30 56 1 30 53
M  V30 57 1 32 54
M  V30 58 1 33 55
M  V30 59 1 34 56
M  V30 END BOND
M  V30 END CTAB
M  END
>  <Dataset>  (236) 
ChEMBL_Kinases

>  <Ligand_Instance>  (236) 
nan

>  <PDB_ID>  (236) 
nan

>  <Standardized_SMILES>  (236) 
CC(C)(C(=O)O)c1ccc(-c2cnc3[nH]cc(-c4cc(C#N)cc(NS(C)(=O)=O)c4)c3c2)cc1

>  <Name>  (236) 
nan

>  <Pocket>  (236) 
nan

>  <ATP_Site>  (236) 
nan

>  <Peripheral>  (236) 
nan

>  <Num_H_Atoms_ProtBoundConf>  (236) 
nan

>  <Num_Resolved_Atoms>  (236) 
nan

>  <Num_Not_Resolved_Atoms>  (236) 
nan

$$$$
CHEMBL4797810
     RDKit          3D

  0  0  0  0  0  0  0  0  0  0999 V3000
M  V30 BEGIN CTAB
M  V30 COUNTS 54 57 0 0 0
M  V30 BEGIN ATOM
M  V30 1 C 2.586764 -2.876234 3.401231 0
M  V30 2 C 1.360659 -2.140294 2.972146 0
M  V30 3 C 1.586345 -1.448695 1.638112 0
M  V30 4 S 2.894549 -0.285333 1.699881 0
M  V30 5 O 2.707534 0.732397 2.797081 0
M  V30 6 O 4.154633 -1.040429 2.097223 0
M  V30 7 N 3.100829 0.446370 0.179247 0
M  V30 8 C 2.236732 1.230475 -0.591236 0
M  V30 9 C 2.460709 1.488749 -1.924263 0
M  V30 10 C 1.623836 2.285787 -2.670707 0
M  V30 11 C 0.510799 2.864173 -2.101426 0
M  V30 12 F -0.305659 3.645282 -2.838239 0
M  V30 13 C 0.191756 2.672024 -0.780318 0
M  V30 14 C -0.903365 3.280700 -0.077924 0
M  V30 15 O -1.143010 4.428872 -0.580379 0
M  V30 16 C -1.676121 2.774296 1.026265 0
M  V30 17 N -2.241915 3.436798 2.044478 0
M  V30 18 N -2.923511 2.606813 2.814422 0
M  V30 19 C -2.841890 1.351820 2.339771 0
M  V30 20 N -3.386147 0.196703 2.773260 0
M  V30 21 C -3.178979 -0.967406 2.087845 0
M  V30 22 C -2.394997 -0.956413 0.926237 0
M  V30 23 C -2.241861 -2.230019 0.242366 0
M  V30 24 C -3.328505 -3.108670 0.345921 0
M  V30 25 C -3.376711 -4.363653 -0.245214 0
M  V30 26 C -2.293092 -4.786791 -0.985148 0
M  V30 27 C -1.213968 -3.935384 -1.098645 0
M  V30 28 O -0.157884 -4.415145 -1.853217 0
M  V30 29 C 0.976448 -3.585912 -2.005826 0
M  V30 30 C -1.184363 -2.694441 -0.505238 0
M  V30 31 C -1.862982 0.251330 0.532335 0
M  V30 32 C -2.056977 1.438951 1.207966 0
M  V30 33 C 1.094559 1.850038 -0.093769 0
M  V30 34 F 0.858455 1.639790 1.234846 0
M  V30 35 H 3.245487 -2.147176 3.944067 0
M  V30 36 H 2.301125 -3.661885 4.136133 0
M  V30 37 H 3.096435 -3.317524 2.526423 0
M  V30 38 H 0.547619 -2.871577 2.814776 0
M  V30 39 H 0.996995 -1.440618 3.749103 0
M  V30 40 H 0.628252 -1.014343 1.287900 0
M  V30 41 H 1.839909 -2.266814 0.935187 0
M  V30 42 H 4.051093 0.292206 -0.282461 0
M  V30 43 H 3.327662 1.048464 -2.403999 0
M  V30 44 H 1.832466 2.471121 -3.730042 0
M  V30 45 H -3.458308 2.865001 3.675338 0
M  V30 46 H -3.666603 -1.810991 2.540774 0
M  V30 47 H -4.234530 -2.873020 0.905333 0
M  V30 48 H -4.223098 -5.020725 -0.151146 0
M  V30 49 H -2.311069 -5.760709 -1.453345 0
M  V30 50 H 0.709691 -2.526813 -2.261015 0
M  V30 51 H 1.563529 -3.546132 -1.066304 0
M  V30 52 H 1.636266 -3.949275 -2.820198 0
M  V30 53 H -0.352110 -2.032609 -0.596754 0
M  V30 54 H -1.272525 0.253417 -0.350157 0
M  V30 END ATOM
M  V30 BEGIN BOND
M  V30 1 1 1 2
M  V30 2 1 2 3
M  V30 3 1 3 4
M  V30 4 2 4 5
M  V30 5 2 4 6
M  V30 6 1 4 7
M  V30 7 1 7 8
M  V30 8 2 8 9
M  V30 9 1 9 10
M  V30 10 2 10 11
M  V30 11 1 11 12
M  V30 12 1 11 13
M  V30 13 1 13 14
M  V30 14 2 14 15
M  V30 15 1 14 16
M  V30 16 2 16 17
M  V30 17 1 17 18
M  V30 18 1 18 19
M  V30 19 2 19 20
M  V30 20 1 20 21
M  V30 21 2 21 22
M  V30 22 1 22 23
M  V30 23 2 23 24
M  V30 24 1 24 25
M  V30 25 2 25 26
M  V30 26 1 26 27
M  V30 27 1 27 28
M  V30 28 1 28 29
M  V30 29 2 27 30
M  V30 30 1 22 31
M  V30 31 2 31 32
M  V30 32 2 13 33
M  V30 33 1 33 34
M  V30 34 1 33 8
M  V30 35 1 32 16
M  V30 36 1 32 19
M  V30 37 1 30 23
M  V30 38 1 1 35
M  V30 39 1 1 36
M  V30 40 1 1 37
M  V30 41 1 2 38
M  V30 42 1 2 39
M  V30 43 1 3 40
M  V30 44 1 3 41
M  V30 45 1 7 42
M  V30 46 1 9 43
M  V30 47 1 10 44
M  V30 48 1 18 45
M  V30 49 1 21 46
M  V30 50 1 24 47
M  V30 51 1 25 48
M  V30 52 1 26 49
M  V30 53 1 29 50
M  V30 54 1 29 51
M  V30 55 1 29 52
M  V30 56 1 30 53
M  V30 57 1 31 54
M  V30 END BOND
M  V30 END CTAB
M  END
>  <Dataset>  (237) 
ChEMBL_Kinases

>  <Ligand_Instance>  (237) 
nan

>  <PDB_ID>  (237) 
nan

>  <Standardized_SMILES>  (237) 
CCCS(=O)(=O)Nc1ccc(F)c(C(=O)c2n[nH]c3ncc(-c4cccc(OC)c4)cc23)c1F

>  <Name>  (237) 
nan

>  <Pocket>  (237) 
nan

>  <ATP_Site>  (237) 
nan

>  <Peripheral>  (237) 
nan

>  <Num_H_Atoms_ProtBoundConf>  (237) 
nan

>  <Num_Resolved_Atoms>  (237) 
nan

>  <Num_Not_Resolved_Atoms>  (237) 
nan

$$$$
CHEMBL4797816
     RDKit          3D

  0  0  0  0  0  0  0  0  0  0999 V3000
M  V30 BEGIN CTAB
M  V30 COUNTS 41 43 0 0 0
M  V30 BEGIN ATOM
M  V30 1 C -0.620952 -5.637284 0.864185 0
M  V30 2 C 0.062251 -4.728496 -0.103311 0
M  V30 3 C -0.096582 -3.272076 0.160623 0
M  V30 4 N -1.381718 -2.731638 0.164628 0
M  V30 5 C -2.282659 -3.080070 1.185778 0
M  V30 6 C -1.593440 -1.501717 -0.506009 0
M  V30 7 N -0.747293 -0.439867 0.005128 0
M  V30 8 N 0.450630 -0.298942 -0.552864 0
M  V30 9 C 1.119105 0.709879 0.029607 0
M  V30 10 N 2.353077 1.166510 -0.242158 0
M  V30 11 C 3.163482 0.583986 -1.269891 0
M  V30 12 C 2.795992 2.184178 0.482982 0
M  V30 13 O 3.947355 2.623515 0.242088 0
M  V30 14 C 1.971828 2.722541 1.477129 0
M  V30 15 C 2.481361 3.778676 2.202468 0
M  V30 16 C 1.634708 4.269922 3.165464 0
M  V30 17 C 0.367134 3.803563 3.447136 0
M  V30 18 C -0.093394 2.734898 2.681645 0
M  V30 19 C 0.715582 2.208332 1.706008 0
M  V30 20 N 0.287811 1.181323 0.962860 0
M  V30 21 C -0.857830 0.491726 0.962987 0
M  V30 22 S -2.200587 0.600682 1.843727 0
M  V30 23 H -1.555827 -6.040834 0.414772 0
M  V30 24 H -0.786986 -5.197483 1.877146 0
M  V30 25 H 0.024335 -6.544676 1.046856 0
M  V30 26 H -0.201889 -5.036386 -1.136077 0
M  V30 27 H 1.170246 -4.941662 -0.036068 0
M  V30 28 H 0.553818 -2.732526 -0.557907 0
M  V30 29 H 0.386674 -3.079994 1.163588 0
M  V30 30 H -1.817293 -3.044646 2.200262 0
M  V30 31 H -3.128285 -2.333158 1.149472 0
M  V30 32 H -2.755011 -4.076390 1.087068 0
M  V30 33 H -1.523098 -1.563641 -1.587494 0
M  V30 34 H -2.643432 -1.173509 -0.251191 0
M  V30 35 H 3.554805 1.388343 -1.949133 0
M  V30 36 H 2.613976 -0.130815 -1.907561 0
M  V30 37 H 4.027434 0.094282 -0.813370 0
M  V30 38 H 3.457235 4.146149 1.994123 0
M  V30 39 H 2.011619 5.110347 3.760569 0
M  V30 40 H -0.229025 4.274346 4.245287 0
M  V30 41 H -1.082321 2.416562 2.944532 0
M  V30 END ATOM
M  V30 BEGIN BOND
M  V30 1 1 1 2
M  V30 2 1 2 3
M  V30 3 1 3 4
M  V30 4 1 4 5
M  V30 5 1 4 6
M  V30 6 1 6 7
M  V30 7 1 7 8
M  V30 8 2 8 9
M  V30 9 1 9 10
M  V30 10 1 10 11
M  V30 11 1 10 12
M  V30 12 2 12 13
M  V30 13 1 12 14
M  V30 14 2 14 15
M  V30 15 1 15 16
M  V30 16 2 16 17
M  V30 17 1 17 18
M  V30 18 2 18 19
M  V30 19 1 19 20
M  V30 20 1 20 21
M  V30 21 2 21 22
M  V30 22 1 21 7
M  V30 23 1 20 9
M  V30 24 1 19 14
M  V30 25 1 1 23
M  V30 26 1 1 24
M  V30 27 1 1 25
M  V30 28 1 2 26
M  V30 29 1 2 27
M  V30 30 1 3 28
M  V30 31 1 3 29
M  V30 32 1 5 30
M  V30 33 1 5 31
M  V30 34 1 5 32
M  V30 35 1 6 33
M  V30 36 1 6 34
M  V30 37 1 11 35
M  V30 38 1 11 36
M  V30 39 1 11 37
M  V30 40 1 15 38
M  V30 41 1 16 39
M  V30 42 1 17 40
M  V30 43 1 18 41
M  V30 END BOND
M  V30 END CTAB
M  END
>  <Dataset>  (238) 
ChEMBL_Kinases

>  <Ligand_Instance>  (238) 
nan

>  <PDB_ID>  (238) 
nan

>  <Standardized_SMILES>  (238) 
CCCN(C)Cn1nc2n(C)c(=O)c3ccccc3n2c1=S

>  <Name>  (238) 
nan

>  <Pocket>  (238) 
nan

>  <ATP_Site>  (238) 
nan

>  <Peripheral>  (238) 
nan

>  <Num_H_Atoms_ProtBoundConf>  (238) 
nan

>  <Num_Resolved_Atoms>  (238) 
nan

>  <Num_Not_Resolved_Atoms>  (238) 
nan

$$$$
CHEMBL4797851
     RDKit          3D

  0  0  0  0  0  0  0  0  0  0999 V3000
M  V30 BEGIN CTAB
M  V30 COUNTS 56 60 0 0 0
M  V30 BEGIN ATOM
M  V30 1 C 1.648711 -4.653321 4.696487 0
M  V30 2 N 0.345941 -4.386321 4.096695 0
M  V30 3 N -0.912248 -4.847216 3.796784 0
M  V30 4 C -1.588850 -3.854058 3.158863 0
M  V30 5 C -0.753852 -2.590731 2.991728 0
M  V30 6 C -1.595281 -1.756842 2.353930 0
M  V30 7 C -0.650800 -0.643714 2.293040 0
M  V30 8 C -0.546393 0.805631 1.818615 0
M  V30 9 C 0.064911 1.738657 2.590846 0
M  V30 10 N 0.187670 2.912508 1.976807 0
M  V30 11 C -0.259519 3.103779 0.738079 0
M  V30 12 N 0.119811 4.448960 0.326345 0
M  V30 13 C 1.311577 4.122945 -0.441396 0
M  V30 14 C 2.521207 3.959425 0.141789 0
M  V30 15 N 3.489411 3.653717 -0.731425 0
M  V30 16 C 3.250690 3.525871 -2.060935 0
M  V30 17 C 4.457887 3.206316 -2.794921 0
M  V30 18 N 5.420049 2.957707 -3.353558 0
M  V30 19 C 1.984257 3.700241 -2.641831 0
M  V30 20 N 0.963931 4.017497 -1.762152 0
M  V30 21 C -0.889402 1.921905 0.132278 0
M  V30 22 C -1.134386 0.487664 0.645692 0
M  V30 23 N -1.686460 0.229121 -0.542672 0
M  V30 24 C -2.616407 -0.747824 -0.986197 0
M  V30 25 C -1.993077 -1.945097 -1.618219 0 CFG=1
M  V30 26 C -0.701217 -2.458377 -1.098275 0
M  V30 27 N -0.228398 -3.525128 -2.011955 0
M  V30 28 C -1.244324 -4.555582 -2.062112 0
M  V30 29 C -2.537498 -4.037441 -2.537326 0
M  V30 30 O -2.912047 -2.869029 -1.965074 0
M  V30 31 C 0.657830 -0.845181 2.866465 0
M  V30 32 C 1.056349 -2.064308 3.483094 0
M  V30 33 C 0.133191 -3.227709 3.572240 0
M  V30 34 H 1.751140 -4.003893 5.620438 0
M  V30 35 H 1.848522 -5.697701 4.827964 0
M  V30 36 H 2.432851 -4.239800 3.972626 0
M  V30 37 H -2.620899 -4.266544 2.927651 0
M  V30 38 H -2.453366 -1.470062 1.926011 0
M  V30 39 H 0.348789 1.358003 3.558662 0
M  V30 40 H -0.549992 5.144354 0.689939 0
M  V30 41 H 2.771069 4.053247 1.176421 0
M  V30 42 H 2.058059 3.550200 -3.712493 0
M  V30 43 H -1.135230 2.603038 -0.776000 0
M  V30 44 H -1.453613 0.467938 -1.586327 0
M  V30 45 H -3.357821 -0.257053 -1.684668 0
M  V30 46 H -3.335071 -1.089630 -0.168657 0
M  V30 47 H -1.668527 -1.521437 -2.666304 0
M  V30 48 H -0.760170 -2.940861 -0.115043 0
M  V30 49 H 0.087620 -1.701392 -1.092373 0
M  V30 50 H -0.125583 -3.064926 -2.970923 0
M  V30 51 H -1.340260 -5.067100 -1.078963 0
M  V30 52 H -0.864360 -5.345075 -2.773852 0
M  V30 53 H -3.314298 -4.802698 -2.173026 0
M  V30 54 H -2.685721 -4.085435 -3.644645 0
M  V30 55 H 1.515965 -0.130212 2.911926 0
M  V30 56 H 2.111135 -2.082891 3.882755 0
M  V30 END ATOM
M  V30 BEGIN BOND
M  V30 1 1 1 2
M  V30 2 1 2 3
M  V30 3 2 3 4
M  V30 4 1 4 5
M  V30 5 2 5 6
M  V30 6 1 6 7
M  V30 7 1 7 8
M  V30 8 2 8 9
M  V30 9 1 9 10
M  V30 10 2 10 11
M  V30 11 1 11 12
M  V30 12 1 12 13
M  V30 13 2 13 14
M  V30 14 1 14 15
M  V30 15 2 15 16
M  V30 16 1 16 17
M  V30 17 3 17 18
M  V30 18 1 16 19
M  V30 19 2 19 20
M  V30 20 1 11 21
M  V30 21 2 21 22
M  V30 22 1 22 23
M  V30 23 1 23 24
M  V30 24 1 24 25
M  V30 25 1 25 26
M  V30 26 1 26 27
M  V30 27 1 27 28
M  V30 28 1 28 29
M  V30 29 1 29 30
M  V30 30 2 7 31
M  V30 31 1 31 32
M  V30 32 2 32 33
M  V30 33 1 33 2
M  V30 34 1 33 5
M  V30 35 1 22 8
M  V30 36 1 30 25
M  V30 37 1 20 13
M  V30 38 1 1 34
M  V30 39 1 1 35
M  V30 40 1 1 36
M  V30 41 1 4 37
M  V30 42 1 6 38
M  V30 43 1 9 39
M  V30 44 1 12 40
M  V30 45 1 14 41
M  V30 46 1 19 42
M  V30 47 1 21 43
M  V30 48 1 23 44
M  V30 49 1 24 45
M  V30 50 1 24 46
M  V30 51 1 25 47 CFG=3
M  V30 52 1 26 48
M  V30 53 1 26 49
M  V30 54 1 27 50
M  V30 55 1 28 51
M  V30 56 1 28 52
M  V30 57 1 29 53
M  V30 58 1 29 54
M  V30 59 1 31 55
M  V30 60 1 32 56
M  V30 END BOND
M  V30 END CTAB
M  END
>  <Dataset>  (239) 
ChEMBL_Kinases

>  <Ligand_Instance>  (239) 
nan

>  <PDB_ID>  (239) 
nan

>  <Standardized_SMILES>  (239) 
Cn1ncc2cc(-c3cnc(Nc4cnc(C#N)cn4)cc3NC[C@H]3CNCCO3)ccc21

>  <Name>  (239) 
nan

>  <Pocket>  (239) 
nan

>  <ATP_Site>  (239) 
nan

>  <Peripheral>  (239) 
nan

>  <Num_H_Atoms_ProtBoundConf>  (239) 
nan

>  <Num_Resolved_Atoms>  (239) 
nan

>  <Num_Not_Resolved_Atoms>  (239) 
nan

$$$$
CHEMBL4797964
     RDKit          3D

  0  0  0  0  0  0  0  0  0  0999 V3000
M  V30 BEGIN CTAB
M  V30 COUNTS 53 56 0 0 0
M  V30 BEGIN ATOM
M  V30 1 C 2.901834 -2.265569 4.066649 0
M  V30 2 C 1.618461 -1.597211 3.635131 0
M  V30 3 C 1.642543 -1.227113 2.154044 0
M  V30 4 S 2.966698 -0.111183 1.800638 0
M  V30 5 O 2.852394 1.125401 2.676239 0
M  V30 6 O 4.295955 -0.758999 2.171101 0
M  V30 7 N 2.956529 0.272099 0.130857 0
M  V30 8 C 2.004545 0.896751 -0.674931 0
M  V30 9 C 2.085139 0.838092 -2.056041 0
M  V30 10 C 1.184198 1.463560 -2.867394 0
M  V30 11 C 0.143802 2.187718 -2.351612 0
M  V30 12 F -0.805852 2.847688 -3.058882 0
M  V30 13 C -0.036632 2.314072 -1.001397 0
M  V30 14 C -1.010987 3.094726 -0.230744 0
M  V30 15 O -1.349462 4.169634 -0.789967 0
M  V30 16 C -1.456520 2.552418 1.056177 0
M  V30 17 N -1.745288 3.090194 2.250639 0
M  V30 18 N -2.183734 2.155608 3.067809 0
M  V30 19 C -2.210779 0.955458 2.462742 0
M  V30 20 N -2.605347 -0.245164 2.920699 0
M  V30 21 C -2.555609 -1.293966 2.075854 0
M  V30 22 C -2.111196 -1.174403 0.749308 0
M  V30 23 C -2.123166 -2.375734 -0.065571 0
M  V30 24 C -3.256033 -3.183656 0.112842 0
M  V30 25 C -3.497337 -4.375838 -0.536619 0
M  V30 26 C -2.555446 -4.822087 -1.438388 0
M  V30 27 F -2.655530 -5.969784 -2.147699 0
M  V30 28 C -1.428162 -4.054977 -1.641043 0
M  V30 29 C -1.216914 -2.867733 -0.976005 0
M  V30 30 C -0.026253 -2.047223 -1.199880 0
M  V30 31 C -1.726318 0.079336 0.363899 0
M  V30 32 C -1.753289 1.188666 1.183450 0
M  V30 33 C 0.926290 1.646352 -0.221137 0
M  V30 34 F 0.876512 1.711981 1.152303 0
M  V30 35 H 3.650749 -1.464431 4.329649 0
M  V30 36 H 2.661752 -2.872301 4.979274 0
M  V30 37 H 3.297920 -2.976682 3.331583 0
M  V30 38 H 0.767835 -2.277758 3.822127 0
M  V30 39 H 1.492998 -0.654538 4.222331 0
M  V30 40 H 0.653666 -0.844533 1.909484 0
M  V30 41 H 1.783534 -2.184227 1.614003 0
M  V30 42 H 3.841677 -0.018826 -0.387803 0
M  V30 43 H 2.893727 0.274473 -2.537960 0
M  V30 44 H 1.258733 1.410285 -3.952544 0
M  V30 45 H -2.477471 2.316672 4.066872 0
M  V30 46 H -2.875991 -2.275651 2.445059 0
M  V30 47 H -4.057090 -2.903864 0.812571 0
M  V30 48 H -4.373895 -4.961895 -0.372253 0
M  V30 49 H -0.639913 -4.336326 -2.333667 0
M  V30 50 H 0.839840 -2.711099 -1.493848 0
M  V30 51 H 0.332495 -1.449587 -0.375429 0
M  V30 52 H -0.198213 -1.446733 -2.139522 0
M  V30 53 H -1.411333 0.143928 -0.645397 0
M  V30 END ATOM
M  V30 BEGIN BOND
M  V30 1 1 1 2
M  V30 2 1 2 3
M  V30 3 1 3 4
M  V30 4 2 4 5
M  V30 5 2 4 6
M  V30 6 1 4 7
M  V30 7 1 7 8
M  V30 8 2 8 9
M  V30 9 1 9 10
M  V30 10 2 10 11
M  V30 11 1 11 12
M  V30 12 1 11 13
M  V30 13 1 13 14
M  V30 14 2 14 15
M  V30 15 1 14 16
M  V30 16 2 16 17
M  V30 17 1 17 18
M  V30 18 1 18 19
M  V30 19 2 19 20
M  V30 20 1 20 21
M  V30 21 2 21 22
M  V30 22 1 22 23
M  V30 23 2 23 24
M  V30 24 1 24 25
M  V30 25 2 25 26
M  V30 26 1 26 27
M  V30 27 1 26 28
M  V30 28 2 28 29
M  V30 29 1 29 30
M  V30 30 1 22 31
M  V30 31 2 31 32
M  V30 32 2 13 33
M  V30 33 1 33 34
M  V30 34 1 33 8
M  V30 35 1 32 16
M  V30 36 1 32 19
M  V30 37 1 29 23
M  V30 38 1 1 35
M  V30 39 1 1 36
M  V30 40 1 1 37
M  V30 41 1 2 38
M  V30 42 1 2 39
M  V30 43 1 3 40
M  V30 44 1 3 41
M  V30 45 1 7 42
M  V30 46 1 9 43
M  V30 47 1 10 44
M  V30 48 1 18 45
M  V30 49 1 21 46
M  V30 50 1 24 47
M  V30 51 1 25 48
M  V30 52 1 28 49
M  V30 53 1 30 50
M  V30 54 1 30 51
M  V30 55 1 30 52
M  V30 56 1 31 53
M  V30 END BOND
M  V30 END CTAB
M  END
>  <Dataset>  (240) 
ChEMBL_Kinases

>  <Ligand_Instance>  (240) 
nan

>  <PDB_ID>  (240) 
nan

>  <Standardized_SMILES>  (240) 
CCCS(=O)(=O)Nc1ccc(F)c(C(=O)c2n[nH]c3ncc(-c4ccc(F)cc4C)cc23)c1F

>  <Name>  (240) 
nan

>  <Pocket>  (240) 
nan

>  <ATP_Site>  (240) 
nan

>  <Peripheral>  (240) 
nan

>  <Num_H_Atoms_ProtBoundConf>  (240) 
nan

>  <Num_Resolved_Atoms>  (240) 
nan

>  <Num_Not_Resolved_Atoms>  (240) 
nan

$$$$
CHEMBL4797973
     RDKit          3D

  0  0  0  0  0  0  0  0  0  0999 V3000
M  V30 BEGIN CTAB
M  V30 COUNTS 48 51 0 0 0
M  V30 BEGIN ATOM
M  V30 1 C 0.339979 -5.182291 3.794512 0
M  V30 2 O -0.789980 -5.416710 2.971312 0
M  V30 3 C -1.172202 -4.465083 2.049039 0
M  V30 4 C -0.529500 -3.243566 1.835687 0
M  V30 5 C -0.917409 -2.308748 0.919668 0
M  V30 6 C -0.146673 -1.085212 0.809921 0
M  V30 7 C 1.225608 -1.174304 1.067055 0
M  V30 8 N 2.076438 -0.116633 1.010369 0
M  V30 9 C 1.606881 1.120441 0.687857 0
M  V30 10 C 2.445475 2.237975 0.619538 0
M  V30 11 C 1.909379 3.464234 0.290119 0
M  V30 12 C 2.755145 4.667846 0.205759 0
M  V30 13 C 4.077254 4.695400 -0.184452 0
M  V30 14 C 4.722525 5.914695 -0.203008 0
M  V30 15 N 4.128976 7.083790 0.140880 0
M  V30 16 C 2.843228 7.110960 0.528019 0
M  V30 17 C 2.177658 5.885734 0.551508 0
M  V30 18 C 0.547989 3.643912 0.017139 0
M  V30 19 C -0.253603 2.511276 0.094631 0
M  V30 20 C 0.256930 1.251396 0.426313 0
M  V30 21 C -0.616290 0.169714 0.483916 0
M  V30 22 C -2.034094 -2.612614 0.153998 0
M  V30 23 C -2.690609 -3.791972 0.328780 0
M  V30 24 O -3.809605 -4.150482 -0.406883 0
M  V30 25 C -4.274552 -3.227411 -1.383944 0
M  V30 26 C -2.289261 -4.747749 1.269699 0
M  V30 27 O -2.975195 -5.935740 1.425686 0
M  V30 28 C -2.681730 -7.099069 0.704257 0
M  V30 29 H 1.243340 -5.257347 3.161338 0
M  V30 30 H 0.202966 -4.136135 4.175025 0
M  V30 31 H 0.341598 -5.892105 4.647496 0
M  V30 32 H 0.325780 -3.057705 2.451541 0
M  V30 33 H 1.774092 -2.087550 1.340695 0
M  V30 34 H 3.480367 2.106697 0.825022 0
M  V30 35 H 4.531270 3.758190 -0.453410 0
M  V30 36 H 5.759062 5.962924 -0.505608 0
M  V30 37 H 2.331985 8.019187 0.809149 0
M  V30 38 H 1.135688 5.933217 0.868627 0
M  V30 39 H 0.081018 4.570657 -0.242492 0
M  V30 40 H -1.311947 2.623466 -0.112141 0
M  V30 41 H -1.661192 0.241174 0.285641 0
M  V30 42 H -2.357020 -1.895784 -0.569723 0
M  V30 43 H -4.693002 -2.363673 -0.849960 0
M  V30 44 H -5.086924 -3.680610 -2.010652 0
M  V30 45 H -3.424686 -2.885725 -1.992016 0
M  V30 46 H -2.188555 -6.857856 -0.245430 0
M  V30 47 H -3.626417 -7.646376 0.442293 0
M  V30 48 H -2.046161 -7.821648 1.261951 0
M  V30 END ATOM
M  V30 BEGIN BOND
M  V30 1 1 1 2
M  V30 2 1 2 3
M  V30 3 2 3 4
M  V30 4 1 4 5
M  V30 5 1 5 6
M  V30 6 2 6 7
M  V30 7 1 7 8
M  V30 8 2 8 9
M  V30 9 1 9 10
M  V30 10 2 10 11
M  V30 11 1 11 12
M  V30 12 2 12 13
M  V30 13 1 13 14
M  V30 14 2 14 15
M  V30 15 1 15 16
M  V30 16 2 16 17
M  V30 17 1 11 18
M  V30 18 2 18 19
M  V30 19 1 19 20
M  V30 20 2 20 21
M  V30 21 2 5 22
M  V30 22 1 22 23
M  V30 23 1 23 24
M  V30 24 1 24 25
M  V30 25 2 23 26
M  V30 26 1 26 27
M  V30 27 1 27 28
M  V30 28 1 26 3
M  V30 29 1 21 6
M  V30 30 1 20 9
M  V30 31 1 17 12
M  V30 32 1 1 29
M  V30 33 1 1 30
M  V30 34 1 1 31
M  V30 35 1 4 32
M  V30 36 1 7 33
M  V30 37 1 10 34
M  V30 38 1 13 35
M  V30 39 1 14 36
M  V30 40 1 16 37
M  V30 41 1 17 38
M  V30 42 1 18 39
M  V30 43 1 19 40
M  V30 44 1 21 41
M  V30 45 1 22 42
M  V30 46 1 25 43
M  V30 47 1 25 44
M  V30 48 1 25 45
M  V30 49 1 28 46
M  V30 50 1 28 47
M  V30 51 1 28 48
M  V30 END BOND
M  V30 END CTAB
M  END
>  <Dataset>  (241) 
ChEMBL_Kinases

>  <Ligand_Instance>  (241) 
nan

>  <PDB_ID>  (241) 
nan

>  <Standardized_SMILES>  (241) 
COc1cc(-c2cnc3cc(-c4ccncc4)ccc3c2)cc(OC)c1OC

>  <Name>  (241) 
nan

>  <Pocket>  (241) 
nan

>  <ATP_Site>  (241) 
nan

>  <Peripheral>  (241) 
nan

>  <Num_H_Atoms_ProtBoundConf>  (241) 
nan

>  <Num_Resolved_Atoms>  (241) 
nan

>  <Num_Not_Resolved_Atoms>  (241) 
nan

$$$$
CHEMBL4798092
     RDKit          3D

  0  0  0  0  0  0  0  0  0  0999 V3000
M  V30 BEGIN CTAB
M  V30 COUNTS 66 69 0 0 0
M  V30 BEGIN ATOM
M  V30 1 C 1.298206 5.389300 7.007748 0
M  V30 2 C 0.782066 5.364628 5.785235 0
M  V30 3 C 1.258201 6.338281 4.768677 0
M  V30 4 C 1.841545 5.635336 3.559086 0
M  V30 5 N 0.786675 4.803154 2.967876 0
M  V30 6 C 1.064588 4.036890 1.824993 0
M  V30 7 O 2.288185 4.234410 1.504178 0
M  V30 8 C 0.170997 3.157619 1.089598 0
M  V30 9 C -1.154783 2.809866 1.215096 0
M  V30 10 C -2.035627 3.337745 2.260240 0
M  V30 11 N -1.466369 1.937311 0.241656 0
M  V30 12 C -0.371726 1.692619 -0.537274 0
M  V30 13 C -0.517857 0.736413 -1.618158 0
M  V30 14 C -0.333401 0.826394 -2.914693 0
M  V30 15 C 0.095644 2.061580 -3.553100 0
M  V30 16 O 0.312741 3.163918 -2.996642 0
M  V30 17 N 0.216581 1.771490 -4.935487 0
M  V30 18 C -0.130389 0.405371 -5.121630 0
M  V30 19 C -0.182181 -0.379967 -6.257698 0
M  V30 20 C -0.562062 -1.726014 -6.187326 0
M  V30 21 C -0.895864 -2.306679 -4.980413 0
M  V30 22 C -1.282557 -3.712819 -4.990631 0
M  V30 23 O -1.261748 -4.306006 -6.093390 0
M  V30 24 N -1.675746 -4.428175 -3.825549 0
M  V30 25 C -2.059682 -5.807280 -3.813329 0 CFG=2
M  V30 26 C -3.521597 -5.832423 -3.344974 0
M  V30 27 C -1.303277 -6.548073 -2.785560 0
M  V30 28 C -1.170580 -5.977893 -1.534089 0
M  V30 29 C -0.479728 -6.605214 -0.517626 0
M  V30 30 C 0.109893 -7.837038 -0.715474 0
M  V30 31 C -0.017893 -8.416554 -1.967381 0
M  V30 32 C -0.713685 -7.778425 -2.980984 0
M  V30 33 C -0.846410 -1.529821 -3.842177 0
M  V30 34 C -0.469262 -0.205939 -3.933982 0
M  V30 35 C 0.628750 2.444197 -0.009390 0
M  V30 36 C 2.032759 2.443002 -0.538541 0
M  V30 37 H 1.089287 4.774866 7.874662 0
M  V30 38 H 1.063646 4.762156 7.839819 0
M  V30 39 H 0.010628 4.640737 5.508512 0
M  V30 40 H 2.065460 6.956086 5.209752 0
M  V30 41 H 0.413095 6.966681 4.434644 0
M  V30 42 H 2.690154 5.011239 3.840992 0
M  V30 43 H 2.173128 6.405154 2.859696 0
M  V30 44 H -0.149770 4.772151 3.376940 0
M  V30 45 H -2.187923 4.417216 2.270368 0
M  V30 46 H -3.065162 2.903033 2.093437 0
M  V30 47 H -1.713624 3.019804 3.273943 0
M  V30 48 H -2.451434 1.541157 0.161753 0
M  V30 49 H -0.846630 -0.270246 -1.298327 0
M  V30 50 H 0.514139 2.495079 -5.624568 0
M  V30 51 H 0.084530 0.091071 -7.207185 0
M  V30 52 H -0.562911 -2.225836 -7.130943 0
M  V30 53 H -1.684518 -3.913080 -2.921001 0
M  V30 54 H -2.012875 -6.288642 -4.805357 0
M  V30 55 H -3.808793 -6.798840 -2.907292 0
M  V30 56 H -4.192682 -5.498992 -4.170813 0
M  V30 57 H -3.585303 -5.060789 -2.538610 0
M  V30 58 H -1.568195 -5.032148 -1.223210 0
M  V30 59 H -0.345023 -6.207465 0.477481 0
M  V30 60 H 0.668447 -8.394849 0.027903 0
M  V30 61 H 0.423906 -9.381437 -2.180811 0
M  V30 62 H -0.809926 -8.246989 -3.971223 0
M  V30 63 H -1.099814 -1.960518 -2.904601 0
M  V30 64 H 2.108456 1.792133 -1.418730 0
M  V30 65 H 2.715658 2.115050 0.288970 0
M  V30 66 H 2.366895 3.472759 -0.777180 0
M  V30 END ATOM
M  V30 BEGIN BOND
M  V30 1 2 1 2
M  V30 2 1 2 3
M  V30 3 1 3 4
M  V30 4 1 4 5
M  V30 5 1 5 6
M  V30 6 2 6 7
M  V30 7 1 6 8
M  V30 8 2 8 9
M  V30 9 1 9 10
M  V30 10 1 9 11
M  V30 11 1 11 12
M  V30 12 1 12 13
M  V30 13 2 13 14
M  V30 14 1 14 15
M  V30 15 2 15 16
M  V30 16 1 15 17
M  V30 17 1 17 18
M  V30 18 2 18 19
M  V30 19 1 19 20
M  V30 20 2 20 21
M  V30 21 1 21 22
M  V30 22 2 22 23
M  V30 23 1 22 24
M  V30 24 1 24 25
M  V30 25 1 25 26
M  V30 26 1 25 27
M  V30 27 2 27 28
M  V30 28 1 28 29
M  V30 29 2 29 30
M  V30 30 1 30 31
M  V30 31 2 31 32
M  V30 32 1 21 33
M  V30 33 2 33 34
M  V30 34 2 12 35
M  V30 35 1 35 36
M  V30 36 1 35 8
M  V30 37 1 34 14
M  V30 38 1 34 18
M  V30 39 1 32 27
M  V30 40 1 1 37
M  V30 41 1 1 38
M  V30 42 1 2 39
M  V30 43 1 3 40
M  V30 44 1 3 41
M  V30 45 1 4 42
M  V30 46 1 4 43
M  V30 47 1 5 44
M  V30 48 1 10 45
M  V30 49 1 10 46
M  V30 50 1 10 47
M  V30 51 1 11 48
M  V30 52 1 13 49
M  V30 53 1 17 50
M  V30 54 1 19 51
M  V30 55 1 20 52
M  V30 56 1 24 53
M  V30 57 1 25 54 CFG=3
M  V30 58 1 26 55
M  V30 59 1 26 56
M  V30 60 1 26 57
M  V30 61 1 28 58
M  V30 62 1 29 59
M  V30 63 1 30 60
M  V30 64 1 31 61
M  V30 65 1 32 62
M  V30 66 1 33 63
M  V30 67 1 36 64
M  V30 68 1 36 65
M  V30 69 1 36 66
M  V30 END BOND
M  V30 END CTAB
M  END
>  <Dataset>  (242) 
ChEMBL_Kinases

>  <Ligand_Instance>  (242) 
nan

>  <PDB_ID>  (242) 
nan

>  <Standardized_SMILES>  (242) 
C=CCCNC(=O)c1c(C)[nH]c(/C=C2\C(=O)Nc3ccc(C(=O)N[C@H](C)c4ccccc4)cc32)c1C

>  <Name>  (242) 
nan

>  <Pocket>  (242) 
nan

>  <ATP_Site>  (242) 
nan

>  <Peripheral>  (242) 
nan

>  <Num_H_Atoms_ProtBoundConf>  (242) 
nan

>  <Num_Resolved_Atoms>  (242) 
nan

>  <Num_Not_Resolved_Atoms>  (242) 
nan

$$$$
CHEMBL4797557
     RDKit          3D

  0  0  0  0  0  0  0  0  0  0999 V3000
M  V30 BEGIN CTAB
M  V30 COUNTS 36 38 0 0 0
M  V30 BEGIN ATOM
M  V30 1 N -0.935175 -2.897386 3.576743 0
M  V30 2 C -0.242632 -2.204606 2.544403 0
M  V30 3 N 1.054361 -2.559314 2.472626 0
M  V30 4 C 1.882369 -2.014941 1.559237 0
M  V30 5 C 1.290739 -1.085878 0.728476 0
M  V30 6 C 2.089575 -0.426833 -0.305468 0
M  V30 7 C 3.117027 -1.207257 -0.839290 0
M  V30 8 C 3.914077 -0.653005 -1.819015 0
M  V30 9 C 3.671629 0.640282 -2.233874 0
M  V30 10 C 4.536878 1.190457 -3.271439 0
M  V30 11 O 5.476981 0.562282 -3.800105 0
M  V30 12 O 4.399047 2.476009 -3.776713 0
M  V30 13 C 2.665825 1.437243 -1.727265 0
M  V30 14 C 1.871552 0.866916 -0.742309 0
M  V30 15 C -0.025140 -0.697476 0.769089 0
M  V30 16 C -0.843104 -1.276501 1.717846 0
M  V30 17 C -2.263638 -0.973133 1.889605 0
M  V30 18 C -3.276721 -1.909203 2.064315 0
M  V30 19 C -4.583203 -1.503192 2.217443 0
M  V30 20 C -4.885144 -0.162736 2.197102 0
M  V30 21 C -3.900273 0.810141 2.024477 0
M  V30 22 Cl -4.310551 2.523765 2.002183 0
M  V30 23 C -2.579371 0.382118 1.870336 0
M  V30 24 H -0.810590 -2.774702 4.625290 0
M  V30 25 H -1.625065 -3.586456 3.946557 0
M  V30 26 H 2.928041 -2.259638 1.455178 0
M  V30 27 H 3.338055 -2.219313 -0.542655 0
M  V30 28 H 4.717770 -1.224809 -2.255437 0
M  V30 29 H 4.493683 2.670466 -4.786200 0
M  V30 30 H 2.484613 2.453037 -2.061104 0
M  V30 31 H 1.054207 1.416562 -0.282751 0
M  V30 32 H -0.456143 0.034514 0.101833 0
M  V30 33 H -2.971919 -2.947030 2.069989 0
M  V30 34 H -5.325493 -2.281517 2.349616 0
M  V30 35 H -5.925650 0.119114 2.321192 0
M  V30 36 H -1.812951 1.155150 1.735073 0
M  V30 END ATOM
M  V30 BEGIN BOND
M  V30 1 1 1 2
M  V30 2 2 2 3
M  V30 3 1 3 4
M  V30 4 2 4 5
M  V30 5 1 5 6
M  V30 6 2 6 7
M  V30 7 1 7 8
M  V30 8 2 8 9
M  V30 9 1 9 10
M  V30 10 2 10 11
M  V30 11 1 10 12
M  V30 12 1 9 13
M  V30 13 2 13 14
M  V30 14 1 5 15
M  V30 15 2 15 16
M  V30 16 1 16 17
M  V30 17 2 17 18
M  V30 18 1 18 19
M  V30 19 2 19 20
M  V30 20 1 20 21
M  V30 21 1 21 22
M  V30 22 2 21 23
M  V30 23 1 16 2
M  V30 24 1 23 17
M  V30 25 1 14 6
M  V30 26 1 1 24
M  V30 27 1 1 25
M  V30 28 1 4 26
M  V30 29 1 7 27
M  V30 30 1 8 28
M  V30 31 1 12 29
M  V30 32 1 13 30
M  V30 33 1 14 31
M  V30 34 1 15 32
M  V30 35 1 18 33
M  V30 36 1 19 34
M  V30 37 1 20 35
M  V30 38 1 23 36
M  V30 END BOND
M  V30 END CTAB
M  END
>  <Dataset>  (243) 
ChEMBL_Kinases

>  <Ligand_Instance>  (243) 
nan

>  <PDB_ID>  (243) 
nan

>  <Standardized_SMILES>  (243) 
Nc1ncc(-c2ccc(C(=O)O)cc2)cc1-c1cccc(Cl)c1

>  <Name>  (243) 
nan

>  <Pocket>  (243) 
nan

>  <ATP_Site>  (243) 
nan

>  <Peripheral>  (243) 
nan

>  <Num_H_Atoms_ProtBoundConf>  (243) 
nan

>  <Num_Resolved_Atoms>  (243) 
nan

>  <Num_Not_Resolved_Atoms>  (243) 
nan

$$$$
CHEMBL4794586
     RDKit          3D

  0  0  0  0  0  0  0  0  0  0999 V3000
M  V30 BEGIN CTAB
M  V30 COUNTS 37 38 0 0 0
M  V30 BEGIN ATOM
M  V30 1 C 3.118519 -4.305967 3.093590 0
M  V30 2 C 2.024436 -4.287059 2.027239 0
M  V30 3 C 0.867611 -5.098164 2.510215 0
M  V30 4 C 2.603695 -4.937672 0.794626 0
M  V30 5 O 1.719701 -2.918730 1.832923 0
M  V30 6 C 0.773706 -2.471249 0.943348 0
M  V30 7 O 0.223446 -3.441352 0.333176 0
M  V30 8 N 0.424192 -1.113641 0.704533 0
M  V30 9 C -0.582766 -0.796761 -0.254394 0
M  V30 10 C -0.966146 0.429929 -0.536125 0
M  V30 11 N -0.367195 1.532000 0.131529 0
M  V30 12 C -0.747425 2.876060 -0.138271 0
M  V30 13 C -0.124824 3.901795 0.546716 0
M  V30 14 C -0.486763 5.207870 0.291910 0
M  V30 15 C -1.476816 5.428352 -0.657776 0
M  V30 16 C -2.107821 4.406266 -1.350692 0
M  V30 17 C -1.729451 3.087742 -1.080786 0
M  V30 18 N -2.385218 2.045108 -1.799414 0
M  V30 19 C -1.991465 0.683017 -1.517774 0
M  V30 20 O -2.539669 -0.266819 -2.124423 0
M  V30 21 H 4.078153 -4.031321 2.622705 0
M  V30 22 H 3.172958 -5.277555 3.626087 0
M  V30 23 H 2.879917 -3.504336 3.820080 0
M  V30 24 H 0.862572 -6.124305 2.066966 0
M  V30 25 H -0.092211 -4.574580 2.353051 0
M  V30 26 H 0.944755 -5.234903 3.610908 0
M  V30 27 H 2.904989 -5.960354 1.104276 0
M  V30 28 H 3.530589 -4.420795 0.466442 0
M  V30 29 H 1.871819 -5.065078 -0.009958 0
M  V30 30 H 0.980735 -0.498504 1.294085 0
M  V30 31 H -1.068436 -1.597162 -0.788739 0
M  V30 32 H 0.376615 1.375944 0.845736 0
M  V30 33 H 0.646664 3.695656 1.284156 0
M  V30 34 H -0.011821 6.005446 0.815586 0
M  V30 35 H -1.726182 6.461356 -0.823293 0
M  V30 36 H -2.876082 4.607026 -2.085397 0
M  V30 37 H -3.127134 2.226317 -2.509874 0
M  V30 END ATOM
M  V30 BEGIN BOND
M  V30 1 1 1 2
M  V30 2 1 2 3
M  V30 3 1 2 4
M  V30 4 1 2 5
M  V30 5 1 5 6
M  V30 6 2 6 7
M  V30 7 1 6 8
M  V30 8 1 8 9
M  V30 9 2 9 10
M  V30 10 1 10 11
M  V30 11 1 11 12
M  V30 12 2 12 13
M  V30 13 1 13 14
M  V30 14 2 14 15
M  V30 15 1 15 16
M  V30 16 2 16 17
M  V30 17 1 17 18
M  V30 18 1 18 19
M  V30 19 2 19 20
M  V30 20 1 19 10
M  V30 21 1 17 12
M  V30 22 1 1 21
M  V30 23 1 1 22
M  V30 24 1 1 23
M  V30 25 1 3 24
M  V30 26 1 3 25
M  V30 27 1 3 26
M  V30 28 1 4 27
M  V30 29 1 4 28
M  V30 30 1 4 29
M  V30 31 1 8 30
M  V30 32 1 9 31
M  V30 33 1 11 32
M  V30 34 1 13 33
M  V30 35 1 14 34
M  V30 36 1 15 35
M  V30 37 1 16 36
M  V30 38 1 18 37
M  V30 END BOND
M  V30 END CTAB
M  END
>  <Dataset>  (244) 
ChEMBL_Kinases

>  <Ligand_Instance>  (244) 
nan

>  <PDB_ID>  (244) 
nan

>  <Standardized_SMILES>  (244) 
CC(C)(C)OC(=O)N/C=C1\Nc2ccccc2NC1=O

>  <Name>  (244) 
nan

>  <Pocket>  (244) 
nan

>  <ATP_Site>  (244) 
nan

>  <Peripheral>  (244) 
nan

>  <Num_H_Atoms_ProtBoundConf>  (244) 
nan

>  <Num_Resolved_Atoms>  (244) 
nan

>  <Num_Not_Resolved_Atoms>  (244) 
nan

$$$$
CHEMBL4104223
     RDKit          3D

  0  0  0  0  0  0  0  0  0  0999 V3000
M  V30 BEGIN CTAB
M  V30 COUNTS 40 43 0 0 0
M  V30 BEGIN ATOM
M  V30 1 C 1.940773 -4.191225 1.276637 0
M  V30 2 C 0.728487 -3.960750 1.880722 0
M  V30 3 C 0.248869 -2.668272 2.061722 0
M  V30 4 C 1.132664 -1.698188 1.569291 0
M  V30 5 C 2.342318 -1.916903 0.961991 0
M  V30 6 C 2.792914 -3.203854 0.795252 0
M  V30 7 C 3.124137 -0.811761 0.439646 0
M  V30 8 C 4.470343 -0.547497 0.388197 0
M  V30 9 N 4.640283 0.660658 -0.224657 0
M  V30 10 C 3.398132 1.076597 -0.517802 0
M  V30 11 C 2.848247 2.208409 -1.126527 0
M  V30 12 C 1.458093 2.293561 -1.249886 0
M  V30 13 C 0.554714 1.313397 -0.802236 0
M  V30 14 N 1.161580 0.281271 -0.242692 0
M  V30 15 N 2.460296 0.216010 -0.133620 0
M  V30 16 N -0.815280 1.612051 -1.000455 0
M  V30 17 C -2.080535 1.877331 -0.365671 0
M  V30 18 C -2.801563 0.769081 0.278819 0
M  V30 19 C -2.050556 0.052269 1.341973 0
M  V30 20 C -2.880499 -1.038856 2.042316 0
M  V30 21 C -1.897927 -1.646965 3.082391 0
M  V30 22 O -0.812327 -2.163420 2.566219 0
M  V30 23 H 2.283875 -5.216410 1.154116 0
M  V30 24 H 0.069560 -4.718995 2.253225 0
M  V30 25 H 0.879931 -0.639985 1.704556 0
M  V30 26 H 3.738986 -3.329814 0.321242 0
M  V30 27 H 5.178103 -1.248809 0.793652 0
M  V30 28 H 3.488937 2.986989 -1.487084 0
M  V30 29 H 1.066029 3.204411 -1.737427 0
M  V30 30 H -0.874335 1.626510 -2.070747 0
M  V30 31 H -2.805436 2.341121 -1.107629 0
M  V30 32 H -1.954855 2.738812 0.377794 0
M  V30 33 H -3.073003 0.030895 -0.537813 0
M  V30 34 H -3.787504 1.154637 0.614291 0
M  V30 35 H -1.659022 0.689090 2.134157 0
M  V30 36 H -1.279377 -0.551488 0.793541 0
M  V30 37 H -3.180229 -1.831730 1.359198 0
M  V30 38 H -3.673474 -0.572460 2.626108 0
M  V30 39 H -1.660686 -0.735197 3.724596 0
M  V30 40 H -2.517184 -2.288965 3.768423 0
M  V30 END ATOM
M  V30 BEGIN BOND
M  V30 1 2 1 2
M  V30 2 1 2 3
M  V30 3 2 3 4
M  V30 4 1 4 5
M  V30 5 2 5 6
M  V30 6 1 5 7
M  V30 7 2 7 8
M  V30 8 1 8 9
M  V30 9 2 9 10
M  V30 10 1 10 11
M  V30 11 2 11 12
M  V30 12 1 12 13
M  V30 13 2 13 14
M  V30 14 1 14 15
M  V30 15 1 13 16
M  V30 16 1 16 17
M  V30 17 1 17 18
M  V30 18 1 18 19
M  V30 19 1 19 20
M  V30 20 1 20 21
M  V30 21 1 21 22
M  V30 22 1 6 1
M  V30 23 1 15 7
M  V30 24 1 22 3
M  V30 25 1 15 10
M  V30 26 1 1 23
M  V30 27 1 2 24
M  V30 28 1 4 25
M  V30 29 1 6 26
M  V30 30 1 8 27
M  V30 31 1 11 28
M  V30 32 1 12 29
M  V30 33 1 16 30
M  V30 34 1 17 31
M  V30 35 1 17 32
M  V30 36 1 18 33
M  V30 37 1 18 34
M  V30 38 1 19 35
M  V30 39 1 19 36
M  V30 40 1 20 37
M  V30 41 1 20 38
M  V30 42 1 21 39
M  V30 43 1 21 40
M  V30 END BOND
M  V30 END CTAB
M  END
>  <Dataset>  (245) 
ChEMBL_Kinases

>  <Ligand_Instance>  (245) 
nan

>  <PDB_ID>  (245) 
nan

>  <Standardized_SMILES>  (245) 
c1cc2cc(c1)-c1cnc3ccc(nn13)NCCCCCO2

>  <Name>  (245) 
nan

>  <Pocket>  (245) 
nan

>  <ATP_Site>  (245) 
nan

>  <Peripheral>  (245) 
nan

>  <Num_H_Atoms_ProtBoundConf>  (245) 
nan

>  <Num_Resolved_Atoms>  (245) 
nan

>  <Num_Not_Resolved_Atoms>  (245) 
nan

$$$$
CHEMBL4104212
     RDKit          3D

  0  0  0  0  0  0  0  0  0  0999 V3000
M  V30 BEGIN CTAB
M  V30 COUNTS 48 51 0 0 0
M  V30 BEGIN ATOM
M  V30 1 N 5.001393 -3.534049 -0.891155 0
M  V30 2 C 3.944027 -3.353355 -0.404221 0
M  V30 3 C 2.679657 -3.152390 0.198898 0
M  V30 4 C 2.009145 -4.269616 0.730316 0
M  V30 5 C 0.767004 -4.108937 1.336641 0
M  V30 6 C 0.216508 -2.861349 1.410267 0
M  V30 7 C 0.839923 -1.725863 0.900266 0
M  V30 8 C 2.057153 -1.935368 0.311802 0
M  V30 9 C 2.815825 -0.877825 -0.320140 0
M  V30 10 O 3.820026 -0.708876 -1.019108 0
M  V30 11 N 2.413908 0.466310 -0.188867 0
M  V30 12 C 2.440110 1.900900 -0.363429 0 CFG=2
M  V30 13 C 2.920754 2.696575 0.789648 0
M  V30 14 O 2.259559 2.611736 1.978659 0
M  V30 15 C 1.277277 2.395219 -1.098851 0
M  V30 16 C 0.535887 3.568310 -0.875289 0
M  V30 17 C -0.573963 3.982554 -1.616378 0
M  V30 18 C -1.000875 3.171304 -2.674542 0
M  V30 19 C -0.260252 1.996271 -2.899555 0
M  V30 20 C 0.813285 1.633946 -2.156011 0
M  V30 21 C -1.080597 -2.926201 2.065812 0
M  V30 22 C -1.934786 -1.981899 2.338088 0
M  V30 23 C -3.227262 -2.061319 2.991068 0
M  V30 24 C -3.779045 -2.595578 4.107894 0
M  V30 25 C -5.143570 -2.321729 4.136389 0
M  V30 26 C -5.431349 -1.585599 2.983567 0
M  V30 27 N -4.248865 -1.448479 2.315516 0
M  V30 28 C -1.318062 -4.320737 2.406682 0
M  V30 29 O -2.316856 -4.813977 2.981503 0
M  V30 30 N -0.155599 -5.034034 1.945378 0
M  V30 31 H 2.468374 -5.251813 0.649614 0
M  V30 32 H 0.351931 -0.772227 0.992334 0
M  V30 33 H 1.559629 0.644639 0.450962 0
M  V30 34 H 3.304394 2.032237 -1.110363 0
M  V30 35 H 2.963339 3.772412 0.474568 0
M  V30 36 H 3.996166 2.399478 0.966416 0
M  V30 37 H 2.326130 3.401410 2.558224 0
M  V30 38 H 1.002739 4.066051 -0.029389 0
M  V30 39 H -0.995827 4.922666 -1.280564 0
M  V30 40 H -1.863850 3.562657 -3.193005 0
M  V30 41 H -0.674035 1.413459 -3.753542 0
M  V30 42 H 1.285656 0.677300 -2.454595 0
M  V30 43 H -1.589196 -0.979764 2.016966 0
M  V30 44 H -3.214305 -3.122160 4.830096 0
M  V30 45 H -5.861862 -2.598833 4.885490 0
M  V30 46 H -6.404626 -1.174854 2.654428 0
M  V30 47 H -4.277500 -0.905786 1.395892 0
M  V30 48 H 0.026506 -6.060030 2.020349 0
M  V30 END ATOM
M  V30 BEGIN BOND
M  V30 1 3 1 2
M  V30 2 1 2 3
M  V30 3 2 3 4
M  V30 4 1 4 5
M  V30 5 2 5 6
M  V30 6 1 6 7
M  V30 7 2 7 8
M  V30 8 1 8 9
M  V30 9 2 9 10
M  V30 10 1 9 11
M  V30 11 1 11 12
M  V30 12 1 12 13
M  V30 13 1 13 14
M  V30 14 1 12 15
M  V30 15 2 15 16
M  V30 16 1 16 17
M  V30 17 2 17 18
M  V30 18 1 18 19
M  V30 19 2 19 20
M  V30 20 1 6 21
M  V30 21 2 21 22
M  V30 22 1 22 23
M  V30 23 2 23 24
M  V30 24 1 24 25
M  V30 25 2 25 26
M  V30 26 1 26 27
M  V30 27 1 21 28
M  V30 28 2 28 29
M  V30 29 1 28 30
M  V30 30 1 8 3
M  V30 31 1 20 15
M  V30 32 1 27 23
M  V30 33 1 30 5
M  V30 34 1 4 31
M  V30 35 1 7 32
M  V30 36 1 11 33
M  V30 37 1 12 34 CFG=3
M  V30 38 1 13 35
M  V30 39 1 13 36
M  V30 40 1 14 37
M  V30 41 1 16 38
M  V30 42 1 17 39
M  V30 43 1 18 40
M  V30 44 1 19 41
M  V30 45 1 20 42
M  V30 46 1 22 43
M  V30 47 1 24 44
M  V30 48 1 25 45
M  V30 49 1 26 46
M  V30 50 1 27 47
M  V30 51 1 30 48
M  V30 END BOND
M  V30 END CTAB
M  END
>  <Dataset>  (246) 
ChEMBL_Kinases

>  <Ligand_Instance>  (246) 
nan

>  <PDB_ID>  (246) 
nan

>  <Standardized_SMILES>  (246) 
N#Cc1cc2c(cc1C(=O)N[C@H](CO)c1ccccc1)/C(=C/c1ccc[nH]1)C(=O)N2

>  <Name>  (246) 
nan

>  <Pocket>  (246) 
nan

>  <ATP_Site>  (246) 
nan

>  <Peripheral>  (246) 
nan

>  <Num_H_Atoms_ProtBoundConf>  (246) 
nan

>  <Num_Resolved_Atoms>  (246) 
nan

>  <Num_Not_Resolved_Atoms>  (246) 
nan

$$$$
CHEMBL4794603
     RDKit          3D

  0  0  0  0  0  0  0  0  0  0999 V3000
M  V30 BEGIN CTAB
M  V30 COUNTS 60 62 0 0 0
M  V30 BEGIN ATOM
M  V30 1 C 3.593467 2.670215 4.621532 0
M  V30 2 C 3.402937 1.161282 4.422252 0
M  V30 3 C 3.768949 0.400563 5.675520 0
M  V30 4 C 4.383621 0.745736 3.337060 0
M  V30 5 O 2.085161 0.849843 4.128167 0
M  V30 6 C 1.326785 1.249862 3.046686 0
M  V30 7 O 1.834861 1.995193 2.164189 0
M  V30 8 C -0.084445 0.774788 2.960379 0
M  V30 9 C -0.196756 -0.695270 2.697770 0
M  V30 10 C 0.463874 -1.167617 1.429260 0 CFG=2
M  V30 11 N 1.878815 -0.846614 1.510175 0
M  V30 12 C -0.183585 -0.695738 0.209788 0
M  V30 13 O -1.357953 -1.105619 0.136102 0
M  V30 14 N 0.102544 0.084726 -0.916187 0
M  V30 15 C 0.379813 0.874222 -2.063368 0
M  V30 16 C 0.307960 0.096584 -3.330128 0
M  V30 17 C -0.939793 -0.451357 -3.850251 0
M  V30 18 N -1.757464 -1.347074 -3.143422 0
M  V30 19 C -1.454797 -2.651992 -3.169196 0
M  V30 20 O -0.426428 -3.123687 -3.748009 0
M  V30 21 C -2.255792 -3.590290 -2.556286 0
M  V30 22 C -1.942667 -4.938374 -2.583229 0
M  V30 23 C -2.779794 -5.857999 -1.949341 0
M  V30 24 F -2.443323 -7.157560 -1.997628 0
M  V30 25 C -3.936984 -5.453394 -1.281914 0
M  V30 26 C -4.240049 -4.099478 -1.262142 0
M  V30 27 C -3.402183 -3.219253 -1.891178 0
M  V30 28 N -3.695385 -1.918205 -1.870659 0
M  V30 29 C -4.706537 -1.241459 -1.329196 0
M  V30 30 S -5.999757 -1.667976 -0.477163 0
M  V30 31 N -4.557084 0.059877 -1.584408 0
M  V30 32 N -3.432923 0.226547 -2.300901 0
M  V30 33 C -2.897863 -1.012256 -2.477526 0
M  V30 34 H 2.635634 3.082703 4.960361 0
M  V30 35 H 4.006361 3.154087 3.710228 0
M  V30 36 H 4.337635 2.777393 5.460898 0
M  V30 37 H 4.857008 0.184647 5.638152 0
M  V30 38 H 3.505866 1.034293 6.540136 0
M  V30 39 H 3.211565 -0.564374 5.644673 0
M  V30 40 H 4.252436 -0.277108 2.976687 0
M  V30 41 H 4.446570 1.491817 2.523024 0
M  V30 42 H 5.397156 0.758270 3.838876 0
M  V30 43 H -0.672591 0.998312 3.872900 0
M  V30 44 H -0.630123 1.311484 2.135948 0
M  V30 45 H -1.287073 -0.943163 2.692275 0
M  V30 46 H 0.257193 -1.246930 3.527345 0
M  V30 47 H 0.425561 -2.275723 1.436749 0
M  V30 48 H 2.342787 -1.456034 2.236989 0
M  V30 49 H 2.354753 -0.876026 0.606753 0
M  V30 50 H 1.104240 0.229523 -0.508205 0
M  V30 51 H -0.417273 1.703975 -2.087961 0
M  V30 52 H 1.361541 1.403590 -2.034607 0
M  V30 53 H 0.710463 0.782541 -4.164136 0
M  V30 54 H 1.140881 -0.684139 -3.309111 0
M  V30 55 H -0.798250 -0.856382 -4.919029 0
M  V30 56 H -1.616612 0.460990 -4.066427 0
M  V30 57 H -1.055392 -5.290731 -3.088414 0
M  V30 58 H -4.523137 -6.248476 -0.820749 0
M  V30 59 H -5.144720 -3.901395 -0.723355 0
M  V30 60 H -5.083030 0.953664 -1.371878 0
M  V30 END ATOM
M  V30 BEGIN BOND
M  V30 1 1 1 2
M  V30 2 1 2 3
M  V30 3 1 2 4
M  V30 4 1 2 5
M  V30 5 1 5 6
M  V30 6 2 6 7
M  V30 7 1 6 8
M  V30 8 1 8 9
M  V30 9 1 9 10
M  V30 10 1 10 11
M  V30 11 1 10 12
M  V30 12 2 12 13
M  V30 13 1 12 14
M  V30 14 1 14 15
M  V30 15 1 15 16
M  V30 16 1 16 17
M  V30 17 1 17 18
M  V30 18 1 18 19
M  V30 19 2 19 20
M  V30 20 1 19 21
M  V30 21 2 21 22
M  V30 22 1 22 23
M  V30 23 1 23 24
M  V30 24 2 23 25
M  V30 25 1 25 26
M  V30 26 2 26 27
M  V30 27 1 27 28
M  V30 28 1 28 29
M  V30 29 2 29 30
M  V30 30 1 29 31
M  V30 31 1 31 32
M  V30 32 2 32 33
M  V30 33 1 33 18
M  V30 34 1 27 21
M  V30 35 1 33 28
M  V30 36 1 1 34
M  V30 37 1 1 35
M  V30 38 1 1 36
M  V30 39 1 3 37
M  V30 40 1 3 38
M  V30 41 1 3 39
M  V30 42 1 4 40
M  V30 43 1 4 41
M  V30 44 1 4 42
M  V30 45 1 8 43
M  V30 46 1 8 44
M  V30 47 1 9 45
M  V30 48 1 9 46
M  V30 49 1 10 47 CFG=3
M  V30 50 1 11 48
M  V30 51 1 11 49
M  V30 52 1 14 50
M  V30 53 1 15 51
M  V30 54 1 15 52
M  V30 55 1 16 53
M  V30 56 1 16 54
M  V30 57 1 17 55
M  V30 58 1 17 56
M  V30 59 1 22 57
M  V30 60 1 25 58
M  V30 61 1 26 59
M  V30 62 1 31 60
M  V30 END BOND
M  V30 END CTAB
M  END
>  <Dataset>  (247) 
ChEMBL_Kinases

>  <Ligand_Instance>  (247) 
nan

>  <PDB_ID>  (247) 
nan

>  <Standardized_SMILES>  (247) 
CC(C)(C)OC(=O)CC[C@H](N)C(=O)NCCCn1c(=O)c2cc(F)ccc2n2c(=S)[nH]nc12

>  <Name>  (247) 
nan

>  <Pocket>  (247) 
nan

>  <ATP_Site>  (247) 
nan

>  <Peripheral>  (247) 
nan

>  <Num_H_Atoms_ProtBoundConf>  (247) 
nan

>  <Num_Resolved_Atoms>  (247) 
nan

>  <Num_Not_Resolved_Atoms>  (247) 
nan

$$$$
CHEMBL4104119
     RDKit          3D

  0  0  0  0  0  0  0  0  0  0999 V3000
M  V30 BEGIN CTAB
M  V30 COUNTS 45 47 0 0 0
M  V30 BEGIN ATOM
M  V30 1 C 0.631442 -5.684834 3.131941 0
M  V30 2 N -0.043084 -5.989650 1.878510 0
M  V30 3 C -0.018492 -4.690882 1.256411 0
M  V30 4 C 0.951566 -4.275457 0.393354 0
M  V30 5 C 0.913216 -3.020331 -0.159605 0
M  V30 6 O 1.893675 -2.518027 -1.072567 0
M  V30 7 C 1.629813 -1.176457 -1.421607 0
M  V30 8 C 0.841235 -0.619589 -2.399152 0
M  V30 9 C 0.791430 0.746554 -2.475779 0
M  V30 10 C 1.528753 1.486363 -1.577306 0
M  V30 11 N 1.368368 2.925460 -1.662151 0
M  V30 12 C 0.461024 3.181950 -0.564949 0
M  V30 13 S -0.216894 4.505272 0.078544 0
M  V30 14 N -0.247865 2.558537 0.460739 0
M  V30 15 C -0.967808 1.958144 1.494075 0
M  V30 16 C -0.836736 0.705634 2.090749 0
M  V30 17 C -1.723883 0.361284 3.056273 0
M  V30 18 C -2.705886 1.258399 3.404045 0
M  V30 19 C -2.882604 2.518095 2.844702 0
M  V30 20 C -1.968392 2.858378 1.855923 0
M  V30 21 C 2.342332 0.966444 -0.575127 0
M  V30 22 C 3.052577 1.947611 0.283568 0
M  V30 23 C 2.367654 -0.431268 -0.525526 0
M  V30 24 N -0.134516 -2.213823 0.195192 0
M  V30 25 C -1.082854 -2.621373 1.038273 0
M  V30 26 N -1.057828 -3.857164 1.590175 0
M  V30 27 H 1.634690 -5.311080 2.994722 0
M  V30 28 H 0.717805 -6.679501 3.667283 0
M  V30 29 H -0.025270 -5.025026 3.758023 0
M  V30 30 H -0.399260 -6.936796 1.649197 0
M  V30 31 H 1.766803 -4.897996 0.137252 0
M  V30 32 H 0.354451 -1.380231 -2.978198 0
M  V30 33 H 0.174601 1.135572 -3.239169 0
M  V30 34 H 1.512800 3.855205 -2.025303 0
M  V30 35 H 0.183199 1.719978 0.037868 0
M  V30 36 H 0.003802 0.136188 1.696552 0
M  V30 37 H -1.547723 -0.616914 3.464398 0
M  V30 38 H -3.369735 0.942159 4.153095 0
M  V30 39 H -3.705768 3.101173 3.228545 0
M  V30 40 H -2.209104 3.870485 1.496711 0
M  V30 41 H 4.030884 1.503402 0.557309 0
M  V30 42 H 2.496037 2.029175 1.245014 0
M  V30 43 H 3.138331 2.895736 -0.228045 0
M  V30 44 H 3.034946 -0.742518 0.295521 0
M  V30 45 H -1.848897 -1.851286 1.190665 0
M  V30 END ATOM
M  V30 BEGIN BOND
M  V30 1 1 1 2
M  V30 2 1 2 3
M  V30 3 2 3 4
M  V30 4 1 4 5
M  V30 5 1 5 6
M  V30 6 1 6 7
M  V30 7 2 7 8
M  V30 8 1 8 9
M  V30 9 2 9 10
M  V30 10 1 10 11
M  V30 11 1 11 12
M  V30 12 2 12 13
M  V30 13 1 12 14
M  V30 14 1 14 15
M  V30 15 2 15 16
M  V30 16 1 16 17
M  V30 17 2 17 18
M  V30 18 1 18 19
M  V30 19 2 19 20
M  V30 20 1 10 21
M  V30 21 1 21 22
M  V30 22 2 21 23
M  V30 23 2 5 24
M  V30 24 1 24 25
M  V30 25 2 25 26
M  V30 26 1 26 3
M  V30 27 1 23 7
M  V30 28 1 20 15
M  V30 29 1 1 27
M  V30 30 1 1 28
M  V30 31 1 1 29
M  V30 32 1 2 30
M  V30 33 1 4 31
M  V30 34 1 8 32
M  V30 35 1 9 33
M  V30 36 1 11 34
M  V30 37 1 14 35
M  V30 38 1 16 36
M  V30 39 1 17 37
M  V30 40 1 18 38
M  V30 41 1 19 39
M  V30 42 1 20 40
M  V30 43 1 22 41
M  V30 44 1 22 42
M  V30 45 1 22 43
M  V30 46 1 23 44
M  V30 47 1 25 45
M  V30 END BOND
M  V30 END CTAB
M  END
>  <Dataset>  (248) 
ChEMBL_Kinases

>  <Ligand_Instance>  (248) 
nan

>  <PDB_ID>  (248) 
nan

>  <Standardized_SMILES>  (248) 
CNc1cc(Oc2ccc(NC(=S)Nc3ccccc3)c(C)c2)ncn1

>  <Name>  (248) 
nan

>  <Pocket>  (248) 
nan

>  <ATP_Site>  (248) 
nan

>  <Peripheral>  (248) 
nan

>  <Num_H_Atoms_ProtBoundConf>  (248) 
nan

>  <Num_Resolved_Atoms>  (248) 
nan

>  <Num_Not_Resolved_Atoms>  (248) 
nan

$$$$
CHEMBL4104104
     RDKit          3D

  0  0  0  0  0  0  0  0  0  0999 V3000
M  V30 BEGIN CTAB
M  V30 COUNTS 47 50 0 0 0
M  V30 BEGIN ATOM
M  V30 1 C -0.074065 -2.847844 1.339680 0
M  V30 2 C 0.319574 -3.247765 -0.060613 0
M  V30 3 N 1.679390 -2.951695 -0.373422 0
M  V30 4 N 2.653815 -3.805872 -0.027278 0
M  V30 5 C 3.834216 -3.334650 -0.397074 0
M  V30 6 C 3.639140 -2.118871 -1.014709 0
M  V30 7 N 4.476505 -1.253198 -1.589219 0
M  V30 8 C 4.040169 -0.129924 -2.169987 0
M  V30 9 C 2.659300 0.056765 -2.123699 0
M  V30 10 C 1.727663 -0.815673 -1.532904 0
M  V30 11 N 0.383271 -0.449604 -1.626491 0
M  V30 12 C -0.687971 -0.012993 -0.814151 0
M  V30 13 C -0.619898 0.258736 0.529648 0
M  V30 14 C -1.637860 0.681686 1.351824 0
M  V30 15 C -1.458148 0.942898 2.772997 0
M  V30 16 C -0.303107 0.816366 3.488473 0
M  V30 17 C -0.235057 1.089609 4.839580 0
M  V30 18 C 1.055261 0.931319 5.559995 0
M  V30 19 C -1.366380 1.507366 5.508968 0
M  V30 20 C -2.555693 1.648703 4.823797 0
M  V30 21 C -2.573820 1.363751 3.474508 0
M  V30 22 F -3.772752 1.515968 2.829145 0
M  V30 23 N -2.811156 0.829540 0.715641 0
M  V30 24 C -2.951693 0.581968 -0.597670 0
M  V30 25 C -1.919875 0.158861 -1.404821 0
M  V30 26 C -2.131657 -0.102299 -2.862230 0
M  V30 27 C 2.278042 -1.935747 -0.967974 0
M  V30 28 H -0.026178 -3.743561 2.010301 0
M  V30 29 H -1.110095 -2.455067 1.419728 0
M  V30 30 H 0.646953 -2.124148 1.774802 0
M  V30 31 H -0.399573 -2.851957 -0.815463 0
M  V30 32 H 0.158533 -4.364421 -0.129965 0
M  V30 33 H 4.819479 -3.801383 -0.254487 0
M  V30 34 H 4.669155 0.590374 -2.641604 0
M  V30 35 H 2.304989 0.966017 -2.594549 0
M  V30 36 H 0.195050 -0.574345 -2.652546 0
M  V30 37 H 0.379228 0.109985 0.957973 0
M  V30 38 H 0.573641 0.487905 2.947749 0
M  V30 39 H 1.517268 1.909461 5.802511 0
M  V30 40 H 1.728286 0.302084 4.941945 0
M  V30 41 H 0.919504 0.355331 6.512873 0
M  V30 42 H -1.321756 1.723994 6.569585 0
M  V30 43 H -3.450714 1.977359 5.344761 0
M  V30 44 H -3.928958 0.718243 -1.066550 0
M  V30 45 H -1.393945 0.398361 -3.497846 0
M  V30 46 H -3.152376 0.264008 -3.122518 0
M  V30 47 H -2.185617 -1.209911 -3.057117 0
M  V30 END ATOM
M  V30 BEGIN BOND
M  V30 1 1 1 2
M  V30 2 1 2 3
M  V30 3 1 3 4
M  V30 4 2 4 5
M  V30 5 1 5 6
M  V30 6 2 6 7
M  V30 7 1 7 8
M  V30 8 2 8 9
M  V30 9 1 9 10
M  V30 10 1 10 11
M  V30 11 1 11 12
M  V30 12 2 12 13
M  V30 13 1 13 14
M  V30 14 1 14 15
M  V30 15 2 15 16
M  V30 16 1 16 17
M  V30 17 1 17 18
M  V30 18 2 17 19
M  V30 19 1 19 20
M  V30 20 2 20 21
M  V30 21 1 21 22
M  V30 22 2 14 23
M  V30 23 1 23 24
M  V30 24 2 24 25
M  V30 25 1 25 26
M  V30 26 2 10 27
M  V30 27 1 27 3
M  V30 28 1 27 6
M  V30 29 1 25 12
M  V30 30 1 21 15
M  V30 31 1 1 28
M  V30 32 1 1 29
M  V30 33 1 1 30
M  V30 34 1 2 31
M  V30 35 1 2 32
M  V30 36 1 5 33
M  V30 37 1 8 34
M  V30 38 1 9 35
M  V30 39 1 11 36
M  V30 40 1 13 37
M  V30 41 1 16 38
M  V30 42 1 18 39
M  V30 43 1 18 40
M  V30 44 1 18 41
M  V30 45 1 19 42
M  V30 46 1 20 43
M  V30 47 1 24 44
M  V30 48 1 26 45
M  V30 49 1 26 46
M  V30 50 1 26 47
M  V30 END BOND
M  V30 END CTAB
M  END
>  <Dataset>  (249) 
ChEMBL_Kinases

>  <Ligand_Instance>  (249) 
nan

>  <PDB_ID>  (249) 
nan

>  <Standardized_SMILES>  (249) 
CCn1ncc2nccc(Nc3cc(-c4cc(C)ccc4F)ncc3C)c21

>  <Name>  (249) 
nan

>  <Pocket>  (249) 
nan

>  <ATP_Site>  (249) 
nan

>  <Peripheral>  (249) 
nan

>  <Num_H_Atoms_ProtBoundConf>  (249) 
nan

>  <Num_Resolved_Atoms>  (249) 
nan

>  <Num_Not_Resolved_Atoms>  (249) 
nan

$$$$
CHEMBL4104102
     RDKit          3D

  0  0  0  0  0  0  0  0  0  0999 V3000
M  V30 BEGIN CTAB
M  V30 COUNTS 48 51 0 0 0
M  V30 BEGIN ATOM
M  V30 1 C 1.276593 -5.126987 3.931938 0
M  V30 2 C 2.073049 -4.442742 2.834789 0 CFG=2
M  V30 3 C 2.117645 -2.974527 3.194900 0
M  V30 4 C 2.873305 -2.211189 2.127116 0
M  V30 5 C 2.308955 -2.452791 0.760547 0 CFG=2
M  V30 6 N 1.188097 -1.604559 0.426162 0
M  V30 7 C 1.333172 -0.167768 0.388645 0
M  V30 8 N 2.508023 0.371145 0.662112 0
M  V30 9 C 2.847188 1.651647 0.682603 0
M  V30 10 C 1.831288 2.528130 0.376373 0
M  V30 11 C 1.989959 3.962918 0.342522 0
M  V30 12 N 0.869852 4.774692 0.012708 0
M  V30 13 O 3.151464 4.359222 0.620139 0
M  V30 14 C 0.591410 1.927871 0.089408 0
M  V30 15 S -1.005590 2.819640 -0.366618 0
M  V30 16 C -1.909035 1.299708 -0.519433 0
M  V30 17 C -3.345232 1.203897 -0.882742 0
M  V30 18 C -3.974691 -0.017736 -0.980926 0
M  V30 19 C -5.315875 -0.065545 -1.322201 0
M  V30 20 C -6.004258 1.109254 -1.559353 0
M  V30 21 C -5.350148 2.324400 -1.454523 0
M  V30 22 C -4.022472 2.382009 -1.117217 0
M  V30 23 C -1.034658 0.330144 -0.244753 0
M  V30 24 C 0.245327 0.618921 0.068623 0
M  V30 25 C 1.941136 -3.872812 0.503786 0
M  V30 26 N 1.334004 -4.560243 1.619171 0
M  V30 27 H 1.505242 -6.209359 3.992216 0
M  V30 28 H 0.219230 -4.907111 3.780594 0
M  V30 29 H 1.606947 -4.700514 4.909538 0
M  V30 30 H 3.098317 -4.866015 2.776187 0
M  V30 31 H 1.039477 -2.640251 3.153288 0
M  V30 32 H 2.473072 -2.762888 4.201860 0
M  V30 33 H 2.832429 -1.161056 2.444860 0
M  V30 34 H 3.916669 -2.590018 2.144748 0
M  V30 35 H 3.111771 -2.190739 0.010423 0
M  V30 36 H 0.241121 -2.024533 0.203039 0
M  V30 37 H 3.794060 2.078194 0.903417 0
M  V30 38 H 0.439441 5.230385 -0.812016 0
M  V30 39 H 0.466027 4.844775 0.974472 0
M  V30 40 H -3.391330 -0.907311 -0.785418 0
M  V30 41 H -5.758609 -1.047881 -1.384858 0
M  V30 42 H -7.049837 1.070278 -1.825306 0
M  V30 43 H -5.893403 3.240554 -1.641085 0
M  V30 44 H -3.569788 3.375979 -1.052569 0
M  V30 45 H -1.397661 -0.712683 -0.283740 0
M  V30 46 H 2.863220 -4.423738 0.193379 0
M  V30 47 H 1.285848 -3.892428 -0.385874 0
M  V30 48 H 0.393271 -4.137553 1.783796 0
M  V30 END ATOM
M  V30 BEGIN BOND
M  V30 1 1 1 2
M  V30 2 1 2 3
M  V30 3 1 3 4
M  V30 4 1 4 5
M  V30 5 1 5 6
M  V30 6 1 6 7
M  V30 7 2 7 8
M  V30 8 1 8 9
M  V30 9 2 9 10
M  V30 10 1 10 11
M  V30 11 1 11 12
M  V30 12 2 11 13
M  V30 13 1 10 14
M  V30 14 1 14 15
M  V30 15 1 15 16
M  V30 16 1 16 17
M  V30 17 2 17 18
M  V30 18 1 18 19
M  V30 19 2 19 20
M  V30 20 1 20 21
M  V30 21 2 21 22
M  V30 22 2 16 23
M  V30 23 1 23 24
M  V30 24 1 5 25
M  V30 25 1 25 26
M  V30 26 1 26 2
M  V30 27 1 24 7
M  V30 28 2 24 14
M  V30 29 1 22 17
M  V30 30 1 1 27
M  V30 31 1 1 28
M  V30 32 1 1 29
M  V30 33 1 2 30 CFG=3
M  V30 34 1 3 31
M  V30 35 1 3 32
M  V30 36 1 4 33
M  V30 37 1 4 34
M  V30 38 1 5 35 CFG=3
M  V30 39 1 6 36
M  V30 40 1 9 37
M  V30 41 1 12 38
M  V30 42 1 12 39
M  V30 43 1 18 40
M  V30 44 1 19 41
M  V30 45 1 20 42
M  V30 46 1 21 43
M  V30 47 1 22 44
M  V30 48 1 23 45
M  V30 49 1 25 46
M  V30 50 1 25 47
M  V30 51 1 26 48
M  V30 END BOND
M  V30 END CTAB
M  END
>  <Dataset>  (250) 
ChEMBL_Kinases

>  <Ligand_Instance>  (250) 
nan

>  <PDB_ID>  (250) 
nan

>  <Standardized_SMILES>  (250) 
C[C@@H]1CC[C@H](Nc2ncc(C(N)=O)c3sc(-c4ccccc4)cc23)CN1

>  <Name>  (250) 
nan

>  <Pocket>  (250) 
nan

>  <ATP_Site>  (250) 
nan

>  <Peripheral>  (250) 
nan

>  <Num_H_Atoms_ProtBoundConf>  (250) 
nan

>  <Num_Resolved_Atoms>  (250) 
nan

>  <Num_Not_Resolved_Atoms>  (250) 
nan

$$$$
CHEMBL4104099
     RDKit          3D

  0  0  0  0  0  0  0  0  0  0999 V3000
M  V30 BEGIN CTAB
M  V30 COUNTS 47 50 0 0 0
M  V30 BEGIN ATOM
M  V30 1 O -0.587206 -6.242799 1.869835 0
M  V30 2 C -0.180313 -5.066889 1.720995 0
M  V30 3 N 0.946404 -4.467303 2.343026 0
M  V30 4 C 1.063776 -3.107500 1.899488 0
M  V30 5 C 1.959107 -2.104245 2.190310 0
M  V30 6 C 1.895168 -0.837732 1.647437 0
M  V30 7 C 0.878073 -0.551545 0.761175 0
M  V30 8 C 0.644630 0.721681 0.089855 0
M  V30 9 O -0.246549 1.054098 -0.721486 0
M  V30 10 N 1.513356 1.828597 0.326332 0
M  V30 11 C 1.539644 3.165112 -0.170480 0 CFG=2
M  V30 12 C 2.786922 3.568886 -0.889268 0
M  V30 13 O 2.984214 2.753626 -1.983801 0
M  V30 14 C 1.260403 4.113693 0.966488 0
M  V30 15 C 1.911131 5.278389 1.300088 0
M  V30 16 C 1.474757 5.990546 2.397885 0
M  V30 17 C 0.393491 5.543291 3.160952 0
M  V30 18 C -0.246991 4.374022 2.812190 0
M  V30 19 C 0.178604 3.653416 1.718549 0
M  V30 20 C -0.052387 -1.548916 0.441460 0
M  V30 21 C 0.047863 -2.806301 1.008446 0
M  V30 22 C -0.746469 -4.022554 0.881743 0
M  V30 23 C -1.834451 -4.217984 0.159602 0
M  V30 24 C -2.676548 -5.381380 0.017259 0
M  V30 25 C -3.139800 -5.994057 -1.154403 0
M  V30 26 C -3.949128 -7.047443 -0.821775 0
M  V30 27 C -3.997225 -7.100650 0.559776 0
M  V30 28 N -3.229386 -6.094936 1.025141 0
M  V30 29 H 1.567711 -4.983808 3.018303 0
M  V30 30 H 2.765445 -2.303776 2.882568 0
M  V30 31 H 2.587380 -0.038255 1.863175 0
M  V30 32 H 2.346597 1.777638 0.985545 0
M  V30 33 H 0.687816 3.290153 -0.874117 0
M  V30 34 H 2.626188 4.600325 -1.261946 0
M  V30 35 H 3.675464 3.637969 -0.229796 0
M  V30 36 H 2.551126 3.174927 -2.766618 0
M  V30 37 H 2.725612 5.507185 0.631411 0
M  V30 38 H 2.030879 6.902144 2.608320 0
M  V30 39 H 0.096816 6.158578 4.023438 0
M  V30 40 H -1.079872 4.126329 3.482491 0
M  V30 41 H -0.397431 2.751243 1.537658 0
M  V30 42 H -0.879455 -1.366044 -0.259698 0
M  V30 43 H -2.195929 -3.381074 -0.451322 0
M  V30 44 H -2.889955 -5.673243 -2.154931 0
M  V30 45 H -4.422875 -7.669868 -1.552286 0
M  V30 46 H -4.589539 -7.872109 1.020530 0
M  V30 47 H -3.206979 -6.035710 2.062051 0
M  V30 END ATOM
M  V30 BEGIN BOND
M  V30 1 2 1 2
M  V30 2 1 2 3
M  V30 3 1 3 4
M  V30 4 2 4 5
M  V30 5 1 5 6
M  V30 6 2 6 7
M  V30 7 1 7 8
M  V30 8 2 8 9
M  V30 9 1 8 10
M  V30 10 1 10 11
M  V30 11 1 11 12
M  V30 12 1 12 13
M  V30 13 1 11 14
M  V30 14 2 14 15
M  V30 15 1 15 16
M  V30 16 2 16 17
M  V30 17 1 17 18
M  V30 18 2 18 19
M  V30 19 1 7 20
M  V30 20 2 20 21
M  V30 21 1 21 22
M  V30 22 2 22 23
M  V30 23 1 23 24
M  V30 24 2 24 25
M  V30 25 1 25 26
M  V30 26 2 26 27
M  V30 27 1 27 28
M  V30 28 1 22 2
M  V30 29 1 28 24
M  V30 30 1 21 4
M  V30 31 1 19 14
M  V30 32 1 3 29
M  V30 33 1 5 30
M  V30 34 1 6 31
M  V30 35 1 10 32
M  V30 36 1 11 33 CFG=3
M  V30 37 1 12 34
M  V30 38 1 12 35
M  V30 39 1 13 36
M  V30 40 1 15 37
M  V30 41 1 16 38
M  V30 42 1 17 39
M  V30 43 1 18 40
M  V30 44 1 19 41
M  V30 45 1 20 42
M  V30 46 1 23 43
M  V30 47 1 25 44
M  V30 48 1 26 45
M  V30 49 1 27 46
M  V30 50 1 28 47
M  V30 END BOND
M  V30 END CTAB
M  END
>  <Dataset>  (251) 
ChEMBL_Kinases

>  <Ligand_Instance>  (251) 
nan

>  <PDB_ID>  (251) 
nan

>  <Standardized_SMILES>  (251) 
O=C1Nc2ccc(C(=O)N[C@H](CO)c3ccccc3)cc2/C1=C/c1ccc[nH]1

>  <Name>  (251) 
nan

>  <Pocket>  (251) 
nan

>  <ATP_Site>  (251) 
nan

>  <Peripheral>  (251) 
nan

>  <Num_H_Atoms_ProtBoundConf>  (251) 
nan

>  <Num_Resolved_Atoms>  (251) 
nan

>  <Num_Not_Resolved_Atoms>  (251) 
nan

$$$$
CHEMBL4104093
     RDKit          3D

  0  0  0  0  0  0  0  0  0  0999 V3000
M  V30 BEGIN CTAB
M  V30 COUNTS 47 51 0 0 0
M  V30 BEGIN ATOM
M  V30 1 C 4.527187 -6.074748 2.728302 0
M  V30 2 C 5.086956 -4.738514 2.401830 0
M  V30 3 O 6.303823 -4.419239 2.398024 0
M  V30 4 C 4.123474 -3.714975 2.056382 0
M  V30 5 C 2.787545 -3.718817 1.965894 0
M  V30 6 C 2.094831 -2.599700 1.612875 0
M  V30 7 C 2.890672 -1.469089 1.358712 0
M  V30 8 C 2.544447 -0.091471 0.958798 0
M  V30 9 C 3.583658 0.790841 0.789126 0
M  V30 10 C 3.381076 2.088666 0.420860 0
M  V30 11 C 2.089283 2.494183 0.221405 0
M  V30 12 N 1.891570 3.785889 -0.141799 0
M  V30 13 C 0.651057 4.256480 -0.352629 0
M  V30 14 C -0.380489 3.361166 -0.179682 0
M  V30 15 N -1.699926 3.548221 -0.320020 0
M  V30 16 N -2.277104 2.399992 -0.048979 0
M  V30 17 N -1.432906 1.437597 0.268580 0
M  V30 18 C -1.849617 0.101613 0.598574 0 CFG=1
M  V30 19 C -1.965500 -0.179434 2.066533 0
M  V30 20 C -3.291076 -0.014431 0.087790 0
M  V30 21 C -3.599763 -0.593037 -1.139337 0
M  V30 22 C -4.890557 -0.680231 -1.576319 0
M  V30 23 C -5.895431 -0.191780 -0.796739 0
M  V30 24 F -7.189800 -0.264893 -1.205971 0
M  V30 25 C -5.569866 0.374685 0.409233 0
M  V30 26 C -4.286193 0.488958 0.899136 0
M  V30 27 C -0.249312 2.045270 0.185438 0
M  V30 28 C 1.038631 1.624849 0.386472 0
M  V30 29 C 1.251934 0.325348 0.756285 0
M  V30 30 S 4.577034 -2.037812 1.629536 0
M  V30 31 H 5.297511 -6.743625 3.150785 0
M  V30 32 H 3.677031 -5.993201 3.463364 0
M  V30 33 H 4.054767 -6.519042 1.820676 0
M  V30 34 H 2.270009 -4.649926 2.184641 0
M  V30 35 H 1.025184 -2.495495 1.511118 0
M  V30 36 H 4.607371 0.491158 0.940885 0
M  V30 37 H 4.187853 2.782086 0.286956 0
M  V30 38 H 0.431663 5.291175 -0.647466 0
M  V30 39 H -1.354891 -0.710676 0.041772 0
M  V30 40 H -1.239541 -0.992986 2.363232 0
M  V30 41 H -1.782628 0.717839 2.691951 0
M  V30 42 H -2.950562 -0.596029 2.359860 0
M  V30 43 H -2.792698 -0.975103 -1.744831 0
M  V30 44 H -5.103187 -1.135566 -2.535844 0
M  V30 45 H -6.402191 0.753469 1.003043 0
M  V30 46 H -4.147365 0.956960 1.863725 0
M  V30 47 H 0.566117 -0.460896 0.929419 0
M  V30 END ATOM
M  V30 BEGIN BOND
M  V30 1 1 1 2
M  V30 2 2 2 3
M  V30 3 1 2 4
M  V30 4 2 4 5
M  V30 5 1 5 6
M  V30 6 2 6 7
M  V30 7 1 7 8
M  V30 8 2 8 9
M  V30 9 1 9 10
M  V30 10 2 10 11
M  V30 11 1 11 12
M  V30 12 2 12 13
M  V30 13 1 13 14
M  V30 14 1 14 15
M  V30 15 2 15 16
M  V30 16 1 16 17
M  V30 17 1 17 18
M  V30 18 1 18 19
M  V30 19 1 18 20
M  V30 20 2 20 21
M  V30 21 1 21 22
M  V30 22 2 22 23
M  V30 23 1 23 24
M  V30 24 1 23 25
M  V30 25 2 25 26
M  V30 26 1 17 27
M  V30 27 1 27 28
M  V30 28 2 28 29
M  V30 29 1 7 30
M  V30 30 1 30 4
M  V30 31 1 29 8
M  V30 32 1 28 11
M  V30 33 2 27 14
M  V30 34 1 26 20
M  V30 35 1 1 31
M  V30 36 1 1 32
M  V30 37 1 1 33
M  V30 38 1 5 34
M  V30 39 1 6 35
M  V30 40 1 9 36
M  V30 41 1 10 37
M  V30 42 1 13 38
M  V30 43 1 18 39 CFG=3
M  V30 44 1 19 40
M  V30 45 1 19 41
M  V30 46 1 19 42
M  V30 47 1 21 43
M  V30 48 1 22 44
M  V30 49 1 25 45
M  V30 50 1 26 46
M  V30 51 1 29 47
M  V30 END BOND
M  V30 END CTAB
M  END
>  <Dataset>  (252) 
ChEMBL_Kinases

>  <Ligand_Instance>  (252) 
nan

>  <PDB_ID>  (252) 
nan

>  <Standardized_SMILES>  (252) 
CC(=O)c1ccc(-c2ccc3ncc4nnn([C@@H](C)c5ccc(F)cc5)c4c3c2)s1

>  <Name>  (252) 
nan

>  <Pocket>  (252) 
nan

>  <ATP_Site>  (252) 
nan

>  <Peripheral>  (252) 
nan

>  <Num_H_Atoms_ProtBoundConf>  (252) 
nan

>  <Num_Resolved_Atoms>  (252) 
nan

>  <Num_Not_Resolved_Atoms>  (252) 
nan

$$$$
CHEMBL4104076
     RDKit          3D

  0  0  0  0  0  0  0  0  0  0999 V3000
M  V30 BEGIN CTAB
M  V30 COUNTS 27 29 0 0 0
M  V30 BEGIN ATOM
M  V30 1 N -2.120522 -2.954053 1.983672 0
M  V30 2 C -1.077499 -2.878432 1.489589 0
M  V30 3 C 0.219271 -2.806750 0.888726 0
M  V30 4 C 1.030690 -3.916414 0.742203 0
M  V30 5 N 2.195201 -3.525358 0.159643 0
M  V30 6 C 2.166804 -2.201060 -0.076536 0
M  V30 7 N 3.031456 -1.304826 -0.608649 0
M  V30 8 C 2.662108 0.009313 -0.680843 0
M  V30 9 N 3.591524 0.927649 -1.243896 0
M  V30 10 N 1.458723 0.410834 -0.232155 0
M  V30 11 C 0.545414 -0.447233 0.313183 0
M  V30 12 C -0.689182 0.184342 0.740492 0
M  V30 13 C -0.473166 1.288079 1.576533 0
M  V30 14 C -1.491127 2.076596 2.098097 0
M  V30 15 C -2.783734 1.763109 1.781076 0
M  V30 16 C -3.021369 0.694773 0.969457 0
M  V30 17 C -2.006200 -0.064874 0.468773 0
M  V30 18 C 0.943567 -1.758032 0.374071 0
M  V30 19 H 0.808421 -4.934013 1.030369 0
M  V30 20 H 3.009844 -4.134280 -0.082240 0
M  V30 21 H 4.281435 1.608811 -0.821862 0
M  V30 22 H 4.185070 1.513501 -0.616719 0
M  V30 23 H 0.525894 1.624691 1.891776 0
M  V30 24 H -1.307448 2.916845 2.735829 0
M  V30 25 H -3.651238 2.287116 2.115702 0
M  V30 26 H -4.027569 0.373863 0.665323 0
M  V30 27 H -2.160706 -0.898561 -0.183379 0
M  V30 END ATOM
M  V30 BEGIN BOND
M  V30 1 3 1 2
M  V30 2 1 2 3
M  V30 3 2 3 4
M  V30 4 1 4 5
M  V30 5 1 5 6
M  V30 6 2 6 7
M  V30 7 1 7 8
M  V30 8 1 8 9
M  V30 9 2 8 10
M  V30 10 1 10 11
M  V30 11 1 11 12
M  V30 12 2 12 13
M  V30 13 1 13 14
M  V30 14 2 14 15
M  V30 15 1 15 16
M  V30 16 2 16 17
M  V30 17 2 11 18
M  V30 18 1 18 3
M  V30 19 1 18 6
M  V30 20 1 17 12
M  V30 21 1 4 19
M  V30 22 1 5 20
M  V30 23 1 9 21
M  V30 24 1 9 22
M  V30 25 1 13 23
M  V30 26 1 14 24
M  V30 27 1 15 25
M  V30 28 1 16 26
M  V30 29 1 17 27
M  V30 END BOND
M  V30 END CTAB
M  END
>  <Dataset>  (253) 
ChEMBL_Kinases

>  <Ligand_Instance>  (253) 
nan

>  <PDB_ID>  (253) 
nan

>  <Standardized_SMILES>  (253) 
N#Cc1c[nH]c2nc(N)nc(-c3ccccc3)c12

>  <Name>  (253) 
nan

>  <Pocket>  (253) 
nan

>  <ATP_Site>  (253) 
nan

>  <Peripheral>  (253) 
nan

>  <Num_H_Atoms_ProtBoundConf>  (253) 
nan

>  <Num_Resolved_Atoms>  (253) 
nan

>  <Num_Not_Resolved_Atoms>  (253) 
nan

$$$$
CHEMBL4794655
     RDKit          3D

  0  0  0  0  0  0  0  0  0  0999 V3000
M  V30 BEGIN CTAB
M  V30 COUNTS 55 59 0 0 0
M  V30 BEGIN ATOM
M  V30 1 C -0.873855 5.089752 5.837824 0
M  V30 2 C -0.001735 3.886942 5.695760 0
M  V30 3 N 0.518483 3.201642 6.725045 0
M  V30 4 C 1.299065 2.125432 6.535465 0
M  V30 5 Cl 1.969334 1.242306 7.885710 0
M  V30 6 C 1.601846 1.674766 5.265803 0
M  V30 7 C 1.054882 2.396489 4.225747 0
M  V30 8 N 1.286487 2.045005 2.873081 0
M  V30 9 C 2.407893 2.665599 2.250943 0
M  V30 10 C 3.269139 3.563851 2.841864 0
M  V30 11 N 4.227470 3.960379 1.970058 0
M  V30 12 N 3.981638 3.322082 0.832924 0
M  V30 13 C 2.898970 2.538932 0.967853 0
M  V30 14 C 2.322627 1.684698 -0.063892 0
M  V30 15 N 1.249295 0.905323 0.068650 0
M  V30 16 C 0.944734 0.230528 -1.043396 0
M  V30 17 C -0.087835 -0.719247 -1.437687 0
M  V30 18 C -0.174001 -1.278575 -2.695423 0
M  V30 19 C -1.153626 -2.165829 -3.009115 0
M  V30 20 C -2.083344 -2.505878 -2.023389 0
M  V30 21 C -3.129384 -3.463786 -2.391593 0
M  V30 22 N -2.842817 -4.833481 -2.218014 0
M  V30 23 C -2.512313 -5.303249 -0.924649 0
M  V30 24 C -1.293362 -6.194608 -1.055295 0
M  V30 25 O -1.589764 -7.287281 -1.844178 0
M  V30 26 C -2.270255 -6.991876 -2.998739 0
M  V30 27 C -2.255730 -5.503620 -3.322646 0
M  V30 28 C -1.991725 -1.941406 -0.763931 0
M  V30 29 C -0.993989 -1.039731 -0.449820 0
M  V30 30 C 1.939455 0.656610 -1.915910 0
M  V30 31 N 2.785927 1.544532 -1.327819 0
M  V30 32 N 0.282256 3.462702 4.445302 0
M  V30 33 H -1.852882 4.858417 5.401268 0
M  V30 34 H -1.029166 5.310809 6.920475 0
M  V30 35 H -0.441840 5.965059 5.307108 0
M  V30 36 H 2.222680 0.818302 5.098287 0
M  V30 37 H 0.694147 1.378242 2.336285 0
M  V30 38 H 3.225127 3.931622 3.859405 0
M  V30 39 H 5.032711 4.613359 2.048095 0
M  V30 40 H 0.579513 -0.964199 -3.395384 0
M  V30 41 H -1.201150 -2.590654 -4.000849 0
M  V30 42 H -3.382204 -3.329299 -3.485462 0
M  V30 43 H -4.112607 -3.266023 -1.886463 0
M  V30 44 H -2.419103 -4.564646 -0.131764 0
M  V30 45 H -3.336160 -5.991675 -0.592111 0
M  V30 46 H -0.969449 -6.549199 -0.061530 0
M  V30 47 H -0.451851 -5.669108 -1.557040 0
M  V30 48 H -3.332549 -7.271663 -2.832595 0
M  V30 49 H -1.925401 -7.590589 -3.873355 0
M  V30 50 H -2.922335 -5.394074 -4.207093 0
M  V30 51 H -1.244429 -5.147577 -3.596117 0
M  V30 52 H -2.704334 -2.193951 0.008516 0
M  V30 53 H -0.951249 -0.618664 0.540536 0
M  V30 54 H 2.081453 0.353911 -2.961660 0
M  V30 55 H 3.600393 2.001659 -1.767835 0
M  V30 END ATOM
M  V30 BEGIN BOND
M  V30 1 1 1 2
M  V30 2 2 2 3
M  V30 3 1 3 4
M  V30 4 1 4 5
M  V30 5 2 4 6
M  V30 6 1 6 7
M  V30 7 1 7 8
M  V30 8 1 8 9
M  V30 9 2 9 10
M  V30 10 1 10 11
M  V30 11 1 11 12
M  V30 12 2 12 13
M  V30 13 1 13 14
M  V30 14 2 14 15
M  V30 15 1 15 16
M  V30 16 1 16 17
M  V30 17 2 17 18
M  V30 18 1 18 19
M  V30 19 2 19 20
M  V30 20 1 20 21
M  V30 21 1 21 22
M  V30 22 1 22 23
M  V30 23 1 23 24
M  V30 24 1 24 25
M  V30 25 1 25 26
M  V30 26 1 26 27
M  V30 27 1 20 28
M  V30 28 2 28 29
M  V30 29 2 16 30
M  V30 30 1 30 31
M  V30 31 2 7 32
M  V30 32 1 32 2
M  V30 33 1 13 9
M  V30 34 1 31 14
M  V30 35 1 29 17
M  V30 36 1 27 22
M  V30 37 1 1 33
M  V30 38 1 1 34
M  V30 39 1 1 35
M  V30 40 1 6 36
M  V30 41 1 8 37
M  V30 42 1 10 38
M  V30 43 1 11 39
M  V30 44 1 18 40
M  V30 45 1 19 41
M  V30 46 1 21 42
M  V30 47 1 21 43
M  V30 48 1 23 44
M  V30 49 1 23 45
M  V30 50 1 24 46
M  V30 51 1 24 47
M  V30 52 1 26 48
M  V30 53 1 26 49
M  V30 54 1 27 50
M  V30 55 1 27 51
M  V30 56 1 28 52
M  V30 57 1 29 53
M  V30 58 1 30 54
M  V30 59 1 31 55
M  V30 END BOND
M  V30 END CTAB
M  END
>  <Dataset>  (254) 
ChEMBL_Kinases

>  <Ligand_Instance>  (254) 
nan

>  <PDB_ID>  (254) 
nan

>  <Standardized_SMILES>  (254) 
Cc1nc(Cl)cc(Nc2c[nH]nc2-c2nc(-c3ccc(CN4CCOCC4)cc3)c[nH]2)n1

>  <Name>  (254) 
nan

>  <Pocket>  (254) 
nan

>  <ATP_Site>  (254) 
nan

>  <Peripheral>  (254) 
nan

>  <Num_H_Atoms_ProtBoundConf>  (254) 
nan

>  <Num_Resolved_Atoms>  (254) 
nan

>  <Num_Not_Resolved_Atoms>  (254) 
nan

$$$$
CHEMBL4795513
     RDKit          3D

  0  0  0  0  0  0  0  0  0  0999 V3000
M  V30 BEGIN CTAB
M  V30 COUNTS 76 81 0 0 0
M  V30 BEGIN ATOM
M  V30 1 C 4.501902 -1.437308 -2.539546 0
M  V30 2 C 5.161737 -0.122772 -2.891530 0
M  V30 3 C 5.266495 0.778470 -1.669971 0 CFG=2
M  V30 4 C 6.069690 0.097365 -0.629231 0
M  V30 5 N 7.323314 -0.363132 -0.782859 0
M  V30 6 N 7.743607 -0.920957 0.311034 0
M  V30 7 C 6.755957 -0.833251 1.215594 0
M  V30 8 N 5.723650 -0.202085 0.627574 0
M  V30 9 C 4.426143 0.197554 1.044811 0
M  V30 10 C 4.069046 -0.119548 2.336155 0
M  V30 11 N 2.836516 0.256045 2.723164 0
M  V30 12 C 2.000304 0.915870 1.866072 0
M  V30 13 N 0.763850 1.195219 2.507628 0
M  V30 14 C -0.386890 0.373136 2.347945 0
M  V30 15 C -0.308855 -0.710316 1.488173 0
M  V30 16 C -1.407082 -1.550140 1.274583 0
M  V30 17 C -2.605585 -1.295923 1.937549 0
M  V30 18 C -3.825648 -2.082004 1.802865 0
M  V30 19 O -4.856887 -1.854987 2.485980 0
M  V30 20 N -3.989292 -3.159798 0.914970 0
M  V30 21 C -5.179955 -3.951863 0.765973 0
M  V30 22 C -4.787440 -5.392361 0.997408 0
M  V30 23 C -5.782092 -6.384980 0.453270 0
M  V30 24 N -6.113112 -6.174321 -0.939783 0
M  V30 25 C -7.545785 -6.017287 -1.103622 0
M  V30 26 C -5.490351 -4.943368 -1.439520 0
M  V30 27 C -5.911276 -3.847230 -0.506433 0
M  V30 28 C -2.642941 -0.205015 2.787531 0
M  V30 29 C -1.569927 0.633255 3.009467 0
M  V30 30 O -1.664074 1.721491 3.878646 0
M  V30 31 C -2.866218 2.015244 4.572107 0
M  V30 32 N 2.426474 1.186630 0.622399 0
M  V30 33 C 3.624984 0.855689 0.150235 0
M  V30 34 N 3.961929 1.189429 -1.180749 0
M  V30 35 C 3.111241 1.913241 -2.103460 0
M  V30 36 C 2.760147 3.271873 -1.685932 0
M  V30 37 C 1.647921 3.730242 -1.018233 0
M  V30 38 C 1.432758 5.042395 -0.667892 0
M  V30 39 C 2.368873 5.998510 -0.987660 0
M  V30 40 Cl 2.182750 7.689144 -0.582755 0
M  V30 41 C 3.513311 5.611436 -1.659609 0
M  V30 42 C 3.685379 4.282553 -1.990322 0
M  V30 43 H 4.097588 -1.414976 -1.522890 0
M  V30 44 H 5.253709 -2.274325 -2.571506 0
M  V30 45 H 3.759063 -1.703331 -3.313905 0
M  V30 46 H 4.690698 0.392290 -3.750796 0
M  V30 47 H 6.203424 -0.338195 -3.198080 0
M  V30 48 H 5.783098 1.702288 -2.008373 0
M  V30 49 H 6.751826 -1.186442 2.224125 0
M  V30 50 H 4.753279 -0.648147 3.011587 0
M  V30 51 H 0.704472 2.055179 3.129748 0
M  V30 52 H 0.583815 -0.990592 0.925123 0
M  V30 53 H -1.387241 -2.401901 0.614511 0
M  V30 54 H -3.172124 -3.432460 0.287945 0
M  V30 55 H -5.884681 -3.636659 1.586119 0
M  V30 56 H -3.781272 -5.615726 0.545960 0
M  V30 57 H -4.659301 -5.618743 2.072247 0
M  V30 58 H -6.671825 -6.483140 1.089589 0
M  V30 59 H -5.250355 -7.380710 0.503163 0
M  V30 60 H -7.767218 -5.185890 -1.799854 0
M  V30 61 H -8.067665 -5.776903 -0.147283 0
M  V30 62 H -8.030030 -6.957266 -1.453496 0
M  V30 63 H -5.794337 -4.760834 -2.484486 0
M  V30 64 H -4.399634 -5.145566 -1.435763 0
M  V30 65 H -5.952394 -2.836217 -0.958488 0
M  V30 66 H -7.000427 -4.059342 -0.284128 0
M  V30 67 H -3.536202 0.047673 3.332227 0
M  V30 68 H -3.260799 1.160305 5.134076 0
M  V30 69 H -2.638345 2.810471 5.317079 0
M  V30 70 H -3.682327 2.358034 3.907414 0
M  V30 71 H 2.197511 1.299749 -2.343810 0
M  V30 72 H 3.629046 1.996716 -3.086214 0
M  V30 73 H 0.907364 2.986612 -0.775510 0
M  V30 74 H 0.532262 5.323163 -0.142781 0
M  V30 75 H 4.286700 6.331498 -1.934742 0
M  V30 76 H 4.610359 4.017412 -2.523384 0
M  V30 END ATOM
M  V30 BEGIN BOND
M  V30 1 1 1 2
M  V30 2 1 2 3
M  V30 3 1 3 4
M  V30 4 2 4 5
M  V30 5 1 5 6
M  V30 6 2 6 7
M  V30 7 1 7 8
M  V30 8 1 8 9
M  V30 9 2 9 10
M  V30 10 1 10 11
M  V30 11 2 11 12
M  V30 12 1 12 13
M  V30 13 1 13 14
M  V30 14 2 14 15
M  V30 15 1 15 16
M  V30 16 2 16 17
M  V30 17 1 17 18
M  V30 18 2 18 19
M  V30 19 1 18 20
M  V30 20 1 20 21
M  V30 21 1 21 22
M  V30 22 1 22 23
M  V30 23 1 23 24
M  V30 24 1 24 25
M  V30 25 1 24 26
M  V30 26 1 26 27
M  V30 27 1 17 28
M  V30 28 2 28 29
M  V30 29 1 29 30
M  V30 30 1 30 31
M  V30 31 1 12 32
M  V30 32 2 32 33
M  V30 33 1 33 34
M  V30 34 1 34 35
M  V30 35 1 35 36
M  V30 36 2 36 37
M  V30 37 1 37 38
M  V30 38 2 38 39
M  V30 39 1 39 40
M  V30 40 1 39 41
M  V30 41 2 41 42
M  V30 42 1 34 3
M  V30 43 1 42 36
M  V30 44 1 8 4
M  V30 45 1 33 9
M  V30 46 1 29 14
M  V30 47 1 27 21
M  V30 48 1 1 43
M  V30 49 1 1 44
M  V30 50 1 1 45
M  V30 51 1 2 46
M  V30 52 1 2 47
M  V30 53 1 3 48 CFG=3
M  V30 54 1 7 49
M  V30 55 1 10 50
M  V30 56 1 13 51
M  V30 57 1 15 52
M  V30 58 1 16 53
M  V30 59 1 20 54
M  V30 60 1 21 55
M  V30 61 1 22 56
M  V30 62 1 22 57
M  V30 63 1 23 58
M  V30 64 1 23 59
M  V30 65 1 25 60
M  V30 66 1 25 61
M  V30 67 1 25 62
M  V30 68 1 26 63
M  V30 69 1 26 64
M  V30 70 1 27 65
M  V30 71 1 27 66
M  V30 72 1 28 67
M  V30 73 1 31 68
M  V30 74 1 31 69
M  V30 75 1 31 70
M  V30 76 1 35 71
M  V30 77 1 35 72
M  V30 78 1 37 73
M  V30 79 1 38 74
M  V30 80 1 41 75
M  V30 81 1 42 76
M  V30 END BOND
M  V30 END CTAB
M  END
>  <Dataset>  (255) 
ChEMBL_Kinases

>  <Ligand_Instance>  (255) 
nan

>  <PDB_ID>  (255) 
nan

>  <Standardized_SMILES>  (255) 
CC[C@@H]1c2nncn2-c2cnc(Nc3ccc(C(=O)NC4CCN(C)CC4)cc3OC)nc2N1Cc1ccc(Cl)cc1

>  <Name>  (255) 
nan

>  <Pocket>  (255) 
nan

>  <ATP_Site>  (255) 
nan

>  <Peripheral>  (255) 
nan

>  <Num_H_Atoms_ProtBoundConf>  (255) 
nan

>  <Num_Resolved_Atoms>  (255) 
nan

>  <Num_Not_Resolved_Atoms>  (255) 
nan

$$$$
CHEMBL4103971
     RDKit          3D

  0  0  0  0  0  0  0  0  0  0999 V3000
M  V30 BEGIN CTAB
M  V30 COUNTS 33 34 0 0 0
M  V30 BEGIN ATOM
M  V30 1 O -0.279036 0.278346 3.000041 0
M  V30 2 C 0.662892 0.070356 2.158122 0
M  V30 3 C 1.768616 -0.519082 2.904449 0
M  V30 4 N 2.939423 -0.847282 2.142709 0
M  V30 5 C 2.990169 -1.810827 1.100083 0
M  V30 6 C 1.908754 -2.563804 0.697937 0
M  V30 7 C 1.897096 -3.514003 -0.297556 0
M  V30 8 C 3.071634 -3.746609 -0.965923 0
M  V30 9 C 4.195911 -3.033351 -0.621027 0
M  V30 10 C 4.140663 -2.097507 0.383496 0
M  V30 11 Cl 5.612786 -1.208311 0.788043 0
M  V30 12 N 0.436283 0.431452 0.800942 0
M  V30 13 N -0.810549 0.988743 0.487275 0
M  V30 14 C -1.844786 0.259054 0.225722 0
M  V30 15 C -3.126879 0.891584 -0.096741 0
M  V30 16 C -4.265580 0.161514 -0.384635 0
M  V30 17 C -5.478884 0.734913 -0.689817 0
M  V30 18 N -5.559565 2.060177 -0.708611 0
M  V30 19 C -4.475310 2.796060 -0.434436 0
M  V30 20 C -3.220075 2.268287 -0.118629 0
M  V30 21 H 1.411703 -1.501684 3.332892 0
M  V30 22 H 2.066921 0.069527 3.799491 0
M  V30 23 H 3.848932 -0.354722 2.345712 0
M  V30 24 H 0.946786 -2.409245 1.207510 0
M  V30 25 H 0.990772 -4.056720 -0.541639 0
M  V30 26 H 3.049672 -4.494628 -1.745003 0
M  V30 27 H 5.107470 -3.233762 -1.160668 0
M  V30 28 H 1.295641 0.205853 0.242419 0
M  V30 29 H -1.777625 -0.821175 0.241405 0
M  V30 30 H -4.224644 -0.928511 -0.375592 0
M  V30 31 H -6.369719 0.169391 -0.915029 0
M  V30 32 H -4.596643 3.870025 -0.463765 0
M  V30 33 H -2.371848 2.903872 0.095933 0
M  V30 END ATOM
M  V30 BEGIN BOND
M  V30 1 2 1 2
M  V30 2 1 2 3
M  V30 3 1 3 4
M  V30 4 1 4 5
M  V30 5 2 5 6
M  V30 6 1 6 7
M  V30 7 2 7 8
M  V30 8 1 8 9
M  V30 9 2 9 10
M  V30 10 1 10 11
M  V30 11 1 2 12
M  V30 12 1 12 13
M  V30 13 2 13 14
M  V30 14 1 14 15
M  V30 15 2 15 16
M  V30 16 1 16 17
M  V30 17 2 17 18
M  V30 18 1 18 19
M  V30 19 2 19 20
M  V30 20 1 10 5
M  V30 21 1 20 15
M  V30 22 1 3 21
M  V30 23 1 3 22
M  V30 24 1 4 23
M  V30 25 1 6 24
M  V30 26 1 7 25
M  V30 27 1 8 26
M  V30 28 1 9 27
M  V30 29 1 12 28
M  V30 30 1 14 29
M  V30 31 1 16 30
M  V30 32 1 17 31
M  V30 33 1 19 32
M  V30 34 1 20 33
M  V30 END BOND
M  V30 END CTAB
M  END
>  <Dataset>  (256) 
ChEMBL_Kinases

>  <Ligand_Instance>  (256) 
nan

>  <PDB_ID>  (256) 
nan

>  <Standardized_SMILES>  (256) 
O=C(CNc1ccccc1Cl)N/N=C/c1ccncc1

>  <Name>  (256) 
nan

>  <Pocket>  (256) 
nan

>  <ATP_Site>  (256) 
nan

>  <Peripheral>  (256) 
nan

>  <Num_H_Atoms_ProtBoundConf>  (256) 
nan

>  <Num_Resolved_Atoms>  (256) 
nan

>  <Num_Not_Resolved_Atoms>  (256) 
nan

$$$$
CHEMBL4103963
     RDKit          3D

  0  0  0  0  0  0  0  0  0  0999 V3000
M  V30 BEGIN CTAB
M  V30 COUNTS 54 55 0 0 0
M  V30 BEGIN ATOM
M  V30 1 C 2.624202 -0.134756 8.376808 0
M  V30 2 C 1.251477 -0.186914 7.752886 0
M  V30 3 C 1.244552 0.507178 6.396458 0
M  V30 4 C 2.209057 -0.148147 5.446037 0
M  V30 5 C 2.194435 0.551708 4.094150 0
M  V30 6 C 3.165571 -0.120186 3.161608 0
M  V30 7 C 3.216418 0.511791 1.790780 0
M  V30 8 C 1.830883 0.404583 1.210045 0
M  V30 9 O 0.658482 -0.017771 1.451611 0
M  V30 10 N 1.760269 0.980679 -0.104997 0
M  V30 11 N 0.535064 0.955690 -0.773114 0
M  V30 12 C 0.356962 -0.209924 -1.561832 0
M  V30 13 O 1.408866 -0.927806 -1.428531 0
M  V30 14 C -0.772681 -0.592299 -2.391464 0
M  V30 15 C -1.964472 0.046093 -2.646763 0
M  V30 16 O -2.108576 1.260714 -2.001375 0
M  V30 17 C -2.940830 -0.465566 -3.471080 0
M  V30 18 C -4.072026 0.310949 -3.608748 0
M  V30 19 C -5.083025 -0.162987 -4.425266 0
M  V30 20 C -4.899770 -1.381763 -5.051827 0
M  V30 21 Cl -6.171207 -1.993852 -6.087902 0
M  V30 22 C -3.749473 -2.124024 -4.883722 0
M  V30 23 C -2.720601 -1.683904 -4.078197 0
M  V30 24 N -1.562495 -2.324948 -3.842818 0
M  V30 25 C -1.357346 -3.596344 -4.500790 0
M  V30 26 C -1.876331 -4.770432 -3.691580 0
M  V30 27 C -0.614164 -1.818936 -3.036547 0
M  V30 28 O 0.436547 -2.524653 -2.896496 0
M  V30 29 H 3.190442 -1.021458 7.975230 0
M  V30 30 H 2.557199 -0.290356 9.474298 0
M  V30 31 H 3.147515 0.813701 8.145119 0
M  V30 32 H 0.926373 -1.230249 7.557205 0
M  V30 33 H 0.507191 0.291522 8.419056 0
M  V30 34 H 1.481855 1.567893 6.583782 0
M  V30 35 H 0.235359 0.441748 5.962865 0
M  V30 36 H 1.832172 -1.185234 5.257870 0
M  V30 37 H 3.239985 -0.158864 5.810005 0
M  V30 38 H 2.497034 1.618556 4.259316 0
M  V30 39 H 1.184909 0.527781 3.658801 0
M  V30 40 H 2.876321 -1.185241 3.055392 0
M  V30 41 H 4.169044 -0.010163 3.608681 0
M  V30 42 H 3.889364 -0.083373 1.173417 0
M  V30 43 H 3.489344 1.583251 1.881296 0
M  V30 44 H 2.482809 1.449999 -0.715468 0
M  V30 45 H -0.246372 1.644550 -0.779687 0
M  V30 46 H -2.947606 1.433461 -1.468155 0
M  V30 47 H -4.175390 1.258754 -3.100837 0
M  V30 48 H -5.997668 0.375322 -4.589786 0
M  V30 49 H -3.627373 -3.075149 -5.379601 0
M  V30 50 H -1.703973 -3.575416 -5.537103 0
M  V30 51 H -0.237540 -3.754986 -4.529928 0
M  V30 52 H -1.123714 -5.092628 -2.927144 0
M  V30 53 H -2.817183 -4.582278 -3.173116 0
M  V30 54 H -1.938926 -5.628770 -4.410147 0
M  V30 END ATOM
M  V30 BEGIN BOND
M  V30 1 1 1 2
M  V30 2 1 2 3
M  V30 3 1 3 4
M  V30 4 1 4 5
M  V30 5 1 5 6
M  V30 6 1 6 7
M  V30 7 1 7 8
M  V30 8 2 8 9
M  V30 9 1 8 10
M  V30 10 1 10 11
M  V30 11 1 11 12
M  V30 12 2 12 13
M  V30 13 1 12 14
M  V30 14 2 14 15
M  V30 15 1 15 16
M  V30 16 1 15 17
M  V30 17 2 17 18
M  V30 18 1 18 19
M  V30 19 2 19 20
M  V30 20 1 20 21
M  V30 21 1 20 22
M  V30 22 2 22 23
M  V30 23 1 23 24
M  V30 24 1 24 25
M  V30 25 1 25 26
M  V30 26 1 24 27
M  V30 27 2 27 28
M  V30 28 1 27 14
M  V30 29 1 23 17
M  V30 30 1 1 29
M  V30 31 1 1 30
M  V30 32 1 1 31
M  V30 33 1 2 32
M  V30 34 1 2 33
M  V30 35 1 3 34
M  V30 36 1 3 35
M  V30 37 1 4 36
M  V30 38 1 4 37
M  V30 39 1 5 38
M  V30 40 1 5 39
M  V30 41 1 6 40
M  V30 42 1 6 41
M  V30 43 1 7 42
M  V30 44 1 7 43
M  V30 45 1 10 44
M  V30 46 1 11 45
M  V30 47 1 16 46
M  V30 48 1 18 47
M  V30 49 1 19 48
M  V30 50 1 22 49
M  V30 51 1 25 50
M  V30 52 1 25 51
M  V30 53 1 26 52
M  V30 54 1 26 53
M  V30 55 1 26 54
M  V30 END BOND
M  V30 END CTAB
M  END
>  <Dataset>  (257) 
ChEMBL_Kinases

>  <Ligand_Instance>  (257) 
nan

>  <PDB_ID>  (257) 
nan

>  <Standardized_SMILES>  (257) 
CCCCCCCC(=O)NNC(=O)c1c(O)c2ccc(Cl)cc2n(CC)c1=O

>  <Name>  (257) 
nan

>  <Pocket>  (257) 
nan

>  <ATP_Site>  (257) 
nan

>  <Peripheral>  (257) 
nan

>  <Num_H_Atoms_ProtBoundConf>  (257) 
nan

>  <Num_Resolved_Atoms>  (257) 
nan

>  <Num_Not_Resolved_Atoms>  (257) 
nan

$$$$
CHEMBL4103925
     RDKit          3D

  0  0  0  0  0  0  0  0  0  0999 V3000
M  V30 BEGIN CTAB
M  V30 COUNTS 53 57 0 0 0
M  V30 BEGIN ATOM
M  V30 1 C -5.635378 -6.599428 -3.874805 0
M  V30 2 O -6.279412 -5.765252 -2.933774 0
M  V30 3 C -5.628137 -4.632190 -2.423510 0
M  V30 4 C -4.351847 -4.397856 -2.891352 0
M  V30 5 C -3.686777 -3.277238 -2.397280 0
M  V30 6 C -4.349833 -2.487531 -1.480716 0
M  V30 7 C -3.607010 -1.312725 -0.987243 0
M  V30 8 C -4.235437 -0.141177 -0.614436 0
M  V30 9 C -3.513365 0.939123 -0.157584 0
M  V30 10 C -2.122535 0.857921 -0.066359 0
M  V30 11 C -1.476815 -0.297733 -0.431933 0
M  V30 12 C -0.023301 -0.329355 -0.314989 0
M  V30 13 C 0.753605 -1.422207 -0.639215 0
M  V30 14 C 2.127630 -1.412661 -0.508617 0
M  V30 15 N 3.116914 -2.303592 -0.740161 0
M  V30 16 C 4.311567 -1.764775 -0.434146 0
M  V30 17 C 4.015924 -0.490177 0.000688 0
M  V30 18 N 2.691736 -0.263601 -0.039835 0
M  V30 19 C 1.945518 0.821195 0.284170 0
M  V30 20 N 2.580667 1.994439 0.770289 0
M  V30 21 C 3.076879 3.026497 -0.061301 0
M  V30 22 N 2.941971 2.866481 -1.386692 0
M  V30 23 C 3.416329 3.837447 -2.191795 0
M  V30 24 C 4.033763 4.984818 -1.681329 0
M  V30 25 C 4.185204 5.172054 -0.302055 0
M  V30 26 C 3.679685 4.146199 0.448125 0
M  V30 27 C 3.754653 4.191568 1.878169 0
M  V30 28 N 4.337251 5.243818 2.609938 0
M  V30 29 O 3.452467 3.551751 2.890115 0
M  V30 30 N 0.591510 0.776563 0.142549 0
M  V30 31 C -2.234038 -1.358602 -0.884661 0
M  V30 32 C -5.620023 -2.714367 -1.010273 0
M  V30 33 C -6.277325 -3.833076 -1.506955 0
M  V30 34 H -4.751908 -7.122891 -3.452890 0
M  V30 35 H -6.351050 -7.364433 -4.200950 0
M  V30 36 H -5.271518 -6.070519 -4.772757 0
M  V30 37 H -3.879714 -5.053713 -3.613045 0
M  V30 38 H -2.701628 -3.110416 -2.768670 0
M  V30 39 H -5.326792 -0.092838 -0.691470 0
M  V30 40 H -4.087402 1.833895 0.119225 0
M  V30 41 H -1.592071 1.738865 0.301454 0
M  V30 42 H 0.287902 -2.302981 -1.001266 0
M  V30 43 H 5.238858 -2.311824 -0.546361 0
M  V30 44 H 4.806374 0.184516 0.318914 0
M  V30 45 H 2.503644 1.750057 1.774067 0
M  V30 46 H 3.299291 3.692803 -3.265596 0
M  V30 47 H 4.405776 5.749075 -2.353844 0
M  V30 48 H 4.655271 6.043570 0.122990 0
M  V30 49 H 4.990905 5.810592 3.179220 0
M  V30 50 H 5.254096 5.369359 3.128754 0
M  V30 51 H -1.742122 -2.268725 -1.173924 0
M  V30 52 H -6.074500 -2.043367 -0.285315 0
M  V30 53 H -7.292678 -4.041895 -1.151156 0
M  V30 END ATOM
M  V30 BEGIN BOND
M  V30 1 1 1 2
M  V30 2 1 2 3
M  V30 3 2 3 4
M  V30 4 1 4 5
M  V30 5 2 5 6
M  V30 6 1 6 7
M  V30 7 2 7 8
M  V30 8 1 8 9
M  V30 9 2 9 10
M  V30 10 1 10 11
M  V30 11 1 11 12
M  V30 12 2 12 13
M  V30 13 1 13 14
M  V30 14 2 14 15
M  V30 15 1 15 16
M  V30 16 2 16 17
M  V30 17 1 17 18
M  V30 18 1 18 19
M  V30 19 1 19 20
M  V30 20 1 20 21
M  V30 21 2 21 22
M  V30 22 1 22 23
M  V30 23 2 23 24
M  V30 24 1 24 25
M  V30 25 2 25 26
M  V30 26 1 26 27
M  V30 27 1 27 28
M  V30 28 2 27 29
M  V30 29 2 19 30
M  V30 30 2 11 31
M  V30 31 1 6 32
M  V30 32 2 32 33
M  V30 33 1 33 3
M  V30 34 1 31 7
M  V30 35 1 30 12
M  V30 36 1 18 14
M  V30 37 1 26 21
M  V30 38 1 1 34
M  V30 39 1 1 35
M  V30 40 1 1 36
M  V30 41 1 4 37
M  V30 42 1 5 38
M  V30 43 1 8 39
M  V30 44 1 9 40
M  V30 45 1 10 41
M  V30 46 1 13 42
M  V30 47 1 16 43
M  V30 48 1 17 44
M  V30 49 1 20 45
M  V30 50 1 23 46
M  V30 51 1 24 47
M  V30 52 1 25 48
M  V30 53 1 28 49
M  V30 54 1 28 50
M  V30 55 1 31 51
M  V30 56 1 32 52
M  V30 57 1 33 53
M  V30 END BOND
M  V30 END CTAB
M  END
>  <Dataset>  (258) 
ChEMBL_Kinases

>  <Ligand_Instance>  (258) 
nan

>  <PDB_ID>  (258) 
nan

>  <Standardized_SMILES>  (258) 
COc1ccc(-c2cccc(-c3cc4nccn4c(Nc4ncccc4C(N)=O)n3)c2)cc1

>  <Name>  (258) 
nan

>  <Pocket>  (258) 
nan

>  <ATP_Site>  (258) 
nan

>  <Peripheral>  (258) 
nan

>  <Num_H_Atoms_ProtBoundConf>  (258) 
nan

>  <Num_Resolved_Atoms>  (258) 
nan

>  <Num_Not_Resolved_Atoms>  (258) 
nan

$$$$
CHEMBL4103908
     RDKit          3D

  0  0  0  0  0  0  0  0  0  0999 V3000
M  V30 BEGIN CTAB
M  V30 COUNTS 74 78 0 0 0
M  V30 BEGIN ATOM
M  V30 1 C 6.533970 -0.966167 1.689667 0
M  V30 2 C 5.104685 -0.694410 1.275167 0
M  V30 3 C 4.995414 0.326891 0.150197 0 CFG=2
M  V30 4 C 5.585468 1.624507 0.584913 0
M  V30 5 C 6.884100 2.078002 0.676636 0
M  V30 6 C 8.098221 1.432410 0.267307 0
M  V30 7 N 9.068528 0.908696 -0.081755 0
M  V30 8 N 6.918222 3.322262 1.232861 0
M  V30 9 C 5.640808 3.613052 1.471058 0
M  V30 10 N 4.823687 2.609738 1.087375 0
M  V30 11 C 3.415871 2.605059 1.081167 0
M  V30 12 C 2.702500 3.626566 1.638411 0
M  V30 13 N 1.377341 3.489434 1.577420 0
M  V30 14 C 0.709201 2.460642 1.030465 0
M  V30 15 N -0.682790 2.587668 1.092172 0
M  V30 16 C -1.748400 1.692161 0.829600 0
M  V30 17 C -1.440847 0.378023 0.560630 0
M  V30 18 C -2.369741 -0.581443 0.315943 0
M  V30 19 F -2.060002 -1.856003 0.054951 0
M  V30 20 C -3.715631 -0.313794 0.317533 0
M  V30 21 C -4.879157 -1.153918 0.093142 0
M  V30 22 O -6.073755 -0.789022 0.112485 0
M  V30 23 N -4.803729 -2.541787 -0.185117 0
M  V30 24 C -5.859439 -3.489044 -0.425828 0
M  V30 25 C -5.702848 -4.211249 -1.745431 0
M  V30 26 C -4.430871 -5.029245 -1.805515 0
M  V30 27 N -4.327079 -5.983642 -0.752543 0
M  V30 28 C -3.065610 -5.811654 -0.070096 0
M  V30 29 C -5.453433 -5.923988 0.118726 0
M  V30 30 C -5.776191 -4.545864 0.648434 0
M  V30 31 C -4.050063 1.014195 0.588659 0
M  V30 32 C -3.095374 1.968163 0.833099 0
M  V30 33 O -3.441905 3.286273 1.101972 0
M  V30 34 C -4.814661 3.705258 1.134990 0
M  V30 35 N 1.461254 1.485367 0.496368 0
M  V30 36 C 2.796584 1.532551 0.506810 0
M  V30 37 N 3.551453 0.487839 -0.066951 0
M  V30 38 C 3.114281 -0.549399 -0.935735 0
M  V30 39 C 1.727498 -0.434236 -1.452125 0
M  V30 40 C 4.048201 -0.726021 -2.129683 0
M  V30 41 H 7.171401 -1.218761 0.822875 0
M  V30 42 H 6.931973 -0.165958 2.340721 0
M  V30 43 H 6.564799 -1.906276 2.325029 0
M  V30 44 H 4.605693 -0.303906 2.206743 0
M  V30 45 H 4.608154 -1.642628 1.063038 0
M  V30 46 H 5.547549 -0.037590 -0.704196 0
M  V30 47 H 5.359658 4.573333 1.928099 0
M  V30 48 H 3.198584 4.472076 2.088154 0
M  V30 49 H -1.115246 3.489828 1.374246 0
M  V30 50 H -0.410441 0.079330 0.551885 0
M  V30 51 H -3.898893 -3.050417 -0.246852 0
M  V30 52 H -6.867693 -3.023741 -0.379386 0
M  V30 53 H -5.662320 -3.512133 -2.605006 0
M  V30 54 H -6.574253 -4.876023 -1.904016 0
M  V30 55 H -3.555211 -4.333203 -1.786653 0
M  V30 56 H -4.434822 -5.528905 -2.800025 0
M  V30 57 H -2.427224 -5.150673 -0.658194 0
M  V30 58 H -3.260503 -5.352943 0.927782 0
M  V30 59 H -2.601585 -6.814553 0.021303 0
M  V30 60 H -6.367048 -6.369883 -0.283705 0
M  V30 61 H -5.153517 -6.505098 1.042633 0
M  V30 62 H -6.747501 -4.624411 1.152131 0
M  V30 63 H -5.031816 -4.255669 1.439808 0
M  V30 64 H -5.083580 1.384106 0.625399 0
M  V30 65 H -5.157331 3.671588 0.075247 0
M  V30 66 H -4.781664 4.762947 1.462146 0
M  V30 67 H -5.412423 3.064327 1.798824 0
M  V30 68 H 3.212154 -1.522452 -0.366223 0
M  V30 69 H 1.041925 -1.044376 -0.830799 0
M  V30 70 H 1.364393 0.597860 -1.588109 0
M  V30 71 H 1.649051 -0.908061 -2.498560 0
M  V30 72 H 3.438922 -1.146825 -2.951729 0
M  V30 73 H 4.826402 -1.483781 -1.918114 0
M  V30 74 H 4.492866 0.233790 -2.450411 0
M  V30 END ATOM
M  V30 BEGIN BOND
M  V30 1 1 1 2
M  V30 2 1 2 3
M  V30 3 1 3 4
M  V30 4 2 4 5
M  V30 5 1 5 6
M  V30 6 3 6 7
M  V30 7 1 5 8
M  V30 8 2 8 9
M  V30 9 1 9 10
M  V30 10 1 10 11
M  V30 11 2 11 12
M  V30 12 1 12 13
M  V30 13 2 13 14
M  V30 14 1 14 15
M  V30 15 1 15 16
M  V30 16 2 16 17
M  V30 17 1 17 18
M  V30 18 1 18 19
M  V30 19 2 18 20
M  V30 20 1 20 21
M  V30 21 2 21 22
M  V30 22 1 21 23
M  V30 23 1 23 24
M  V30 24 1 24 25
M  V30 25 1 25 26
M  V30 26 1 26 27
M  V30 27 1 27 28
M  V30 28 1 27 29
M  V30 29 1 29 30
M  V30 30 1 20 31
M  V30 31 2 31 32
M  V30 32 1 32 33
M  V30 33 1 33 34
M  V30 34 1 14 35
M  V30 35 2 35 36
M  V30 36 1 36 37
M  V30 37 1 37 38
M  V30 38 1 38 39
M  V30 39 1 38 40
M  V30 40 1 37 3
M  V30 41 1 10 4
M  V30 42 1 36 11
M  V30 43 1 32 16
M  V30 44 1 30 24
M  V30 45 1 1 41
M  V30 46 1 1 42
M  V30 47 1 1 43
M  V30 48 1 2 44
M  V30 49 1 2 45
M  V30 50 1 3 46 CFG=3
M  V30 51 1 9 47
M  V30 52 1 12 48
M  V30 53 1 15 49
M  V30 54 1 17 50
M  V30 55 1 23 51
M  V30 56 1 24 52
M  V30 57 1 25 53
M  V30 58 1 25 54
M  V30 59 1 26 55
M  V30 60 1 26 56
M  V30 61 1 28 57
M  V30 62 1 28 58
M  V30 63 1 28 59
M  V30 64 1 29 60
M  V30 65 1 29 61
M  V30 66 1 30 62
M  V30 67 1 30 63
M  V30 68 1 31 64
M  V30 69 1 34 65
M  V30 70 1 34 66
M  V30 71 1 34 67
M  V30 72 1 38 68
M  V30 73 1 39 69
M  V30 74 1 39 70
M  V30 75 1 39 71
M  V30 76 1 40 72
M  V30 77 1 40 73
M  V30 78 1 40 74
M  V30 END BOND
M  V30 END CTAB
M  END
>  <Dataset>  (259) 
ChEMBL_Kinases

>  <Ligand_Instance>  (259) 
nan

>  <PDB_ID>  (259) 
nan

>  <Standardized_SMILES>  (259) 
CC[C@@H]1c2c(C#N)ncn2-c2cnc(Nc3cc(F)c(C(=O)NC4CCN(C)CC4)cc3OC)nc2N1C(C)C

>  <Name>  (259) 
nan

>  <Pocket>  (259) 
nan

>  <ATP_Site>  (259) 
nan

>  <Peripheral>  (259) 
nan

>  <Num_H_Atoms_ProtBoundConf>  (259) 
nan

>  <Num_Resolved_Atoms>  (259) 
nan

>  <Num_Not_Resolved_Atoms>  (259) 
nan

$$$$
CHEMBL4103859
     RDKit          3D

  0  0  0  0  0  0  0  0  0  0999 V3000
M  V30 BEGIN CTAB
M  V30 COUNTS 44 48 0 0 0
M  V30 BEGIN ATOM
M  V30 1 O 3.183974 -1.149289 1.018102 0 CHG=-1 VAL=1
M  V30 2 S 2.421508 0.322620 1.098539 0 CHG=1 VAL=3
M  V30 3 C 3.347407 1.556105 1.891823 0
M  V30 4 C 3.136141 1.634603 3.270508 0
M  V30 5 C 3.841276 2.601058 3.991679 0
M  V30 6 C 4.735624 3.484528 3.423132 0
M  V30 7 Cl 5.588709 4.674273 4.384437 0
M  V30 8 C 4.917790 3.375500 2.055204 0
M  V30 9 C 4.240264 2.433964 1.306296 0
M  V30 10 C 1.719684 0.824924 -0.413298 0
M  V30 11 N 2.361328 1.551651 -1.349302 0
M  V30 12 C 1.813719 1.928862 -2.500213 0
M  V30 13 N 0.550641 1.599179 -2.810468 0
M  V30 14 C -0.167453 0.874913 -1.937854 0
M  V30 15 C 0.396851 0.467602 -0.713754 0
M  V30 16 N -0.237102 -0.266008 0.299178 0
M  V30 17 C -1.089632 -1.230615 0.218198 0
M  V30 18 C -1.555856 -1.768047 1.516391 0
M  V30 19 C -2.536962 -2.660569 1.848061 0
M  V30 20 C -2.803486 -3.106013 3.104694 0
M  V30 21 C -2.058835 -2.654240 4.166775 0
M  V30 22 C -1.052335 -1.752629 3.924548 0
M  V30 23 C -0.840776 -1.349388 2.632698 0
M  V30 24 C -1.596637 -1.883263 -0.993472 0
M  V30 25 C -1.639688 -3.275683 -0.771855 0
M  V30 26 C -2.120732 -4.053067 -1.802430 0
M  V30 27 Cl -2.186419 -5.777156 -1.551211 0
M  V30 28 C -2.528245 -3.458170 -2.977935 0
M  V30 29 C -2.485051 -2.104317 -3.198407 0
M  V30 30 C -2.008835 -1.298834 -2.187750 0
M  V30 31 S -1.859907 0.473835 -2.503451 0
M  V30 32 H 2.463278 1.001135 3.833554 0
M  V30 33 H 3.687102 2.672143 5.057654 0
M  V30 34 H 5.613380 4.045497 1.538657 0
M  V30 35 H 4.356727 2.317637 0.229775 0
M  V30 36 H 2.343975 2.513035 -3.241029 0
M  V30 37 H -3.157959 -2.986134 1.039165 0
M  V30 38 H -3.604936 -3.812486 3.231286 0
M  V30 39 H -2.323003 -3.047897 5.135466 0
M  V30 40 H -0.483694 -1.411663 4.765473 0
M  V30 41 H -0.026758 -0.638683 2.543584 0
M  V30 42 H -1.272689 -3.706457 0.163569 0
M  V30 43 H -2.903979 -4.063636 -3.780748 0
M  V30 44 H -2.780525 -1.569638 -4.077683 0
M  V30 END ATOM
M  V30 BEGIN BOND
M  V30 1 1 1 2
M  V30 2 1 2 3
M  V30 3 2 3 4
M  V30 4 1 4 5
M  V30 5 2 5 6
M  V30 6 1 6 7
M  V30 7 1 6 8
M  V30 8 2 8 9
M  V30 9 1 2 10
M  V30 10 2 10 11
M  V30 11 1 11 12
M  V30 12 2 12 13
M  V30 13 1 13 14
M  V30 14 2 14 15
M  V30 15 1 15 16
M  V30 16 2 16 17
M  V30 17 1 17 18
M  V30 18 2 18 19
M  V30 19 1 19 20
M  V30 20 2 20 21
M  V30 21 1 21 22
M  V30 22 2 22 23
M  V30 23 1 17 24
M  V30 24 2 24 25
M  V30 25 1 25 26
M  V30 26 1 26 27
M  V30 27 2 26 28
M  V30 28 1 28 29
M  V30 29 2 29 30
M  V30 30 1 30 31
M  V30 31 1 9 3
M  V30 32 1 15 10
M  V30 33 1 23 18
M  V30 34 1 30 24
M  V30 35 1 31 14
M  V30 36 1 4 32
M  V30 37 1 5 33
M  V30 38 1 8 34
M  V30 39 1 9 35
M  V30 40 1 12 36
M  V30 41 1 19 37
M  V30 42 1 20 38
M  V30 43 1 21 39
M  V30 44 1 22 40
M  V30 45 1 23 41
M  V30 46 1 25 42
M  V30 47 1 28 43
M  V30 48 1 29 44
M  V30 END BOND
M  V30 END CTAB
M  END
>  <Dataset>  (260) 
ChEMBL_Kinases

>  <Ligand_Instance>  (260) 
nan

>  <PDB_ID>  (260) 
nan

>  <Standardized_SMILES>  (260) 
[O-][S+](c1ccc(Cl)cc1)c1ncnc2c1N=C(c1ccccc1)c1cc(Cl)ccc1S2

>  <Name>  (260) 
nan

>  <Pocket>  (260) 
nan

>  <ATP_Site>  (260) 
nan

>  <Peripheral>  (260) 
nan

>  <Num_H_Atoms_ProtBoundConf>  (260) 
nan

>  <Num_Resolved_Atoms>  (260) 
nan

>  <Num_Not_Resolved_Atoms>  (260) 
nan

$$$$
CHEMBL4103831
     RDKit          3D

  0  0  0  0  0  0  0  0  0  0999 V3000
M  V30 BEGIN CTAB
M  V30 COUNTS 30 32 0 0 0
M  V30 BEGIN ATOM
M  V30 1 N -2.034003 -5.284829 1.896934 0
M  V30 2 C -1.039699 -4.495405 1.239305 0
M  V30 3 C -0.810999 -3.199308 1.696696 0
M  V30 4 C 0.156316 -2.452480 1.045463 0
M  V30 5 C 0.383445 -1.093347 1.539031 0
M  V30 6 C 0.504166 -0.697124 2.869943 0
M  V30 7 N 0.708908 0.648916 2.919413 0
M  V30 8 C 0.727691 1.156286 1.666648 0
M  V30 9 C 0.894523 2.426163 1.140018 0
M  V30 10 C 0.860038 2.615509 -0.231005 0
M  V30 11 C 1.047451 4.008356 -0.712494 0
M  V30 12 F -0.062257 4.755472 -0.311957 0
M  V30 13 F 1.188170 4.073508 -2.079954 0
M  V30 14 F 2.133562 4.553403 -0.053710 0
M  V30 15 C 0.659465 1.537893 -1.068804 0
M  V30 16 C 0.492702 0.268874 -0.543570 0
M  V30 17 C 0.527270 0.081037 0.824332 0
M  V30 18 C 0.837655 -2.997266 0.001990 0
M  V30 19 C 0.598727 -4.297611 -0.446532 0
M  V30 20 N -0.345760 -5.000425 0.203750 0
M  V30 21 H -2.937761 -4.750908 2.026494 0
M  V30 22 H -2.002409 -6.276610 2.256478 0
M  V30 23 H -1.372230 -2.776033 2.542272 0
M  V30 24 H 0.437054 -1.392363 3.685589 0
M  V30 25 H 0.831334 1.192499 3.804809 0
M  V30 26 H 1.046515 3.211927 1.876240 0
M  V30 27 H 0.637205 1.717098 -2.139832 0
M  V30 28 H 0.343528 -0.501247 -1.269842 0
M  V30 29 H 1.602245 -2.405189 -0.511781 0
M  V30 30 H 1.190026 -4.643941 -1.283022 0
M  V30 END ATOM
M  V30 BEGIN BOND
M  V30 1 1 1 2
M  V30 2 2 2 3
M  V30 3 1 3 4
M  V30 4 1 4 5
M  V30 5 2 5 6
M  V30 6 1 6 7
M  V30 7 1 7 8
M  V30 8 2 8 9
M  V30 9 1 9 10
M  V30 10 1 10 11
M  V30 11 1 11 12
M  V30 12 1 11 13
M  V30 13 1 11 14
M  V30 14 2 10 15
M  V30 15 1 15 16
M  V30 16 2 16 17
M  V30 17 2 4 18
M  V30 18 1 18 19
M  V30 19 2 19 20
M  V30 20 1 20 2
M  V30 21 1 17 5
M  V30 22 1 17 8
M  V30 23 1 1 21
M  V30 24 1 1 22
M  V30 25 1 3 23
M  V30 26 1 6 24
M  V30 27 1 7 25
M  V30 28 1 9 26
M  V30 29 1 15 27
M  V30 30 1 16 28
M  V30 31 1 18 29
M  V30 32 1 19 30
M  V30 END BOND
M  V30 END CTAB
M  END
>  <Dataset>  (261) 
ChEMBL_Kinases

>  <Ligand_Instance>  (261) 
nan

>  <PDB_ID>  (261) 
nan

>  <Standardized_SMILES>  (261) 
Nc1cc(-c2c[nH]c3cc(C(F)(F)F)ccc23)ccn1

>  <Name>  (261) 
nan

>  <Pocket>  (261) 
nan

>  <ATP_Site>  (261) 
nan

>  <Peripheral>  (261) 
nan

>  <Num_H_Atoms_ProtBoundConf>  (261) 
nan

>  <Num_Resolved_Atoms>  (261) 
nan

>  <Num_Not_Resolved_Atoms>  (261) 
nan

$$$$
CHEMBL4103825
     RDKit          3D

  0  0  0  0  0  0  0  0  0  0999 V3000
M  V30 BEGIN CTAB
M  V30 COUNTS 52 57 0 0 0
M  V30 BEGIN ATOM
M  V30 1 Cl 0.145407 -3.969778 6.043924 0
M  V30 2 C 1.075966 -3.013394 4.879427 0
M  V30 3 C 2.455452 -2.902435 5.062829 0
M  V30 4 C 3.123655 -2.137206 4.114186 0
M  V30 5 C 2.432477 -1.546255 3.080287 0
M  V30 6 N 3.137843 -0.814754 2.197854 0
M  V30 7 C 2.517268 -0.198454 1.150189 0
M  V30 8 N 3.030224 0.609995 0.104200 0
M  V30 9 C 2.771611 1.982366 -0.144940 0
M  V30 10 C 3.396901 2.600624 -1.228068 0
M  V30 11 N 3.197394 3.891162 -1.544386 0
M  V30 12 C 2.373293 4.677942 -0.829219 0
M  V30 13 N 1.924918 5.930020 -0.812282 0
M  V30 14 N 1.090085 6.172731 0.157850 0
M  V30 15 C 0.914489 5.035922 0.894543 0
M  V30 16 C 1.729695 4.103960 0.259571 0
M  V30 17 C 1.941626 2.781462 0.573781 0
M  V30 18 N 1.162794 -0.335659 1.012906 0
M  V30 19 C 0.427388 -1.053469 1.869356 0
M  V30 20 N -0.990141 -1.183508 1.670381 0
M  V30 21 C -1.598762 -0.472221 0.547062 0
M  V30 22 C -3.075591 -0.888953 0.472003 0
M  V30 23 C -3.109087 -2.379997 0.201988 0
M  V30 24 C -3.333379 -3.498019 0.975936 0
M  V30 25 N -3.220513 -4.563695 0.169497 0
M  V30 26 C -2.935326 -4.142460 -1.070543 0
M  V30 27 C -2.727297 -4.838302 -2.244335 0
M  V30 28 C -2.440854 -4.208342 -3.450875 0
M  V30 29 C -2.354413 -2.813088 -3.501049 0
M  V30 30 C -2.567873 -2.125060 -2.301270 0
M  V30 31 C -2.850446 -2.767108 -1.120100 0
M  V30 32 C 1.070160 -1.668484 2.917075 0
M  V30 33 C 0.389057 -2.421778 3.845092 0
M  V30 34 H 2.988109 -3.369692 5.875532 0
M  V30 35 H 4.190552 -2.049540 4.251043 0
M  V30 36 H 3.667178 0.076714 -0.522788 0
M  V30 37 H 4.088879 2.077636 -1.887989 0
M  V30 38 H 2.240216 6.635393 -1.538581 0
M  V30 39 H 0.292532 4.881364 1.765386 0
M  V30 40 H 1.467019 2.260364 1.420750 0
M  V30 41 H -1.619901 -1.751110 2.269878 0
M  V30 42 H -1.573762 0.619126 0.816229 0
M  V30 43 H -1.095885 -0.635372 -0.407116 0
M  V30 44 H -3.533852 -0.756499 1.462256 0
M  V30 45 H -3.608401 -0.328466 -0.316997 0
M  V30 46 H -3.550734 -3.377039 2.026819 0
M  V30 47 H -3.342326 -5.545967 0.498435 0
M  V30 48 H -2.768096 -5.904168 -2.323084 0
M  V30 49 H -2.267844 -4.675385 -4.401599 0
M  V30 50 H -2.134193 -2.277079 -4.413182 0
M  V30 51 H -2.502958 -1.058035 -2.330430 0
M  V30 52 H -0.676209 -2.562552 3.786262 0
M  V30 END ATOM
M  V30 BEGIN BOND
M  V30 1 1 1 2
M  V30 2 2 2 3
M  V30 3 1 3 4
M  V30 4 2 4 5
M  V30 5 1 5 6
M  V30 6 2 6 7
M  V30 7 1 7 8
M  V30 8 1 8 9
M  V30 9 2 9 10
M  V30 10 1 10 11
M  V30 11 2 11 12
M  V30 12 1 12 13
M  V30 13 1 13 14
M  V30 14 2 14 15
M  V30 15 1 15 16
M  V30 16 2 16 17
M  V30 17 1 7 18
M  V30 18 2 18 19
M  V30 19 1 19 20
M  V30 20 1 20 21
M  V30 21 1 21 22
M  V30 22 1 22 23
M  V30 23 2 23 24
M  V30 24 1 24 25
M  V30 25 1 25 26
M  V30 26 2 26 27
M  V30 27 1 27 28
M  V30 28 2 28 29
M  V30 29 1 29 30
M  V30 30 2 30 31
M  V30 31 1 19 32
M  V30 32 2 32 33
M  V30 33 1 33 2
M  V30 34 1 32 5
M  V30 35 1 17 9
M  V30 36 1 31 23
M  V30 37 1 16 12
M  V30 38 1 31 26
M  V30 39 1 3 34
M  V30 40 1 4 35
M  V30 41 1 8 36
M  V30 42 1 10 37
M  V30 43 1 13 38
M  V30 44 1 15 39
M  V30 45 1 17 40
M  V30 46 1 20 41
M  V30 47 1 21 42
M  V30 48 1 21 43
M  V30 49 1 22 44
M  V30 50 1 22 45
M  V30 51 1 24 46
M  V30 52 1 25 47
M  V30 53 1 27 48
M  V30 54 1 28 49
M  V30 55 1 29 50
M  V30 56 1 30 51
M  V30 57 1 33 52
M  V30 END BOND
M  V30 END CTAB
M  END
>  <Dataset>  (262) 
ChEMBL_Kinases

>  <Ligand_Instance>  (262) 
nan

>  <PDB_ID>  (262) 
nan

>  <Standardized_SMILES>  (262) 
Clc1ccc2nc(Nc3cnc4[nH]ncc4c3)nc(NCCc3c[nH]c4ccccc34)c2c1

>  <Name>  (262) 
nan

>  <Pocket>  (262) 
nan

>  <ATP_Site>  (262) 
nan

>  <Peripheral>  (262) 
nan

>  <Num_H_Atoms_ProtBoundConf>  (262) 
nan

>  <Num_Resolved_Atoms>  (262) 
nan

>  <Num_Not_Resolved_Atoms>  (262) 
nan

$$$$
CHEMBL4794673
     RDKit          3D

  0  0  0  0  0  0  0  0  0  0999 V3000
M  V30 BEGIN CTAB
M  V30 COUNTS 65 69 0 0 0
M  V30 BEGIN ATOM
M  V30 1 C -0.113374 0.606071 3.594961 0
M  V30 2 O -1.274900 1.286761 3.248624 0
M  V30 3 C -1.576251 1.846846 2.021265 0
M  V30 4 C -2.822635 2.472597 1.955974 0
M  V30 5 C -3.211774 3.056280 0.778209 0
M  V30 6 C -2.431408 3.061190 -0.362307 0
M  V30 7 C -1.201711 2.444414 -0.300132 0
M  V30 8 C -0.129255 2.246410 -1.299010 0
M  V30 9 N 1.114707 2.756614 -1.258078 0
M  V30 10 C 1.767794 2.315262 -2.345250 0
M  V30 11 C 3.160684 2.644556 -2.676337 0
M  V30 12 C 3.892734 3.484227 -1.840526 0
M  V30 13 C 5.217861 3.842161 -2.087497 0
M  V30 14 C 5.796853 3.311072 -3.236345 0
M  V30 15 C 5.055372 2.483566 -4.047761 0
M  V30 16 C 3.755208 2.137617 -3.797639 0
M  V30 17 N 0.927120 1.531575 -3.058924 0
M  V30 18 C -0.281843 1.455511 -2.443383 0
M  V30 19 C -1.509223 0.776067 -2.803241 0
M  V30 20 C -1.895890 0.977615 -4.105784 0
M  V30 21 C -3.076741 0.371631 -4.539063 0
M  V30 22 N -3.769212 -0.376178 -3.653758 0
M  V30 23 C -3.395830 -0.576693 -2.377646 0
M  V30 24 N -4.240994 -1.394496 -1.583656 0
M  V30 25 C -4.207922 -2.731067 -1.066705 0
M  V30 26 C -3.110064 -2.930998 -0.042526 0
M  V30 27 N -3.203988 -4.317260 0.375221 0
M  V30 28 S -2.046567 -4.762361 1.549382 0
M  V30 29 O -2.207331 -3.990115 2.823899 0
M  V30 30 O -2.237001 -6.250735 1.798835 0
M  V30 31 C -0.415881 -4.587021 0.966745 0
M  V30 32 C 0.216501 -3.371333 1.200886 0
M  V30 33 C 1.504351 -3.092639 0.796022 0
M  V30 34 C 2.186821 -4.084399 0.124193 0
M  V30 35 C 1.598683 -5.326196 -0.137883 0
M  V30 36 F 2.257973 -6.300339 -0.794505 0
M  V30 37 C 0.305554 -5.552334 0.289927 0
M  V30 38 C -2.234985 0.007612 -1.921132 0
M  V30 39 C -0.784186 1.841084 0.894815 0
M  V30 40 H 0.761984 1.212281 3.824621 0
M  V30 41 H -0.362276 0.025732 4.531349 0
M  V30 42 H 0.148367 -0.181762 2.846334 0
M  V30 43 H -3.562206 2.558438 2.767712 0
M  V30 44 H -4.158886 3.559973 0.648421 0
M  V30 45 H -2.591113 3.464658 -1.334259 0
M  V30 46 H 3.381102 3.862820 -0.962035 0
M  V30 47 H 5.674306 4.507417 -1.353653 0
M  V30 48 H 6.820974 3.624013 -3.371982 0
M  V30 49 H 5.609045 2.132636 -4.911002 0
M  V30 50 H 3.255051 1.490040 -4.478226 0
M  V30 51 H 1.132304 1.027845 -3.969905 0
M  V30 52 H -1.401047 1.559005 -4.868435 0
M  V30 53 H -3.519081 0.433669 -5.542883 0
M  V30 54 H -5.056409 -0.736521 -1.396451 0
M  V30 55 H -5.168656 -2.899165 -0.545773 0
M  V30 56 H -4.123348 -3.448521 -1.891751 0
M  V30 57 H -2.106463 -2.814774 -0.469798 0
M  V30 58 H -3.224468 -2.204080 0.773312 0
M  V30 59 H -4.156010 -4.479602 0.766581 0
M  V30 60 H -0.312879 -2.574532 1.732676 0
M  V30 61 H 1.984008 -2.137021 0.986232 0
M  V30 62 H 3.186856 -3.871449 -0.192848 0
M  V30 63 H -0.237202 -6.495946 0.130301 0
M  V30 64 H -1.915075 -0.138301 -0.907107 0
M  V30 65 H 0.150198 1.317439 1.103134 0
M  V30 END ATOM
M  V30 BEGIN BOND
M  V30 1 1 1 2
M  V30 2 1 2 3
M  V30 3 2 3 4
M  V30 4 1 4 5
M  V30 5 2 5 6
M  V30 6 1 6 7
M  V30 7 1 7 8
M  V30 8 1 8 9
M  V30 9 2 9 10
M  V30 10 1 10 11
M  V30 11 2 11 12
M  V30 12 1 12 13
M  V30 13 2 13 14
M  V30 14 1 14 15
M  V30 15 2 15 16
M  V30 16 1 10 17
M  V30 17 1 17 18
M  V30 18 1 18 19
M  V30 19 2 19 20
M  V30 20 1 20 21
M  V30 21 2 21 22
M  V30 22 1 22 23
M  V30 23 1 23 24
M  V30 24 1 24 25
M  V30 25 1 25 26
M  V30 26 1 26 27
M  V30 27 1 27 28
M  V30 28 2 28 29
M  V30 29 2 28 30
M  V30 30 1 28 31
M  V30 31 2 31 32
M  V30 32 1 32 33
M  V30 33 2 33 34
M  V30 34 1 34 35
M  V30 35 1 35 36
M  V30 36 2 35 37
M  V30 37 2 23 38
M  V30 38 2 7 39
M  V30 39 1 39 3
M  V30 40 2 18 8
M  V30 41 1 38 19
M  V30 42 1 16 11
M  V30 43 1 37 31
M  V30 44 1 1 40
M  V30 45 1 1 41
M  V30 46 1 1 42
M  V30 47 1 4 43
M  V30 48 1 5 44
M  V30 49 1 6 45
M  V30 50 1 12 46
M  V30 51 1 13 47
M  V30 52 1 14 48
M  V30 53 1 15 49
M  V30 54 1 16 50
M  V30 55 1 17 51
M  V30 56 1 20 52
M  V30 57 1 21 53
M  V30 58 1 24 54
M  V30 59 1 25 55
M  V30 60 1 25 56
M  V30 61 1 26 57
M  V30 62 1 26 58
M  V30 63 1 27 59
M  V30 64 1 32 60
M  V30 65 1 33 61
M  V30 66 1 34 62
M  V30 67 1 37 63
M  V30 68 1 38 64
M  V30 69 1 39 65
M  V30 END BOND
M  V30 END CTAB
M  END
>  <Dataset>  (263) 
ChEMBL_Kinases

>  <Ligand_Instance>  (263) 
nan

>  <PDB_ID>  (263) 
nan

>  <Standardized_SMILES>  (263) 
COc1cccc(-c2nc(-c3ccccc3)[nH]c2-c2ccnc(NCCNS(=O)(=O)c3cccc(F)c3)c2)c1

>  <Name>  (263) 
nan

>  <Pocket>  (263) 
nan

>  <ATP_Site>  (263) 
nan

>  <Peripheral>  (263) 
nan

>  <Num_H_Atoms_ProtBoundConf>  (263) 
nan

>  <Num_Resolved_Atoms>  (263) 
nan

>  <Num_Not_Resolved_Atoms>  (263) 
nan

$$$$
CHEMBL4103781
     RDKit          3D

  0  0  0  0  0  0  0  0  0  0999 V3000
M  V30 BEGIN CTAB
M  V30 COUNTS 58 62 0 0 0
M  V30 BEGIN ATOM
M  V30 1 N 5.959639 2.241952 5.549457 0
M  V30 2 C 6.290498 1.301344 4.563079 0
M  V30 3 O 7.337991 0.626788 4.699728 0
M  V30 4 C 5.479919 1.053246 3.367605 0
M  V30 5 C 5.931847 0.092744 2.478177 0
M  V30 6 C 5.211174 -0.195085 1.320022 0
M  V30 7 C 4.044861 0.500506 1.090299 0
M  V30 8 C 3.589033 1.471447 1.990440 0
M  V30 9 C 4.300858 1.765900 3.148763 0
M  V30 10 C 2.382442 2.327002 1.945350 0
M  V30 11 O 2.322597 3.324024 2.699635 0
M  V30 12 C 1.272374 2.030086 1.044776 0
M  V30 13 C 0.375465 3.071966 1.079585 0
M  V30 14 C -0.772218 3.060537 0.324690 0
M  V30 15 C -1.093343 1.990700 -0.520497 0
M  V30 16 N -2.241383 1.904956 -1.346415 0
M  V30 17 C -3.115093 0.887683 -1.752472 0
M  V30 18 C -3.107616 -0.428714 -1.377455 0
M  V30 19 C -3.957934 -1.395760 -1.801733 0
M  V30 20 N -3.966788 -2.757159 -1.428748 0
M  V30 21 C -3.144253 -3.488723 -0.553876 0
M  V30 22 O -2.224532 -2.856102 0.019188 0
M  V30 23 C -3.274651 -4.906894 -0.264039 0
M  V30 24 C -4.223310 -5.741997 -0.804976 0
M  V30 25 C -4.329697 -7.085889 -0.516222 0
M  V30 26 C -3.444050 -7.661691 0.367608 0
M  V30 27 C -2.476711 -6.860278 0.933189 0
M  V30 28 C -2.414697 -5.525597 0.610795 0
M  V30 29 C -4.915598 -0.978337 -2.700941 0
M  V30 30 F -5.845958 -1.849851 -3.217336 0
M  V30 31 C -4.991731 0.319540 -3.126126 0
M  V30 32 C -4.095392 1.243216 -2.652461 0
M  V30 33 F -4.231764 2.524158 -3.122079 0
M  V30 34 C -0.175504 0.971556 -0.529046 0
M  V30 35 C 0.982912 0.961563 0.220377 0
M  V30 36 C 1.870952 -0.220345 0.096404 0
M  V30 37 C 3.304531 0.156565 -0.167827 0
M  V30 38 H 6.634175 3.036621 5.743679 0
M  V30 39 H 5.039624 1.992849 5.963228 0
M  V30 40 H 6.838715 -0.477479 2.615248 0
M  V30 41 H 5.488684 -0.925654 0.574553 0
M  V30 42 H 3.967239 2.503523 3.845814 0
M  V30 43 H 0.549732 3.931218 1.704035 0
M  V30 44 H -1.503685 3.882948 0.336732 0
M  V30 45 H -2.389811 2.882093 -1.689178 0
M  V30 46 H -2.351404 -0.706934 -0.664153 0
M  V30 47 H -4.703827 -3.393738 -1.851800 0
M  V30 48 H -4.938280 -5.363616 -1.494340 0
M  V30 49 H -5.092313 -7.712989 -0.963486 0
M  V30 50 H -3.503846 -8.713013 0.612613 0
M  V30 51 H -1.749403 -7.280765 1.644379 0
M  V30 52 H -1.629329 -4.945680 1.089764 0
M  V30 53 H -5.755289 0.612782 -3.831720 0
M  V30 54 H -0.219442 0.065021 -1.115875 0
M  V30 55 H 1.525174 -0.795024 -0.770099 0
M  V30 56 H 1.853223 -0.857099 1.017914 0
M  V30 57 H 3.781613 -0.677471 -0.699219 0
M  V30 58 H 3.288189 1.029500 -0.847742 0
M  V30 END ATOM
M  V30 BEGIN BOND
M  V30 1 1 1 2
M  V30 2 2 2 3
M  V30 3 1 2 4
M  V30 4 2 4 5
M  V30 5 1 5 6
M  V30 6 2 6 7
M  V30 7 1 7 8
M  V30 8 2 8 9
M  V30 9 1 8 10
M  V30 10 2 10 11
M  V30 11 1 10 12
M  V30 12 2 12 13
M  V30 13 1 13 14
M  V30 14 2 14 15
M  V30 15 1 15 16
M  V30 16 1 16 17
M  V30 17 2 17 18
M  V30 18 1 18 19
M  V30 19 1 19 20
M  V30 20 1 20 21
M  V30 21 2 21 22
M  V30 22 1 21 23
M  V30 23 2 23 24
M  V30 24 1 24 25
M  V30 25 2 25 26
M  V30 26 1 26 27
M  V30 27 2 27 28
M  V30 28 2 19 29
M  V30 29 1 29 30
M  V30 30 1 29 31
M  V30 31 2 31 32
M  V30 32 1 32 33
M  V30 33 1 15 34
M  V30 34 2 34 35
M  V30 35 1 35 36
M  V30 36 1 36 37
M  V30 37 1 9 4
M  V30 38 1 35 12
M  V30 39 1 37 7
M  V30 40 1 32 17
M  V30 41 1 28 23
M  V30 42 1 1 38
M  V30 43 1 1 39
M  V30 44 1 5 40
M  V30 45 1 6 41
M  V30 46 1 9 42
M  V30 47 1 13 43
M  V30 48 1 14 44
M  V30 49 1 16 45
M  V30 50 1 18 46
M  V30 51 1 20 47
M  V30 52 1 24 48
M  V30 53 1 25 49
M  V30 54 1 26 50
M  V30 55 1 27 51
M  V30 56 1 28 52
M  V30 57 1 31 53
M  V30 58 1 34 54
M  V30 59 1 36 55
M  V30 60 1 36 56
M  V30 61 1 37 57
M  V30 62 1 37 58
M  V30 END BOND
M  V30 END CTAB
M  END
>  <Dataset>  (264) 
ChEMBL_Kinases

>  <Ligand_Instance>  (264) 
nan

>  <PDB_ID>  (264) 
nan

>  <Standardized_SMILES>  (264) 
NC(=O)c1ccc2c(c1)C(=O)c1ccc(Nc3cc(NC(=O)c4ccccc4)c(F)cc3F)cc1CC2

>  <Name>  (264) 
nan

>  <Pocket>  (264) 
nan

>  <ATP_Site>  (264) 
nan

>  <Peripheral>  (264) 
nan

>  <Num_H_Atoms_ProtBoundConf>  (264) 
nan

>  <Num_Resolved_Atoms>  (264) 
nan

>  <Num_Not_Resolved_Atoms>  (264) 
nan

$$$$
CHEMBL4103770
     RDKit          3D

  0  0  0  0  0  0  0  0  0  0999 V3000
M  V30 BEGIN CTAB
M  V30 COUNTS 50 55 0 0 0
M  V30 BEGIN ATOM
M  V30 1 N 4.118076 0.408350 4.498345 0
M  V30 2 C 3.291761 0.098819 3.753213 0
M  V30 3 C 2.268747 -0.270919 2.819661 0
M  V30 4 C 2.442061 -0.079286 1.458277 0
M  V30 5 C 3.690293 0.508345 0.989487 0
M  V30 6 C 4.722900 -0.354450 0.690960 0
M  V30 7 C 5.895193 0.214502 0.249498 0
M  V30 8 C 6.063603 1.588538 0.100495 0
M  V30 9 C 4.999148 2.412349 0.412574 0
M  V30 10 C 5.160807 3.774910 0.266662 0
M  V30 11 C 4.075067 4.576950 0.587523 0
M  V30 12 C 2.903213 4.029798 1.027390 0
M  V30 13 C 2.731690 2.684942 1.175526 0
M  V30 14 C 3.808620 1.876070 0.858152 0
M  V30 15 C 1.434713 -0.449865 0.615475 0
M  V30 16 C 0.237686 -1.005792 0.975430 0
M  V30 17 C -0.843825 -1.406371 0.102069 0
M  V30 18 C -2.013539 -1.959327 0.569001 0
M  V30 19 C -3.008998 -2.321398 -0.314238 0
M  V30 20 C -2.910939 -2.162137 -1.685868 0
M  V30 21 C -3.906296 -2.524036 -2.570675 0
M  V30 22 C -5.078071 -3.077525 -2.108223 0
M  V30 23 C -5.221948 -3.254434 -0.765629 0
M  V30 24 C -6.402341 -3.810317 -0.319397 0
M  V30 25 C -6.620472 -4.020016 1.025808 0
M  V30 26 C -5.600520 -3.647119 1.908296 0
M  V30 27 C -4.438032 -3.095338 1.417653 0
M  V30 28 C -4.202773 -2.879039 0.083310 0
M  V30 29 O -1.772138 -1.625849 -2.116139 0
M  V30 30 C -0.833905 -1.286085 -1.266081 0
M  V30 31 O 0.141172 -0.805942 -1.881973 0
M  V30 32 N 0.118067 -1.170850 2.301449 0
M  V30 33 C 1.053152 -0.836671 3.199424 0
M  V30 34 O 0.955632 -0.985111 4.443908 0
M  V30 35 H 4.681236 -1.425830 0.776262 0
M  V30 36 H 6.746526 -0.377730 -0.004509 0
M  V30 37 H 6.987238 2.039018 -0.247472 0
M  V30 38 H 6.102747 4.179604 -0.084579 0
M  V30 39 H 4.221536 5.645748 0.466300 0
M  V30 40 H 2.120689 4.741092 1.249812 0
M  V30 41 H 1.792676 2.275956 1.526039 0
M  V30 42 H 1.653577 -0.267316 -0.403299 0
M  V30 43 H -2.139758 -2.104160 1.624608 0
M  V30 44 H -3.692399 -2.342445 -3.605763 0
M  V30 45 H -5.787674 -3.323152 -2.884936 0
M  V30 46 H -7.180797 -4.090593 -1.043878 0
M  V30 47 H -7.560398 -4.458204 1.328734 0
M  V30 48 H -5.840549 -3.839930 2.940589 0
M  V30 49 H -3.766278 -2.868897 2.224892 0
M  V30 50 H -0.694656 -1.570297 2.805103 0
M  V30 END ATOM
M  V30 BEGIN BOND
M  V30 1 3 1 2
M  V30 2 1 2 3
M  V30 3 2 3 4
M  V30 4 1 4 5
M  V30 5 2 5 6
M  V30 6 1 6 7
M  V30 7 2 7 8
M  V30 8 1 8 9
M  V30 9 2 9 10
M  V30 10 1 10 11
M  V30 11 2 11 12
M  V30 12 1 12 13
M  V30 13 2 13 14
M  V30 14 1 4 15
M  V30 15 2 15 16
M  V30 16 1 16 17
M  V30 17 2 17 18
M  V30 18 1 18 19
M  V30 19 2 19 20
M  V30 20 1 20 21
M  V30 21 2 21 22
M  V30 22 1 22 23
M  V30 23 2 23 24
M  V30 24 1 24 25
M  V30 25 2 25 26
M  V30 26 1 26 27
M  V30 27 2 27 28
M  V30 28 1 20 29
M  V30 29 1 29 30
M  V30 30 2 30 31
M  V30 31 1 16 32
M  V30 32 1 32 33
M  V30 33 2 33 34
M  V30 34 1 33 3
M  V30 35 1 14 5
M  V30 36 1 30 17
M  V30 37 1 14 9
M  V30 38 1 28 19
M  V30 39 1 28 23
M  V30 40 1 6 35
M  V30 41 1 7 36
M  V30 42 1 8 37
M  V30 43 1 10 38
M  V30 44 1 11 39
M  V30 45 1 12 40
M  V30 46 1 13 41
M  V30 47 1 15 42
M  V30 48 1 18 43
M  V30 49 1 21 44
M  V30 50 1 22 45
M  V30 51 1 24 46
M  V30 52 1 25 47
M  V30 53 1 26 48
M  V30 54 1 27 49
M  V30 55 1 32 50
M  V30 END BOND
M  V30 END CTAB
M  END
>  <Dataset>  (265) 
ChEMBL_Kinases

>  <Ligand_Instance>  (265) 
nan

>  <PDB_ID>  (265) 
nan

>  <Standardized_SMILES>  (265) 
N#Cc1c(-c2cccc3ccccc23)cc(-c2cc3c(ccc4ccccc43)oc2=O)[nH]c1=O

>  <Name>  (265) 
nan

>  <Pocket>  (265) 
nan

>  <ATP_Site>  (265) 
nan

>  <Peripheral>  (265) 
nan

>  <Num_H_Atoms_ProtBoundConf>  (265) 
nan

>  <Num_Resolved_Atoms>  (265) 
nan

>  <Num_Not_Resolved_Atoms>  (265) 
nan

$$$$
CHEMBL4103768
     RDKit          3D

  0  0  0  0  0  0  0  0  0  0999 V3000
M  V30 BEGIN CTAB
M  V30 COUNTS 58 62 0 0 0
M  V30 BEGIN ATOM
M  V30 1 C -1.444762 0.512029 1.000804 0
M  V30 2 N -0.988434 -0.882956 1.100064 0
M  V30 3 C 0.247361 -1.307595 1.432632 0
M  V30 4 C 1.393098 -0.461987 1.764510 0
M  V30 5 C 2.595364 -1.059815 2.084516 0
M  V30 6 C 3.617948 -0.194776 2.382790 0
M  V30 7 N 3.488961 1.130867 2.372421 0
M  V30 8 C 2.314639 1.703705 2.059640 0
M  V30 9 N 2.172953 3.112578 2.047261 0
M  V30 10 C 3.279816 3.965557 2.368297 0
M  V30 11 C 2.810439 5.421215 2.266814 0
M  V30 12 C 2.323907 5.702363 0.857928 0
M  V30 13 O 3.023626 4.944496 -0.080795 0
M  V30 14 C 4.358777 4.817162 0.300021 0
M  V30 15 C 4.455871 3.814509 1.429767 0
M  V30 16 N 1.297925 0.880051 1.763773 0
M  V30 17 C 0.216511 -2.689310 1.397856 0
M  V30 18 C -1.046439 -3.118395 1.041567 0
M  V30 19 C -1.771607 -1.956866 0.863764 0
M  V30 20 C -3.196132 -2.030325 0.469710 0
M  V30 21 C -3.828319 -3.347340 0.767539 0
M  V30 22 N -3.011869 -4.499825 0.473468 0
M  V30 23 C -3.457583 -5.733747 -0.186406 0
M  V30 24 C -3.289492 -5.622796 -1.672300 0
M  V30 25 C -4.240179 -5.142011 -2.548592 0
M  V30 26 C -3.911791 -5.111590 -3.891232 0
M  V30 27 C -2.714181 -5.523892 -4.406409 0
M  V30 28 C -1.775185 -5.999422 -3.535388 0
M  V30 29 C -2.064906 -6.048147 -2.167588 0
M  V30 30 C -1.635679 -4.453244 0.853732 0
M  V30 31 O -0.964413 -5.481032 1.019222 0
M  V30 32 H -0.663488 1.049484 0.426444 0
M  V30 33 H -1.574729 0.942519 2.012902 0
M  V30 34 H -2.376569 0.543372 0.409560 0
M  V30 35 H 2.665060 -2.139337 2.083224 0
M  V30 36 H 4.580431 -0.620059 2.639984 0
M  V30 37 H 1.221809 3.507897 1.792738 0
M  V30 38 H 3.602555 3.804218 3.418674 0
M  V30 39 H 1.935375 5.575803 2.939627 0
M  V30 40 H 3.580723 6.137866 2.546541 0
M  V30 41 H 2.548106 6.769142 0.644237 0
M  V30 42 H 1.243876 5.491476 0.789164 0
M  V30 43 H 4.899739 4.438662 -0.594521 0
M  V30 44 H 4.813303 5.794703 0.563603 0
M  V30 45 H 4.395193 2.820760 0.963069 0
M  V30 46 H 5.420243 3.944531 1.954997 0
M  V30 47 H 1.025925 -3.379432 1.607843 0
M  V30 48 H -3.722259 -1.252436 1.070179 0
M  V30 49 H -3.350777 -1.825538 -0.609472 0
M  V30 50 H -4.091852 -3.390331 1.858015 0
M  V30 51 H -4.797821 -3.370174 0.203908 0
M  V30 52 H -4.540614 -5.832965 -0.012163 0
M  V30 53 H -2.875097 -6.591902 0.191991 0
M  V30 54 H -5.174161 -4.823111 -2.124704 0
M  V30 55 H -4.670915 -4.731973 -4.555013 0
M  V30 56 H -2.518232 -5.473194 -5.480143 0
M  V30 57 H -0.821574 -6.330389 -3.923293 0
M  V30 58 H -1.265867 -6.436904 -1.559510 0
M  V30 END ATOM
M  V30 BEGIN BOND
M  V30 1 1 1 2
M  V30 2 1 2 3
M  V30 3 1 3 4
M  V30 4 2 4 5
M  V30 5 1 5 6
M  V30 6 2 6 7
M  V30 7 1 7 8
M  V30 8 1 8 9
M  V30 9 1 9 10
M  V30 10 1 10 11
M  V30 11 1 11 12
M  V30 12 1 12 13
M  V30 13 1 13 14
M  V30 14 1 14 15
M  V30 15 2 8 16
M  V30 16 2 3 17
M  V30 17 1 17 18
M  V30 18 2 18 19
M  V30 19 1 19 20
M  V30 20 1 20 21
M  V30 21 1 21 22
M  V30 22 1 22 23
M  V30 23 1 23 24
M  V30 24 2 24 25
M  V30 25 1 25 26
M  V30 26 2 26 27
M  V30 27 1 27 28
M  V30 28 2 28 29
M  V30 29 1 22 30
M  V30 30 2 30 31
M  V30 31 1 19 2
M  V30 32 1 29 24
M  V30 33 1 16 4
M  V30 34 1 30 18
M  V30 35 1 15 10
M  V30 36 1 1 32
M  V30 37 1 1 33
M  V30 38 1 1 34
M  V30 39 1 5 35
M  V30 40 1 6 36
M  V30 41 1 9 37
M  V30 42 1 10 38
M  V30 43 1 11 39
M  V30 44 1 11 40
M  V30 45 1 12 41
M  V30 46 1 12 42
M  V30 47 1 14 43
M  V30 48 1 14 44
M  V30 49 1 15 45
M  V30 50 1 15 46
M  V30 51 1 17 47
M  V30 52 1 20 48
M  V30 53 1 20 49
M  V30 54 1 21 50
M  V30 55 1 21 51
M  V30 56 1 23 52
M  V30 57 1 23 53
M  V30 58 1 25 54
M  V30 59 1 26 55
M  V30 60 1 27 56
M  V30 61 1 28 57
M  V30 62 1 29 58
M  V30 END BOND
M  V30 END CTAB
M  END
>  <Dataset>  (266) 
ChEMBL_Kinases

>  <Ligand_Instance>  (266) 
nan

>  <PDB_ID>  (266) 
nan

>  <Standardized_SMILES>  (266) 
Cn1c(-c2ccnc(NC3CCOCC3)n2)cc2c1CCN(Cc1ccccc1)C2=O

>  <Name>  (266) 
nan

>  <Pocket>  (266) 
nan

>  <ATP_Site>  (266) 
nan

>  <Peripheral>  (266) 
nan

>  <Num_H_Atoms_ProtBoundConf>  (266) 
nan

>  <Num_Resolved_Atoms>  (266) 
nan

>  <Num_Not_Resolved_Atoms>  (266) 
nan

$$$$
CHEMBL4794671
     RDKit          3D

  0  0  0  0  0  0  0  0  0  0999 V3000
M  V30 BEGIN CTAB
M  V30 COUNTS 48 51 0 0 0
M  V30 BEGIN ATOM
M  V30 1 O -1.370628 -2.936233 0.680563 0
M  V30 2 C -1.789364 -2.932756 1.890547 0
M  V30 3 N -0.914557 -2.259596 2.792990 0
M  V30 4 C 0.278409 -1.701215 2.192209 0
M  V30 5 C 1.509388 -2.290323 2.010194 0
M  V30 6 C 2.508429 -1.564098 1.401799 0
M  V30 7 C 2.308929 -0.275762 0.975141 0
M  V30 8 N 3.317005 0.491583 0.331922 0
M  V30 9 C 3.157048 1.867594 -0.010270 0
M  V30 10 N 2.518226 2.236456 -1.137912 0
M  V30 11 N 2.381086 3.520264 -1.448523 0
M  V30 12 C 2.848821 4.555921 -0.697928 0
M  V30 13 O 2.670613 5.742919 -1.073670 0
M  V30 14 C 3.519414 4.229459 0.481654 0
M  V30 15 C 4.020798 5.240482 1.280517 0
M  V30 16 C 4.685032 4.898180 2.440421 0
M  V30 17 C 4.843639 3.568910 2.792943 0
M  V30 18 C 4.327267 2.593627 1.965050 0
M  V30 19 C 3.652278 2.879501 0.789620 0
M  V30 20 C 1.082349 0.334639 1.147837 0
M  V30 21 C 0.062958 -0.389456 1.762052 0
M  V30 22 N -3.042417 -3.589472 2.148212 0
M  V30 23 C -3.658234 -4.171354 0.972032 0
M  V30 24 C -3.363694 -5.483347 0.627224 0
M  V30 25 C -3.986747 -5.967459 -0.517988 0
M  V30 26 C -4.856054 -5.179534 -1.273851 0
M  V30 27 Cl -5.598685 -5.888812 -2.715959 0
M  V30 28 C -5.111294 -3.865721 -0.874326 0
M  V30 29 C -6.052360 -3.048965 -1.716529 0
M  V30 30 F -5.548166 -2.945923 -3.008352 0
M  V30 31 F -7.313080 -3.553611 -1.661256 0
M  V30 32 F -6.049629 -1.759137 -1.186303 0
M  V30 33 C -4.511516 -3.346205 0.258638 0
M  V30 34 H -1.282957 -2.271592 3.792550 0
M  V30 35 H 1.566103 -3.298023 2.376677 0
M  V30 36 H 3.460295 -2.042127 1.272146 0
M  V30 37 H 4.260464 0.213923 0.028553 0
M  V30 38 H 1.867331 3.722416 -2.349067 0
M  V30 39 H 3.869001 6.285340 0.958518 0
M  V30 40 H 5.066657 5.737665 3.044548 0
M  V30 41 H 5.371353 3.337136 3.709664 0
M  V30 42 H 4.462976 1.564878 2.256642 0
M  V30 43 H 0.929026 1.359431 0.806538 0
M  V30 44 H -0.879032 0.154085 1.867850 0
M  V30 45 H -3.281882 -3.521783 3.164932 0
M  V30 46 H -2.692463 -6.099816 1.204929 0
M  V30 47 H -3.792643 -6.982439 -0.829538 0
M  V30 48 H -4.705467 -2.336862 0.571088 0
M  V30 END ATOM
M  V30 BEGIN BOND
M  V30 1 2 1 2
M  V30 2 1 2 3
M  V30 3 1 3 4
M  V30 4 2 4 5
M  V30 5 1 5 6
M  V30 6 2 6 7
M  V30 7 1 7 8
M  V30 8 1 8 9
M  V30 9 2 9 10
M  V30 10 1 10 11
M  V30 11 1 11 12
M  V30 12 2 12 13
M  V30 13 1 12 14
M  V30 14 2 14 15
M  V30 15 1 15 16
M  V30 16 2 16 17
M  V30 17 1 17 18
M  V30 18 2 18 19
M  V30 19 1 7 20
M  V30 20 2 20 21
M  V30 21 1 2 22
M  V30 22 1 22 23
M  V30 23 2 23 24
M  V30 24 1 24 25
M  V30 25 2 25 26
M  V30 26 1 26 27
M  V30 27 1 26 28
M  V30 28 1 28 29
M  V30 29 1 29 30
M  V30 30 1 29 31
M  V30 31 1 29 32
M  V30 32 2 28 33
M  V30 33 1 21 4
M  V30 34 1 33 23
M  V30 35 1 19 9
M  V30 36 1 19 14
M  V30 37 1 3 34
M  V30 38 1 5 35
M  V30 39 1 6 36
M  V30 40 1 8 37
M  V30 41 1 11 38
M  V30 42 1 15 39
M  V30 43 1 16 40
M  V30 44 1 17 41
M  V30 45 1 18 42
M  V30 46 1 20 43
M  V30 47 1 21 44
M  V30 48 1 22 45
M  V30 49 1 24 46
M  V30 50 1 25 47
M  V30 51 1 33 48
M  V30 END BOND
M  V30 END CTAB
M  END
>  <Dataset>  (267) 
ChEMBL_Kinases

>  <Ligand_Instance>  (267) 
nan

>  <PDB_ID>  (267) 
nan

>  <Standardized_SMILES>  (267) 
O=C(Nc1ccc(Nc2n[nH]c(=O)c3ccccc23)cc1)Nc1ccc(Cl)c(C(F)(F)F)c1

>  <Name>  (267) 
nan

>  <Pocket>  (267) 
nan

>  <ATP_Site>  (267) 
nan

>  <Peripheral>  (267) 
nan

>  <Num_H_Atoms_ProtBoundConf>  (267) 
nan

>  <Num_Resolved_Atoms>  (267) 
nan

>  <Num_Not_Resolved_Atoms>  (267) 
nan

$$$$
CHEMBL4104844
     RDKit          3D

  0  0  0  0  0  0  0  0  0  0999 V3000
M  V30 BEGIN CTAB
M  V30 COUNTS 53 58 0 0 0
M  V30 BEGIN ATOM
M  V30 1 C -2.265886 1.641553 3.850953 0
M  V30 2 C -0.929706 1.680125 4.269521 0
M  V30 3 C 0.037108 1.307112 3.350788 0
M  V30 4 C -0.251292 0.906168 2.063771 0
M  V30 5 C 0.703804 0.531480 1.142010 0
M  V30 6 N 2.047600 0.581550 1.598247 0
M  V30 7 C 3.071459 1.566735 1.571116 0
M  V30 8 C 4.241442 1.228794 2.214423 0
M  V30 9 C 5.257295 2.160569 2.204546 0
M  V30 10 C 5.046230 3.370528 1.555426 0
M  V30 11 N 5.855697 4.437266 1.396896 0
M  V30 12 N 5.236630 5.381296 0.701294 0
M  V30 13 C 3.977700 4.974473 0.366637 0
M  V30 14 C 3.868352 3.695809 0.914772 0
M  V30 15 C 2.829750 2.756717 0.918585 0
M  V30 16 N 0.359544 0.147933 -0.102052 0
M  V30 17 C -0.940269 0.129432 -0.453416 0
M  V30 18 N -1.415502 -0.257411 -1.736238 0
M  V30 19 C -1.747326 -1.631675 -1.949766 0
M  V30 20 C -2.841321 -2.120699 -1.024393 0
M  V30 21 C -3.174824 -3.548298 -1.257062 0
M  V30 22 C -4.298409 -4.039700 -1.926711 0
M  V30 23 N -4.254364 -5.400442 -1.937835 0
M  V30 24 C -3.137135 -5.822196 -1.296588 0
M  V30 25 C -2.601397 -7.079336 -1.017280 0
M  V30 26 C -1.409816 -7.162452 -0.323027 0
M  V30 27 C -0.719273 -6.027321 0.111187 0
M  V30 28 C -1.265766 -4.781939 -0.174711 0
M  V30 29 C -2.464285 -4.690772 -0.872879 0
M  V30 30 N -1.930094 0.488047 0.412797 0
M  V30 31 C -1.574537 0.867938 1.648371 0
M  V30 32 C -2.567778 1.238079 2.552813 0
M  V30 33 H -3.078850 1.926037 4.535249 0
M  V30 34 H -0.680512 1.993010 5.277902 0
M  V30 35 H 1.098792 1.324828 3.643838 0
M  V30 36 H 2.148534 -0.370447 2.009458 0
M  V30 37 H 4.376724 0.273487 2.713811 0
M  V30 38 H 6.215921 1.956564 2.699013 0
M  V30 39 H 6.848883 4.531061 1.766366 0
M  V30 40 H 3.176798 5.430186 -0.178165 0
M  V30 41 H 1.881590 2.964122 0.427909 0
M  V30 42 H -1.501687 0.493045 -2.475238 0
M  V30 43 H -0.878411 -2.299230 -1.845236 0
M  V30 44 H -2.147969 -1.748710 -2.997871 0
M  V30 45 H -3.772146 -1.536141 -1.132228 0
M  V30 46 H -2.535759 -2.026203 0.049579 0
M  V30 47 H -5.099842 -3.454583 -2.379046 0
M  V30 48 H -4.981659 -6.019772 -2.379724 0
M  V30 49 H -3.118795 -7.979603 -1.343658 0
M  V30 50 H -0.985684 -8.149102 -0.101424 0
M  V30 51 H 0.215075 -6.158528 0.653856 0
M  V30 52 H -0.735448 -3.888879 0.159706 0
M  V30 53 H -3.603118 1.195513 2.191312 0
M  V30 END ATOM
M  V30 BEGIN BOND
M  V30 1 2 1 2
M  V30 2 1 2 3
M  V30 3 2 3 4
M  V30 4 1 4 5
M  V30 5 1 5 6
M  V30 6 1 6 7
M  V30 7 2 7 8
M  V30 8 1 8 9
M  V30 9 2 9 10
M  V30 10 1 10 11
M  V30 11 1 11 12
M  V30 12 2 12 13
M  V30 13 1 13 14
M  V30 14 2 14 15
M  V30 15 2 5 16
M  V30 16 1 16 17
M  V30 17 1 17 18
M  V30 18 1 18 19
M  V30 19 1 19 20
M  V30 20 1 20 21
M  V30 21 2 21 22
M  V30 22 1 22 23
M  V30 23 1 23 24
M  V30 24 2 24 25
M  V30 25 1 25 26
M  V30 26 2 26 27
M  V30 27 1 27 28
M  V30 28 2 28 29
M  V30 29 2 17 30
M  V30 30 1 30 31
M  V30 31 2 31 32
M  V30 32 1 32 1
M  V30 33 1 31 4
M  V30 34 1 15 7
M  V30 35 1 29 21
M  V30 36 1 14 10
M  V30 37 1 29 24
M  V30 38 1 1 33
M  V30 39 1 2 34
M  V30 40 1 3 35
M  V30 41 1 6 36
M  V30 42 1 8 37
M  V30 43 1 9 38
M  V30 44 1 11 39
M  V30 45 1 13 40
M  V30 46 1 15 41
M  V30 47 1 18 42
M  V30 48 1 19 43
M  V30 49 1 19 44
M  V30 50 1 20 45
M  V30 51 1 20 46
M  V30 52 1 22 47
M  V30 53 1 23 48
M  V30 54 1 25 49
M  V30 55 1 26 50
M  V30 56 1 27 51
M  V30 57 1 28 52
M  V30 58 1 32 53
M  V30 END BOND
M  V30 END CTAB
M  END
>  <Dataset>  (268) 
ChEMBL_Kinases

>  <Ligand_Instance>  (268) 
nan

>  <PDB_ID>  (268) 
nan

>  <Standardized_SMILES>  (268) 
c1ccc2c(Nc3ccc4[nH]ncc4c3)nc(NCCc3c[nH]c4ccccc34)nc2c1

>  <Name>  (268) 
nan

>  <Pocket>  (268) 
nan

>  <ATP_Site>  (268) 
nan

>  <Peripheral>  (268) 
nan

>  <Num_H_Atoms_ProtBoundConf>  (268) 
nan

>  <Num_Resolved_Atoms>  (268) 
nan

>  <Num_Not_Resolved_Atoms>  (268) 
nan

$$$$
CHEMBL4794231
     RDKit          3D

  0  0  0  0  0  0  0  0  0  0999 V3000
M  V30 BEGIN CTAB
M  V30 COUNTS 55 58 0 0 0
M  V30 BEGIN ATOM
M  V30 1 C 5.655392 -2.463100 1.039966 0
M  V30 2 O 4.772901 -3.523220 1.249361 0
M  V30 3 C 3.414954 -3.355875 1.297890 0
M  V30 4 O 2.994379 -2.183316 1.142510 0
M  V30 5 C 1.927253 -3.529903 1.405388 0
M  V30 6 O 1.324677 -2.298121 1.250668 0
M  V30 7 C 0.658977 -1.496535 2.123201 0
M  V30 8 C 0.197404 -0.285536 1.586740 0
M  V30 9 C -0.491512 0.610585 2.374308 0
M  V30 10 C -0.953893 1.858660 1.774219 0
M  V30 11 C -1.100189 3.092413 2.418600 0
M  V30 12 N -1.550096 3.980207 1.511971 0
M  V30 13 N -1.698818 3.388188 0.331891 0
M  V30 14 C -2.170586 4.049743 -0.884475 0
M  V30 15 C -3.680207 4.095816 -0.929747 0
M  V30 16 C -4.106076 2.636787 -0.807619 0
M  V30 17 N -3.661287 1.867594 -1.901843 0
M  V30 18 C -2.492215 2.220005 -2.590289 0
M  V30 19 C -1.678716 3.363111 -2.113966 0
M  V30 20 C -1.341548 2.074295 0.446678 0
M  V30 21 C -0.784616 0.419285 3.707096 0
M  V30 22 N -0.331968 -0.751626 4.204077 0
M  V30 23 C 0.339949 -1.631600 3.446483 0
M  V30 24 N 0.727683 -2.791048 4.146864 0
M  V30 25 C 1.427281 -4.503074 0.432023 0
M  V30 26 C 2.196624 -5.658677 0.398808 0
M  V30 27 Cl 3.616787 -6.094432 1.337656 0
M  V30 28 C 1.867528 -6.697077 -0.479560 0
M  V30 29 C 0.784946 -6.629913 -1.340243 0
M  V30 30 C 0.011403 -5.472239 -1.308985 0
M  V30 31 F -1.063446 -5.289520 -2.095493 0
M  V30 32 C 0.362868 -4.478008 -0.438004 0
M  V30 33 Cl -0.579412 -3.011537 -0.370711 0
M  V30 34 H 5.118649 -1.585286 0.673367 0
M  V30 35 H 6.147680 -2.229799 2.021323 0
M  V30 36 H 6.418700 -2.834588 0.311099 0
M  V30 37 H 1.785826 -3.947444 2.440853 0
M  V30 38 H 0.369275 -0.021398 0.541158 0
M  V30 39 H -0.883969 3.268207 3.453648 0
M  V30 40 H -1.809777 5.097098 -0.846049 0
M  V30 41 H -3.961186 4.417082 -1.949570 0
M  V30 42 H -4.127212 4.679675 -0.119903 0
M  V30 43 H -5.216982 2.646831 -0.806750 0
M  V30 44 H -3.833675 2.219500 0.198145 0
M  V30 45 H -3.715908 0.853445 -1.634198 0
M  V30 46 H -2.788562 2.437278 -3.647607 0
M  V30 47 H -1.869913 1.288749 -2.698671 0
M  V30 48 H -0.642176 3.000654 -1.896065 0
M  V30 49 H -1.526519 4.145859 -2.892011 0
M  V30 50 H -1.353361 1.343594 -0.326528 0
M  V30 51 H -1.324205 1.131120 4.306814 0
M  V30 52 H 0.686035 -3.713362 4.594280 0
M  V30 53 H 1.019328 -3.627557 4.655939 0
M  V30 54 H 2.382273 -7.649972 -0.606302 0
M  V30 55 H 0.474341 -7.372955 -2.031188 0
M  V30 END ATOM
M  V30 BEGIN BOND
M  V30 1 1 1 2
M  V30 2 1 2 3
M  V30 3 2 3 4
M  V30 4 1 3 5
M  V30 5 1 5 6
M  V30 6 1 6 7
M  V30 7 2 7 8
M  V30 8 1 8 9
M  V30 9 1 9 10
M  V30 10 1 10 11
M  V30 11 2 11 12
M  V30 12 1 12 13
M  V30 13 1 13 14
M  V30 14 1 14 15
M  V30 15 1 15 16
M  V30 16 1 16 17
M  V30 17 1 17 18
M  V30 18 1 18 19
M  V30 19 1 13 20
M  V30 20 2 9 21
M  V30 21 1 21 22
M  V30 22 2 22 23
M  V30 23 1 23 24
M  V30 24 1 5 25
M  V30 25 2 25 26
M  V30 26 1 26 27
M  V30 27 1 26 28
M  V30 28 2 28 29
M  V30 29 1 29 30
M  V30 30 1 30 31
M  V30 31 2 30 32
M  V30 32 1 32 33
M  V30 33 1 23 7
M  V30 34 1 32 25
M  V30 35 2 20 10
M  V30 36 1 19 14
M  V30 37 1 1 34
M  V30 38 1 1 35
M  V30 39 1 1 36
M  V30 40 1 5 37
M  V30 41 1 8 38
M  V30 42 1 11 39
M  V30 43 1 14 40
M  V30 44 1 15 41
M  V30 45 1 15 42
M  V30 46 1 16 43
M  V30 47 1 16 44
M  V30 48 1 17 45
M  V30 49 1 18 46
M  V30 50 1 18 47
M  V30 51 1 19 48
M  V30 52 1 19 49
M  V30 53 1 20 50
M  V30 54 1 21 51
M  V30 55 1 24 52
M  V30 56 1 24 53
M  V30 57 1 28 54
M  V30 58 1 29 55
M  V30 END BOND
M  V30 END CTAB
M  END
>  <Dataset>  (269) 
ChEMBL_Kinases

>  <Ligand_Instance>  (269) 
nan

>  <PDB_ID>  (269) 
nan

>  <Standardized_SMILES>  (269) 
COC(=O)C(Oc1cc(-c2cnn(C3CCNCC3)c2)cnc1N)c1c(Cl)ccc(F)c1Cl

>  <Name>  (269) 
nan

>  <Pocket>  (269) 
nan

>  <ATP_Site>  (269) 
nan

>  <Peripheral>  (269) 
nan

>  <Num_H_Atoms_ProtBoundConf>  (269) 
nan

>  <Num_Resolved_Atoms>  (269) 
nan

>  <Num_Not_Resolved_Atoms>  (269) 
nan

$$$$
CHEMBL4104732
     RDKit          3D

  0  0  0  0  0  0  0  0  0  0999 V3000
M  V30 BEGIN CTAB
M  V30 COUNTS 47 50 0 0 0
M  V30 BEGIN ATOM
M  V30 1 O -0.136250 -3.363810 3.681482 0
M  V30 2 C 0.721844 -3.447205 2.751748 0
M  V30 3 N 1.279873 -4.613766 2.398623 0
M  V30 4 C 2.185313 -4.647188 1.405388 0
M  V30 5 C 2.577716 -3.519751 0.716865 0
M  V30 6 C 2.010652 -2.289067 1.065184 0
M  V30 7 N 2.368898 -1.150529 0.412676 0
M  V30 8 C 1.806271 -0.005067 0.776591 0
M  V30 9 N 2.150838 1.204242 0.113338 0
M  V30 10 C 3.100646 1.178814 -0.987164 0
M  V30 11 C 2.557694 1.860669 -2.210506 0
M  V30 12 C 1.224274 2.527637 -1.999111 0
M  V30 13 O 1.040270 3.420687 -3.052315 0
M  V30 14 C 1.115892 3.270251 -0.704997 0
M  V30 15 C 1.599563 2.488367 0.475669 0
M  V30 16 N 0.884566 0.079592 1.776913 0
M  V30 17 C 0.519098 -1.041520 2.433353 0
M  V30 18 N -0.446384 -1.071435 3.504914 0
M  V30 19 C -1.820429 -1.225234 3.099438 0
M  V30 20 C -2.864125 -1.326465 4.001141 0
M  V30 21 C -4.178406 -1.470357 3.637411 0
M  V30 22 C -4.470981 -1.516063 2.280751 0
M  V30 23 C -3.490532 -1.421735 1.330374 0
M  V30 24 C -3.721737 -1.458886 -0.125212 0
M  V30 25 F -4.664455 -2.425236 -0.412110 0
M  V30 26 F -4.247616 -0.248988 -0.561292 0
M  V30 27 F -2.556542 -1.696955 -0.808433 0
M  V30 28 C -2.199866 -1.279890 1.767185 0
M  V30 29 C 1.075828 -2.271677 2.094619 0
M  V30 30 H 0.977086 -5.473946 2.927017 0
M  V30 31 H 2.629127 -5.612486 1.132317 0
M  V30 32 H 3.291783 -3.513751 -0.073903 0
M  V30 33 H 4.065458 1.652745 -0.720314 0
M  V30 34 H 3.355165 0.113090 -1.257921 0
M  V30 35 H 3.257969 2.639755 -2.600078 0
M  V30 36 H 2.394930 1.123940 -3.048105 0
M  V30 37 H 0.428904 1.758333 -2.123093 0
M  V30 38 H 0.688823 4.267549 -2.698377 0
M  V30 39 H 0.042756 3.551494 -0.561499 0
M  V30 40 H 1.668249 4.230642 -0.827702 0
M  V30 41 H 0.776879 2.371621 1.209544 0
M  V30 42 H 2.409247 3.077068 0.972313 0
M  V30 43 H -0.292700 -0.996491 4.531654 0
M  V30 44 H -2.644754 -1.291996 5.063633 0
M  V30 45 H -4.987172 -1.549465 4.341784 0
M  V30 46 H -5.501540 -1.629445 1.951882 0
M  V30 47 H -1.392034 -1.202360 1.039923 0
M  V30 END ATOM
M  V30 BEGIN BOND
M  V30 1 2 1 2
M  V30 2 1 2 3
M  V30 3 1 3 4
M  V30 4 2 4 5
M  V30 5 1 5 6
M  V30 6 2 6 7
M  V30 7 1 7 8
M  V30 8 1 8 9
M  V30 9 1 9 10
M  V30 10 1 10 11
M  V30 11 1 11 12
M  V30 12 1 12 13
M  V30 13 1 12 14
M  V30 14 1 14 15
M  V30 15 2 8 16
M  V30 16 1 16 17
M  V30 17 1 17 18
M  V30 18 1 18 19
M  V30 19 2 19 20
M  V30 20 1 20 21
M  V30 21 2 21 22
M  V30 22 1 22 23
M  V30 23 1 23 24
M  V30 24 1 24 25
M  V30 25 1 24 26
M  V30 26 1 24 27
M  V30 27 2 23 28
M  V30 28 2 17 29
M  V30 29 1 29 2
M  V30 30 1 29 6
M  V30 31 1 15 9
M  V30 32 1 28 19
M  V30 33 1 3 30
M  V30 34 1 4 31
M  V30 35 1 5 32
M  V30 36 1 10 33
M  V30 37 1 10 34
M  V30 38 1 11 35
M  V30 39 1 11 36
M  V30 40 1 12 37
M  V30 41 1 13 38
M  V30 42 1 14 39
M  V30 43 1 14 40
M  V30 44 1 15 41
M  V30 45 1 15 42
M  V30 46 1 18 43
M  V30 47 1 20 44
M  V30 48 1 21 45
M  V30 49 1 22 46
M  V30 50 1 28 47
M  V30 END BOND
M  V30 END CTAB
M  END
>  <Dataset>  (270) 
ChEMBL_Kinases

>  <Ligand_Instance>  (270) 
nan

>  <PDB_ID>  (270) 
nan

>  <Standardized_SMILES>  (270) 
O=c1[nH]ccc2nc(N3CCC(O)CC3)nc(Nc3cccc(C(F)(F)F)c3)c12

>  <Name>  (270) 
nan

>  <Pocket>  (270) 
nan

>  <ATP_Site>  (270) 
nan

>  <Peripheral>  (270) 
nan

>  <Num_H_Atoms_ProtBoundConf>  (270) 
nan

>  <Num_Resolved_Atoms>  (270) 
nan

>  <Num_Not_Resolved_Atoms>  (270) 
nan

$$$$
CHEMBL4104714
     RDKit          3D

  0  0  0  0  0  0  0  0  0  0999 V3000
M  V30 BEGIN CTAB
M  V30 COUNTS 46 49 0 0 0
M  V30 BEGIN ATOM
M  V30 1 C -0.793350 -4.035989 1.637980 0
M  V30 2 N -1.407652 -2.747308 1.420778 0
M  V30 3 C -0.677978 -1.843529 0.701405 0
M  V30 4 N 0.595312 -2.185245 0.205619 0
M  V30 5 C 0.964824 -2.624704 -1.153500 0
M  V30 6 C 2.432168 -2.848612 -1.228250 0
M  V30 7 N 3.106497 -1.646730 -0.781375 0
M  V30 8 C 2.906465 -1.409662 0.629780 0
M  V30 9 C 2.972796 0.023429 0.990913 0
M  V30 10 C 2.391836 1.064548 0.338439 0
M  V30 11 C 2.370775 2.406311 0.563204 0
M  V30 12 C 3.118171 2.720451 1.717768 0
M  V30 13 Cl 3.223766 4.411646 2.192582 0
M  V30 14 C 3.780965 1.796411 2.511256 0
M  V30 15 C 3.671660 0.494214 2.102789 0
M  V30 16 C 1.674378 -2.105366 1.156793 0
M  V30 17 N -1.304864 -0.638123 0.531080 0
M  V30 18 C -2.518225 -0.365119 1.021187 0
M  V30 19 C -3.071251 0.979931 0.751806 0
M  V30 20 C -2.352480 1.890786 0.029790 0
M  V30 21 C -2.934696 3.125627 -0.176575 0
M  V30 22 N -4.149574 3.461423 0.291623 0
M  V30 23 C -4.852546 2.539950 1.009356 0
M  V30 24 N -4.293507 1.312999 1.224004 0
M  V30 25 C -3.195443 -1.304990 1.728763 0
M  V30 26 C -2.628461 -2.542447 1.941365 0
M  V30 27 O -3.216097 -3.444652 2.590274 0
M  V30 28 H -0.113758 -4.327623 0.817127 0
M  V30 29 H -1.620086 -4.799896 1.607263 0
M  V30 30 H -0.357554 -4.167584 2.645456 0
M  V30 31 H 0.332071 -3.423643 -1.532894 0
M  V30 32 H 0.760646 -1.698066 -1.773429 0
M  V30 33 H 2.752447 -3.724895 -0.636508 0
M  V30 34 H 2.730116 -3.016951 -2.277006 0
M  V30 35 H 2.958414 -0.842461 -1.392150 0
M  V30 36 H 3.784108 -1.868717 1.131830 0
M  V30 37 H 1.825120 0.766910 -0.545141 0
M  V30 38 H 1.863334 3.117703 -0.041949 0
M  V30 39 H 4.333866 2.112286 3.380473 0
M  V30 40 H 4.207262 -0.223276 2.750711 0
M  V30 41 H 1.396339 -1.602906 2.101941 0
M  V30 42 H 1.974876 -3.175119 1.340136 0
M  V30 43 H -1.353207 1.682340 -0.381934 0
M  V30 44 H -2.398527 3.898772 -0.751159 0
M  V30 45 H -5.826448 2.818602 1.380369 0
M  V30 46 H -4.174209 -1.057198 2.115912 0
M  V30 END ATOM
M  V30 BEGIN BOND
M  V30 1 1 1 2
M  V30 2 1 2 3
M  V30 3 1 3 4
M  V30 4 1 4 5
M  V30 5 1 5 6
M  V30 6 1 6 7
M  V30 7 1 7 8
M  V30 8 1 8 9
M  V30 9 2 9 10
M  V30 10 1 10 11
M  V30 11 2 11 12
M  V30 12 1 12 13
M  V30 13 1 12 14
M  V30 14 2 14 15
M  V30 15 1 8 16
M  V30 16 2 3 17
M  V30 17 1 17 18
M  V30 18 1 18 19
M  V30 19 2 19 20
M  V30 20 1 20 21
M  V30 21 2 21 22
M  V30 22 1 22 23
M  V30 23 2 23 24
M  V30 24 2 18 25
M  V30 25 1 25 26
M  V30 26 2 26 27
M  V30 27 1 26 2
M  V30 28 1 16 4
M  V30 29 1 24 19
M  V30 30 1 15 9
M  V30 31 1 1 28
M  V30 32 1 1 29
M  V30 33 1 1 30
M  V30 34 1 5 31
M  V30 35 1 5 32
M  V30 36 1 6 33
M  V30 37 1 6 34
M  V30 38 1 7 35
M  V30 39 1 8 36
M  V30 40 1 10 37
M  V30 41 1 11 38
M  V30 42 1 14 39
M  V30 43 1 15 40
M  V30 44 1 16 41
M  V30 45 1 16 42
M  V30 46 1 20 43
M  V30 47 1 21 44
M  V30 48 1 23 45
M  V30 49 1 25 46
M  V30 END BOND
M  V30 END CTAB
M  END
>  <Dataset>  (271) 
ChEMBL_Kinases

>  <Ligand_Instance>  (271) 
nan

>  <PDB_ID>  (271) 
nan

>  <Standardized_SMILES>  (271) 
Cn1c(N2CCNC(c3ccc(Cl)cc3)C2)nc(-c2ccncn2)cc1=O

>  <Name>  (271) 
nan

>  <Pocket>  (271) 
nan

>  <ATP_Site>  (271) 
nan

>  <Peripheral>  (271) 
nan

>  <Num_H_Atoms_ProtBoundConf>  (271) 
nan

>  <Num_Resolved_Atoms>  (271) 
nan

>  <Num_Not_Resolved_Atoms>  (271) 
nan

$$$$
CHEMBL4794318
     RDKit          3D

  0  0  0  0  0  0  0  0  0  0999 V3000
M  V30 BEGIN CTAB
M  V30 COUNTS 47 50 0 0 0
M  V30 BEGIN ATOM
M  V30 1 C 4.511777 -3.574854 1.058964 0
M  V30 2 S 6.042179 -2.773612 1.476027 0
M  V30 3 O 6.722954 -3.599114 2.516409 0
M  V30 4 O 6.890273 -2.585753 0.254778 0
M  V30 5 N 5.685983 -1.234408 2.150449 0
M  V30 6 C 5.005220 -0.216830 1.424067 0
M  V30 7 C 5.296470 0.125923 0.120517 0
M  V30 8 C 4.620095 1.119005 -0.563966 0
M  V30 9 C 3.596836 1.807103 0.089916 0
M  V30 10 C 3.299657 1.470252 1.393281 0
M  V30 11 C 2.182346 2.271240 2.004205 0
M  V30 12 C 0.898923 1.621642 1.767279 0
M  V30 13 O 0.916353 0.552288 1.125775 0
M  V30 14 N -0.316610 2.136275 2.218518 0
M  V30 15 C -1.632929 1.501145 1.994148 0
M  V30 16 C -1.995101 0.409711 1.384314 0
M  V30 17 C -3.318494 0.071214 1.338133 0
M  V30 18 C -3.864098 -1.141262 0.677720 0
M  V30 19 C -3.296843 -2.412925 0.821573 0
M  V30 20 N -4.043000 -3.265394 0.091292 0
M  V30 21 C -5.059545 -2.589675 -0.510003 0
M  V30 22 N -6.054329 -2.986529 -1.325161 0
M  V30 23 C -6.939163 -2.082780 -1.780962 0
M  V30 24 C -6.880679 -0.742445 -1.450868 0
M  V30 25 C -5.852249 -0.342670 -0.610388 0
M  V30 26 C -4.958985 -1.263145 -0.151976 0
M  V30 27 C -4.226686 0.926896 1.956964 0
M  V30 28 S -3.070903 2.261677 2.618616 0
M  V30 29 C 3.990261 0.476928 2.049320 0
M  V30 30 H 4.531353 -3.969888 0.014522 0
M  V30 31 H 3.656142 -2.845178 1.095647 0
M  V30 32 H 4.238760 -4.365662 1.794960 0
M  V30 33 H 5.959617 -0.975299 3.142206 0
M  V30 34 H 6.079937 -0.394832 -0.392778 0
M  V30 35 H 4.852275 1.379667 -1.577069 0
M  V30 36 H 3.085057 2.579388 -0.471289 0
M  V30 37 H 2.226700 3.330265 1.742461 0
M  V30 38 H 2.391640 2.210190 3.110670 0
M  V30 39 H -0.246322 3.030682 2.745049 0
M  V30 40 H -1.245745 -0.217223 0.921007 0
M  V30 41 H -2.413104 -2.663209 1.416542 0
M  V30 42 H -3.899386 -4.302438 -0.025507 0
M  V30 43 H -7.744562 -2.411860 -2.442591 0
M  V30 44 H -7.620309 -0.042506 -1.843770 0
M  V30 45 H -5.777065 0.692938 -0.333395 0
M  V30 46 H -5.344882 0.817603 2.023672 0
M  V30 47 H 3.710269 0.263188 3.062318 0
M  V30 END ATOM
M  V30 BEGIN BOND
M  V30 1 1 1 2
M  V30 2 2 2 3
M  V30 3 2 2 4
M  V30 4 1 2 5
M  V30 5 1 5 6
M  V30 6 2 6 7
M  V30 7 1 7 8
M  V30 8 2 8 9
M  V30 9 1 9 10
M  V30 10 1 10 11
M  V30 11 1 11 12
M  V30 12 2 12 13
M  V30 13 1 12 14
M  V30 14 1 14 15
M  V30 15 2 15 16
M  V30 16 1 16 17
M  V30 17 1 17 18
M  V30 18 2 18 19
M  V30 19 1 19 20
M  V30 20 1 20 21
M  V30 21 2 21 22
M  V30 22 1 22 23
M  V30 23 2 23 24
M  V30 24 1 24 25
M  V30 25 2 25 26
M  V30 26 2 17 27
M  V30 27 1 27 28
M  V30 28 2 10 29
M  V30 29 1 29 6
M  V30 30 1 28 15
M  V30 31 1 26 18
M  V30 32 1 26 21
M  V30 33 1 1 30
M  V30 34 1 1 31
M  V30 35 1 1 32
M  V30 36 1 5 33
M  V30 37 1 7 34
M  V30 38 1 8 35
M  V30 39 1 9 36
M  V30 40 1 11 37
M  V30 41 1 11 38
M  V30 42 1 14 39
M  V30 43 1 16 40
M  V30 44 1 19 41
M  V30 45 1 20 42
M  V30 46 1 23 43
M  V30 47 1 24 44
M  V30 48 1 25 45
M  V30 49 1 27 46
M  V30 50 1 29 47
M  V30 END BOND
M  V30 END CTAB
M  END
>  <Dataset>  (272) 
ChEMBL_Kinases

>  <Ligand_Instance>  (272) 
nan

>  <PDB_ID>  (272) 
nan

>  <Standardized_SMILES>  (272) 
CS(=O)(=O)Nc1cccc(CC(=O)Nc2cc(-c3c[nH]c4ncccc34)cs2)c1

>  <Name>  (272) 
nan

>  <Pocket>  (272) 
nan

>  <ATP_Site>  (272) 
nan

>  <Peripheral>  (272) 
nan

>  <Num_H_Atoms_ProtBoundConf>  (272) 
nan

>  <Num_Resolved_Atoms>  (272) 
nan

>  <Num_Not_Resolved_Atoms>  (272) 
nan

$$$$
CHEMBL4794319
     RDKit          3D

  0  0  0  0  0  0  0  0  0  0999 V3000
M  V30 BEGIN CTAB
M  V30 COUNTS 50 54 0 0 0
M  V30 BEGIN ATOM
M  V30 1 O -0.457926 -2.502886 1.359939 0
M  V30 2 C -0.653889 -1.343948 1.828429 0
M  V30 3 C 0.267437 -0.340771 1.613430 0
M  V30 4 C 1.432900 -0.580495 0.876088 0
M  V30 5 C 2.333311 0.444123 0.679515 0
M  V30 6 N 3.513197 0.184047 -0.066863 0
M  V30 7 C 3.941538 -1.098187 -0.576471 0
M  V30 8 C 3.709582 -1.070227 -2.081150 0
M  V30 9 O 4.166829 0.161982 -2.601382 0
M  V30 10 C 5.129643 0.713825 -1.745145 0
M  V30 11 C 4.488907 1.185477 -0.445153 0
M  V30 12 C 2.153162 1.717699 1.174718 0
M  V30 13 C 0.984401 1.948869 1.911116 0
M  V30 14 C 0.082592 0.931227 2.110709 0
M  V30 15 N -1.041982 1.129203 2.811726 0
M  V30 16 C -1.517850 2.223282 3.420425 0
M  V30 17 S -0.948173 3.738833 3.564323 0
M  V30 18 N -2.693046 1.917780 3.995132 0
M  V30 19 N -2.954219 0.653041 3.753457 0
M  V30 20 C -1.928676 0.160454 3.017639 0
M  V30 21 N -1.774903 -1.105890 2.539631 0
M  V30 22 C -2.781321 -2.103090 2.807502 0
M  V30 23 C -3.872203 -2.149885 1.752781 0
M  V30 24 C -3.332804 -2.455733 0.415660 0
M  V30 25 C -3.179827 -3.726586 -0.107502 0
M  V30 26 C -2.664000 -3.873029 -1.373210 0
M  V30 27 C -2.278594 -2.847127 -2.182233 0
M  V30 28 C -2.443573 -1.596684 -1.632588 0
M  V30 29 C -2.954050 -1.361750 -0.369083 0
M  V30 30 H 1.528196 -1.589437 0.509301 0
M  V30 31 H 3.379679 -1.957786 -0.177044 0
M  V30 32 H 5.020565 -1.302586 -0.358203 0
M  V30 33 H 2.622330 -1.121125 -2.282040 0
M  V30 34 H 4.181741 -1.927660 -2.588063 0
M  V30 35 H 5.947615 0.008655 -1.604901 0
M  V30 36 H 5.514465 1.623459 -2.260772 0
M  V30 37 H 5.292310 1.228243 0.335636 0
M  V30 38 H 4.028819 2.197077 -0.609053 0
M  V30 39 H 2.868131 2.512344 1.014252 0
M  V30 40 H 0.890493 2.943453 2.271328 0
M  V30 41 H -3.392348 2.477939 4.566354 0
M  V30 42 H -3.210795 -1.901824 3.807819 0
M  V30 43 H -2.299289 -3.100226 2.815618 0
M  V30 44 H -4.551858 -2.984270 2.018996 0
M  V30 45 H -4.470885 -1.212684 1.768997 0
M  V30 46 H -3.485596 -4.535422 0.535560 0
M  V30 47 H -2.582753 -4.906305 -1.693918 0
M  V30 48 H -1.876899 -3.003629 -3.173261 0
M  V30 49 H -2.167102 -0.702196 -2.193906 0
M  V30 50 H -3.061759 -0.341011 0.015126 0
M  V30 END ATOM
M  V30 BEGIN BOND
M  V30 1 2 1 2
M  V30 2 1 2 3
M  V30 3 2 3 4
M  V30 4 1 4 5
M  V30 5 1 5 6
M  V30 6 1 6 7
M  V30 7 1 7 8
M  V30 8 1 8 9
M  V30 9 1 9 10
M  V30 10 1 10 11
M  V30 11 2 5 12
M  V30 12 1 12 13
M  V30 13 2 13 14
M  V30 14 1 14 15
M  V30 15 1 15 16
M  V30 16 2 16 17
M  V30 17 1 16 18
M  V30 18 1 18 19
M  V30 19 2 19 20
M  V30 20 1 20 21
M  V30 21 1 21 22
M  V30 22 1 22 23
M  V30 23 1 23 24
M  V30 24 2 24 25
M  V30 25 1 25 26
M  V30 26 2 26 27
M  V30 27 1 27 28
M  V30 28 2 28 29
M  V30 29 1 21 2
M  V30 30 1 29 24
M  V30 31 1 14 3
M  V30 32 1 20 15
M  V30 33 1 11 6
M  V30 34 1 4 30
M  V30 35 1 7 31
M  V30 36 1 7 32
M  V30 37 1 8 33
M  V30 38 1 8 34
M  V30 39 1 10 35
M  V30 40 1 10 36
M  V30 41 1 11 37
M  V30 42 1 11 38
M  V30 43 1 12 39
M  V30 44 1 13 40
M  V30 45 1 18 41
M  V30 46 1 22 42
M  V30 47 1 22 43
M  V30 48 1 23 44
M  V30 49 1 23 45
M  V30 50 1 25 46
M  V30 51 1 26 47
M  V30 52 1 27 48
M  V30 53 1 28 49
M  V30 54 1 29 50
M  V30 END BOND
M  V30 END CTAB
M  END
>  <Dataset>  (273) 
ChEMBL_Kinases

>  <Ligand_Instance>  (273) 
nan

>  <PDB_ID>  (273) 
nan

>  <Standardized_SMILES>  (273) 
O=c1c2cc(N3CCOCC3)ccc2n2c(=S)[nH]nc2n1CCc1ccccc1

>  <Name>  (273) 
nan

>  <Pocket>  (273) 
nan

>  <ATP_Site>  (273) 
nan

>  <Peripheral>  (273) 
nan

>  <Num_H_Atoms_ProtBoundConf>  (273) 
nan

>  <Num_Resolved_Atoms>  (273) 
nan

>  <Num_Not_Resolved_Atoms>  (273) 
nan

$$$$
CHEMBL4794323
     RDKit          3D

  0  0  0  0  0  0  0  0  0  0999 V3000
M  V30 BEGIN CTAB
M  V30 COUNTS 50 54 0 0 0
M  V30 BEGIN ATOM
M  V30 1 C -0.632168 -7.733665 -0.020652 0
M  V30 2 O -1.284409 -7.380260 1.195387 0
M  V30 3 C -1.064711 -6.098716 1.679967 0
M  V30 4 C -0.282207 -5.107441 1.125477 0
M  V30 5 C -0.207048 -3.898739 1.782952 0
M  V30 6 C 0.629006 -2.849237 1.184441 0
M  V30 7 C 0.209964 -1.552356 1.407536 0
M  V30 8 N 0.956305 -0.571906 0.871000 0
M  V30 9 C 2.066404 -0.753283 0.142303 0
M  V30 10 C 2.835070 0.180118 -0.407164 0
M  V30 11 C 2.714028 1.678398 -0.390928 0
M  V30 12 C 3.638158 2.450847 -1.038982 0
M  V30 13 C 3.585848 3.833713 -1.063575 0
M  V30 14 C 2.561599 4.475590 -0.409601 0
M  V30 15 C 1.621037 3.722606 0.248550 0
M  V30 16 N 0.517153 4.323907 0.957318 0
M  V30 17 C -0.538389 4.438860 0.012813 0
M  V30 18 O -0.273956 4.011857 -1.157454 0
M  V30 19 C -1.916061 5.002698 0.242851 0
M  V30 20 C -2.994815 4.410657 -0.652730 0
M  V30 21 C -2.525235 5.787976 -0.922459 0
M  V30 22 C 1.698673 2.347831 0.255925 0
M  V30 23 S 4.132717 -0.553218 -1.236936 0
M  V30 24 N 3.612257 -2.306107 -0.817371 0
M  V30 25 C 2.492659 -2.040868 -0.085960 0
M  V30 26 C 1.765416 -3.090878 0.440804 0
M  V30 27 C -0.885974 -3.649703 2.972019 0
M  V30 28 C -1.679054 -4.655515 3.533251 0
M  V30 29 C -1.747817 -5.861589 2.867724 0
M  V30 30 N -2.589104 -6.824122 3.529624 0
M  V30 31 H -0.845379 -8.807459 -0.280912 0
M  V30 32 H -0.945108 -7.104332 -0.869203 0
M  V30 33 H 0.477254 -7.703890 0.127217 0
M  V30 34 H 0.205550 -5.366858 0.219834 0
M  V30 35 H -0.681901 -1.293736 1.988130 0
M  V30 36 H 4.474019 2.030112 -1.577319 0
M  V30 37 H 4.331744 4.428335 -1.585537 0
M  V30 38 H 2.468723 5.547514 -0.393915 0
M  V30 39 H 0.274035 4.683859 1.915899 0
M  V30 40 H -2.180699 5.382385 1.246949 0
M  V30 41 H -4.045783 4.340583 -0.253826 0
M  V30 42 H -2.675853 3.627878 -1.363289 0
M  V30 43 H -3.205359 6.645451 -0.665604 0
M  V30 44 H -1.837451 6.029805 -1.773919 0
M  V30 45 H 0.944596 1.781879 0.782127 0
M  V30 46 H 1.964884 -4.128516 0.352699 0
M  V30 47 H -0.822526 -2.695028 3.484704 0
M  V30 48 H -2.198530 -4.440215 4.458912 0
M  V30 49 H -3.622932 -6.798502 3.633285 0
M  V30 50 H -3.593107 -6.538154 3.476901 0
M  V30 END ATOM
M  V30 BEGIN BOND
M  V30 1 1 1 2
M  V30 2 1 2 3
M  V30 3 2 3 4
M  V30 4 1 4 5
M  V30 5 1 5 6
M  V30 6 1 6 7
M  V30 7 2 7 8
M  V30 8 1 8 9
M  V30 9 2 9 10
M  V30 10 1 10 11
M  V30 11 2 11 12
M  V30 12 1 12 13
M  V30 13 2 13 14
M  V30 14 1 14 15
M  V30 15 1 15 16
M  V30 16 1 16 17
M  V30 17 2 17 18
M  V30 18 1 17 19
M  V30 19 1 19 20
M  V30 20 1 20 21
M  V30 21 2 15 22
M  V30 22 1 10 23
M  V30 23 1 23 24
M  V30 24 2 24 25
M  V30 25 1 25 26
M  V30 26 2 5 27
M  V30 27 1 27 28
M  V30 28 2 28 29
M  V30 29 1 29 30
M  V30 30 1 29 3
M  V30 31 2 26 6
M  V30 32 1 25 9
M  V30 33 1 22 11
M  V30 34 1 21 19
M  V30 35 1 1 31
M  V30 36 1 1 32
M  V30 37 1 1 33
M  V30 38 1 4 34
M  V30 39 1 7 35
M  V30 40 1 12 36
M  V30 41 1 13 37
M  V30 42 1 14 38
M  V30 43 1 16 39
M  V30 44 1 19 40
M  V30 45 1 20 41
M  V30 46 1 20 42
M  V30 47 1 21 43
M  V30 48 1 21 44
M  V30 49 1 22 45
M  V30 50 1 26 46
M  V30 51 1 27 47
M  V30 52 1 28 48
M  V30 53 1 30 49
M  V30 54 1 30 50
M  V30 END BOND
M  V30 END CTAB
M  END
>  <Dataset>  (274) 
ChEMBL_Kinases

>  <Ligand_Instance>  (274) 
nan

>  <PDB_ID>  (274) 
nan

>  <Standardized_SMILES>  (274) 
COc1cc(-c2cnc3c(-c4cccc(NC(=O)C5CC5)c4)snc3c2)ccc1N

>  <Name>  (274) 
nan

>  <Pocket>  (274) 
nan

>  <ATP_Site>  (274) 
nan

>  <Peripheral>  (274) 
nan

>  <Num_H_Atoms_ProtBoundConf>  (274) 
nan

>  <Num_Resolved_Atoms>  (274) 
nan

>  <Num_Not_Resolved_Atoms>  (274) 
nan

$$$$
CHEMBL4104642
     RDKit          3D

  0  0  0  0  0  0  0  0  0  0999 V3000
M  V30 BEGIN CTAB
M  V30 COUNTS 47 50 0 0 0
M  V30 BEGIN ATOM
M  V30 1 C 1.328991 -3.549737 2.448059 0
M  V30 2 N 0.121953 -2.971499 1.919794 0
M  V30 3 C 0.197454 -1.986244 1.012012 0
M  V30 4 N 1.425402 -1.409467 0.526275 0
M  V30 5 C 1.453652 -1.083086 -0.914423 0
M  V30 6 C 2.907877 -0.912125 -1.292104 0
M  V30 7 N 3.376596 0.306950 -0.656276 0
M  V30 8 C 3.154139 0.265658 0.785559 0
M  V30 9 C 2.395054 1.415218 1.287491 0
M  V30 10 C 1.324608 1.328714 2.134522 0
M  V30 11 C 0.653200 2.445729 2.562993 0
M  V30 12 C 1.023395 3.732436 2.159780 0
M  V30 13 C 2.114320 3.819506 1.296872 0
M  V30 14 C 2.775610 2.684843 0.877820 0
M  V30 15 Cl 4.120280 3.018361 -0.194525 0
M  V30 16 C 2.622660 -1.073705 1.223008 0
M  V30 17 N -0.926565 -1.433752 0.503154 0
M  V30 18 C -2.163168 -1.805035 0.843580 0
M  V30 19 C -3.381002 -1.228761 0.319270 0
M  V30 20 C -3.382032 -0.213934 -0.626278 0
M  V30 21 C -4.458980 0.413178 -1.184236 0
M  V30 22 N -5.676717 0.004376 -0.773444 0
M  V30 23 C -5.793383 -0.984000 0.150194 0
M  V30 24 C -4.657261 -1.581644 0.678303 0
M  V30 25 C -2.209251 -2.815656 1.773914 0
M  V30 26 C -1.092429 -3.414450 2.326488 0
M  V30 27 O -1.129242 -4.335332 3.174627 0
M  V30 28 H 1.097119 -4.595343 2.823088 0
M  V30 29 H 1.643297 -3.022190 3.369154 0
M  V30 30 H 2.127283 -3.709837 1.704756 0
M  V30 31 H 0.934560 -0.112551 -1.021978 0
M  V30 32 H 0.963193 -1.879976 -1.470445 0
M  V30 33 H 3.514676 -1.779871 -1.030007 0
M  V30 34 H 2.952874 -0.763013 -2.389131 0
M  V30 35 H 2.804484 1.074416 -1.116825 0
M  V30 36 H 4.193777 0.362771 1.220649 0
M  V30 37 H 0.990295 0.376173 2.484149 0
M  V30 38 H -0.212312 2.462531 3.243305 0
M  V30 39 H 0.513132 4.630722 2.481054 0
M  V30 40 H 2.381153 4.836453 0.998245 0
M  V30 41 H 2.519318 -1.073265 2.325032 0
M  V30 42 H 3.408533 -1.816859 0.991992 0
M  V30 43 H -2.389063 0.121074 -0.963333 0
M  V30 44 H -4.292177 1.204937 -1.925054 0
M  V30 45 H -6.758221 -1.295606 0.465571 0
M  V30 46 H -4.792903 -2.359370 1.407623 0
M  V30 47 H -3.134094 -3.242012 2.161323 0
M  V30 END ATOM
M  V30 BEGIN BOND
M  V30 1 1 1 2
M  V30 2 1 2 3
M  V30 3 1 3 4
M  V30 4 1 4 5
M  V30 5 1 5 6
M  V30 6 1 6 7
M  V30 7 1 7 8
M  V30 8 1 8 9
M  V30 9 2 9 10
M  V30 10 1 10 11
M  V30 11 2 11 12
M  V30 12 1 12 13
M  V30 13 2 13 14
M  V30 14 1 14 15
M  V30 15 1 8 16
M  V30 16 2 3 17
M  V30 17 1 17 18
M  V30 18 1 18 19
M  V30 19 2 19 20
M  V30 20 1 20 21
M  V30 21 2 21 22
M  V30 22 1 22 23
M  V30 23 2 23 24
M  V30 24 2 18 25
M  V30 25 1 25 26
M  V30 26 2 26 27
M  V30 27 1 26 2
M  V30 28 1 16 4
M  V30 29 1 24 19
M  V30 30 1 14 9
M  V30 31 1 1 28
M  V30 32 1 1 29
M  V30 33 1 1 30
M  V30 34 1 5 31
M  V30 35 1 5 32
M  V30 36 1 6 33
M  V30 37 1 6 34
M  V30 38 1 7 35
M  V30 39 1 8 36
M  V30 40 1 10 37
M  V30 41 1 11 38
M  V30 42 1 12 39
M  V30 43 1 13 40
M  V30 44 1 16 41
M  V30 45 1 16 42
M  V30 46 1 20 43
M  V30 47 1 21 44
M  V30 48 1 23 45
M  V30 49 1 24 46
M  V30 50 1 25 47
M  V30 END BOND
M  V30 END CTAB
M  END
>  <Dataset>  (275) 
ChEMBL_Kinases

>  <Ligand_Instance>  (275) 
nan

>  <PDB_ID>  (275) 
nan

>  <Standardized_SMILES>  (275) 
Cn1c(N2CCNC(c3ccccc3Cl)C2)nc(-c2ccncc2)cc1=O

>  <Name>  (275) 
nan

>  <Pocket>  (275) 
nan

>  <ATP_Site>  (275) 
nan

>  <Peripheral>  (275) 
nan

>  <Num_H_Atoms_ProtBoundConf>  (275) 
nan

>  <Num_Resolved_Atoms>  (275) 
nan

>  <Num_Not_Resolved_Atoms>  (275) 
nan

$$$$
CHEMBL4104590
     RDKit          3D

  0  0  0  0  0  0  0  0  0  0999 V3000
M  V30 BEGIN CTAB
M  V30 COUNTS 79 83 0 0 0
M  V30 BEGIN ATOM
M  V30 1 C 4.095415 -4.691263 2.348317 0
M  V30 2 N 5.353033 -4.096502 2.777935 0
M  V30 3 C 5.723223 -2.981007 1.982687 0
M  V30 4 C 5.351741 -1.682781 2.223241 0
M  V30 5 C 5.713851 -0.590108 1.431125 0
M  V30 6 C 5.245475 0.760995 1.816097 0
M  V30 7 C 4.664214 1.561526 0.680317 0
M  V30 8 O 4.208315 2.725449 0.845430 0
M  V30 9 N 4.529426 1.173714 -0.709090 0
M  V30 10 C 3.905326 2.360571 -1.247778 0
M  V30 11 C 2.553565 2.228100 -1.199723 0
M  V30 12 C 1.719102 3.256152 -1.644698 0
M  V30 13 C 0.260570 3.320706 -1.700299 0
M  V30 14 O -0.425436 4.393169 -1.839927 0
M  V30 15 N -0.498044 2.174699 -1.600832 0
M  V30 16 C -1.722521 1.459450 -1.552873 0
M  V30 17 C -2.391982 1.112562 -0.398430 0
M  V30 18 C -3.598824 0.451139 -0.508980 0
M  V30 19 C -4.082524 0.166291 -1.758423 0
M  V30 20 O -5.260245 -0.475261 -1.986095 0
M  V30 21 C -6.212101 -1.003479 -1.150575 0
M  V30 22 C -5.805635 -2.153989 -0.278717 0
M  V30 23 C -6.952215 -2.613491 0.592507 0
M  V30 24 N -6.673887 -3.694861 1.434730 0
M  V30 25 C -5.771554 -3.549103 2.507036 0
M  V30 26 C -4.593168 -4.482531 2.252333 0
M  V30 27 O -5.063138 -5.774437 2.454388 0
M  V30 28 C -6.315950 -6.015306 1.949193 0
M  V30 29 C -6.795652 -5.013136 0.930267 0
M  V30 30 C -3.450543 0.492558 -2.964270 0
M  V30 31 C -3.992537 0.178581 -4.304794 0
M  V30 32 F -3.084530 0.657060 -5.237721 0
M  V30 33 F -4.049934 -1.199804 -4.522587 0
M  V30 34 F -5.186102 0.801790 -4.527670 0
M  V30 35 C -2.221585 1.165836 -2.832275 0
M  V30 36 C 2.347380 4.382527 -2.122540 0
M  V30 37 C 3.725897 4.490042 -2.160835 0
M  V30 38 C 4.553422 3.476728 -1.722287 0
M  V30 39 C 6.030450 3.474268 -1.714396 0
M  V30 40 C 4.769844 1.045689 3.171509 0
M  V30 41 C 6.128553 1.463683 2.783067 0
M  V30 42 N 6.479851 -0.942603 0.387266 0
M  V30 43 C 6.853275 -2.197803 0.133227 0
M  V30 44 N 6.501857 -3.256908 0.900122 0
M  V30 45 H 4.087220 -5.749928 2.630230 0
M  V30 46 H 4.008653 -4.680891 1.233685 0
M  V30 47 H 3.222827 -4.117597 2.744257 0
M  V30 48 H 5.842313 -4.539169 3.608450 0
M  V30 49 H 4.731233 -1.609597 3.111511 0
M  V30 50 H 4.891979 0.216913 -0.931417 0
M  V30 51 H 1.977514 1.373946 -0.835346 0
M  V30 52 H 0.077218 1.277037 -1.505707 0
M  V30 53 H -1.941868 1.375986 0.546953 0
M  V30 54 H -4.093686 0.211472 0.409658 0
M  V30 55 H -7.183686 -1.225427 -1.652799 0
M  V30 56 H -6.500904 -0.163760 -0.434653 0
M  V30 57 H -5.553861 -3.037630 -0.948712 0
M  V30 58 H -4.885128 -1.930941 0.238747 0
M  V30 59 H -7.403434 -1.742274 1.154788 0
M  V30 60 H -7.751646 -2.919435 -0.120460 0
M  V30 61 H -5.466195 -2.520652 2.737524 0
M  V30 62 H -6.251019 -3.951824 3.444147 0
M  V30 63 H -3.767521 -4.310428 2.969314 0
M  V30 64 H -4.240367 -4.430267 1.195955 0
M  V30 65 H -6.247536 -6.996340 1.393519 0
M  V30 66 H -7.085958 -6.223991 2.740963 0
M  V30 67 H -7.902966 -5.213638 0.830161 0
M  V30 68 H -6.281664 -5.198101 -0.037139 0
M  V30 69 H -1.692948 1.443895 -3.746331 0
M  V30 70 H 1.804967 5.242523 -2.493378 0
M  V30 71 H 4.221778 5.381883 -2.539287 0
M  V30 72 H 6.393825 4.006365 -2.622703 0
M  V30 73 H 6.408562 2.439247 -1.730417 0
M  V30 74 H 6.385190 4.074096 -0.847770 0
M  V30 75 H 4.623932 0.260912 3.930073 0
M  V30 76 H 3.963767 1.836997 3.246642 0
M  V30 77 H 6.331469 2.548748 2.735527 0
M  V30 78 H 6.952170 0.886862 3.278718 0
M  V30 79 H 7.480546 -2.350183 -0.745881 0
M  V30 END ATOM
M  V30 BEGIN BOND
M  V30 1 1 1 2
M  V30 2 1 2 3
M  V30 3 2 3 4
M  V30 4 1 4 5
M  V30 5 1 5 6
M  V30 6 1 6 7
M  V30 7 2 7 8
M  V30 8 1 7 9
M  V30 9 1 9 10
M  V30 10 2 10 11
M  V30 11 1 11 12
M  V30 12 1 12 13
M  V30 13 2 13 14
M  V30 14 1 13 15
M  V30 15 1 15 16
M  V30 16 2 16 17
M  V30 17 1 17 18
M  V30 18 2 18 19
M  V30 19 1 19 20
M  V30 20 1 20 21
M  V30 21 1 21 22
M  V30 22 1 22 23
M  V30 23 1 23 24
M  V30 24 1 24 25
M  V30 25 1 25 26
M  V30 26 1 26 27
M  V30 27 1 27 28
M  V30 28 1 28 29
M  V30 29 1 19 30
M  V30 30 1 30 31
M  V30 31 1 31 32
M  V30 32 1 31 33
M  V30 33 1 31 34
M  V30 34 2 30 35
M  V30 35 2 12 36
M  V30 36 1 36 37
M  V30 37 2 37 38
M  V30 38 1 38 39
M  V30 39 1 6 40
M  V30 40 1 40 41
M  V30 41 2 5 42
M  V30 42 1 42 43
M  V30 43 2 43 44
M  V30 44 1 44 3
M  V30 45 1 41 6
M  V30 46 1 38 10
M  V30 47 1 35 16
M  V30 48 1 29 24
M  V30 49 1 1 45
M  V30 50 1 1 46
M  V30 51 1 1 47
M  V30 52 1 2 48
M  V30 53 1 4 49
M  V30 54 1 9 50
M  V30 55 1 11 51
M  V30 56 1 15 52
M  V30 57 1 17 53
M  V30 58 1 18 54
M  V30 59 1 21 55
M  V30 60 1 21 56
M  V30 61 1 22 57
M  V30 62 1 22 58
M  V30 63 1 23 59
M  V30 64 1 23 60
M  V30 65 1 25 61
M  V30 66 1 25 62
M  V30 67 1 26 63
M  V30 68 1 26 64
M  V30 69 1 28 65
M  V30 70 1 28 66
M  V30 71 1 29 67
M  V30 72 1 29 68
M  V30 73 1 35 69
M  V30 74 1 36 70
M  V30 75 1 37 71
M  V30 76 1 39 72
M  V30 77 1 39 73
M  V30 78 1 39 74
M  V30 79 1 40 75
M  V30 80 1 40 76
M  V30 81 1 41 77
M  V30 82 1 41 78
M  V30 83 1 43 79
M  V30 END BOND
M  V30 END CTAB
M  END
>  <Dataset>  (276) 
ChEMBL_Kinases

>  <Ligand_Instance>  (276) 
nan

>  <PDB_ID>  (276) 
nan

>  <Standardized_SMILES>  (276) 
CNc1cc(C2(C(=O)Nc3cc(C(=O)Nc4ccc(OCCCN5CCOCC5)c(C(F)(F)F)c4)ccc3C)CC2)ncn1

>  <Name>  (276) 
nan

>  <Pocket>  (276) 
nan

>  <ATP_Site>  (276) 
nan

>  <Peripheral>  (276) 
nan

>  <Num_H_Atoms_ProtBoundConf>  (276) 
nan

>  <Num_Resolved_Atoms>  (276) 
nan

>  <Num_Not_Resolved_Atoms>  (276) 
nan

$$$$
CHEMBL4794368
     RDKit          3D

  0  0  0  0  0  0  0  0  0  0999 V3000
M  V30 BEGIN CTAB
M  V30 COUNTS 54 57 0 0 0
M  V30 BEGIN ATOM
M  V30 1 C 3.372566 -3.556048 0.052216 0
M  V30 2 C 3.129405 -2.438926 1.042699 0
M  V30 3 C 4.249596 -1.429244 0.817935 0
M  V30 4 S 4.110831 -0.053737 1.906054 0
M  V30 5 O 5.324164 0.818179 1.665236 0
M  V30 6 O 4.243556 -0.553774 3.325637 0
M  V30 7 N 2.658260 0.823965 1.747566 0
M  V30 8 C 2.258132 1.492394 0.560768 0
M  V30 9 C 3.173344 1.621745 -0.451337 0
M  V30 10 C 2.806114 2.271703 -1.606649 0
M  V30 11 C 1.527300 2.805526 -1.783198 0
M  V30 12 F 1.253028 3.437451 -2.972831 0
M  V30 13 C 0.584926 2.689111 -0.780419 0
M  V30 14 C -0.705571 3.268658 -0.953034 0
M  V30 15 O -0.634759 4.243443 -1.786921 0
M  V30 16 C -2.035089 3.092732 -0.482730 0
M  V30 17 N -2.941798 4.083457 -0.444061 0
M  V30 18 N -4.102395 3.613536 0.003581 0
M  V30 19 C -4.027782 2.302246 0.280997 0
M  V30 20 N -4.904731 1.384082 0.729208 0
M  V30 21 C -4.530848 0.083514 0.894591 0
M  V30 22 C -3.218854 -0.310668 0.596189 0
M  V30 23 C -2.910546 -1.722099 0.788025 0
M  V30 24 C -3.867621 -2.568443 0.240178 0
M  V30 25 C -3.775295 -3.960595 0.299964 0
M  V30 26 C -2.683974 -4.514671 0.931446 0
M  V30 27 O -2.574732 -5.901451 1.000618 0
M  V30 28 C -1.449864 -6.449003 1.649884 0
M  V30 29 C -1.717722 -3.689203 1.485034 0
M  V30 30 C -1.834436 -2.313307 1.411384 0
M  V30 31 Cl -0.671119 -1.193570 2.080979 0
M  V30 32 C -2.362999 0.667975 0.142622 0
M  V30 33 C -2.722332 1.985756 -0.029533 0
M  V30 34 C 1.006803 2.030163 0.355310 0
M  V30 35 F 0.192777 1.893111 1.423193 0
M  V30 36 H 2.443817 -4.107807 -0.210997 0
M  V30 37 H 4.113348 -4.233658 0.535133 0
M  V30 38 H 3.834450 -3.129849 -0.847170 0
M  V30 39 H 2.198491 -1.894131 0.730705 0
M  V30 40 H 3.100648 -2.797288 2.077540 0
M  V30 41 H 5.181149 -1.972471 1.077830 0
M  V30 42 H 4.204072 -1.104334 -0.219344 0
M  V30 43 H 1.997012 0.895953 2.556766 0
M  V30 44 H 4.185061 1.263372 -0.447144 0
M  V30 45 H 3.509501 2.397691 -2.441861 0
M  V30 46 H -4.928947 4.241073 0.102532 0
M  V30 47 H -5.252789 -0.646559 1.259050 0
M  V30 48 H -4.761826 -2.234500 -0.277027 0
M  V30 49 H -4.523431 -4.614261 -0.128368 0
M  V30 50 H -1.448679 -6.204113 2.747903 0
M  V30 51 H -0.493431 -6.056993 1.256590 0
M  V30 52 H -1.467636 -7.565594 1.602281 0
M  V30 53 H -0.850603 -4.089153 1.987153 0
M  V30 54 H -1.367584 0.375157 -0.093472 0
M  V30 END ATOM
M  V30 BEGIN BOND
M  V30 1 1 1 2
M  V30 2 1 2 3
M  V30 3 1 3 4
M  V30 4 2 4 5
M  V30 5 2 4 6
M  V30 6 1 4 7
M  V30 7 1 7 8
M  V30 8 2 8 9
M  V30 9 1 9 10
M  V30 10 2 10 11
M  V30 11 1 11 12
M  V30 12 1 11 13
M  V30 13 1 13 14
M  V30 14 2 14 15
M  V30 15 1 14 16
M  V30 16 2 16 17
M  V30 17 1 17 18
M  V30 18 1 18 19
M  V30 19 2 19 20
M  V30 20 1 20 21
M  V30 21 2 21 22
M  V30 22 1 22 23
M  V30 23 2 23 24
M  V30 24 1 24 25
M  V30 25 2 25 26
M  V30 26 1 26 27
M  V30 27 1 27 28
M  V30 28 1 26 29
M  V30 29 2 29 30
M  V30 30 1 30 31
M  V30 31 1 22 32
M  V30 32 2 32 33
M  V30 33 2 13 34
M  V30 34 1 34 35
M  V30 35 1 34 8
M  V30 36 1 33 16
M  V30 37 1 33 19
M  V30 38 1 30 23
M  V30 39 1 1 36
M  V30 40 1 1 37
M  V30 41 1 1 38
M  V30 42 1 2 39
M  V30 43 1 2 40
M  V30 44 1 3 41
M  V30 45 1 3 42
M  V30 46 1 7 43
M  V30 47 1 9 44
M  V30 48 1 10 45
M  V30 49 1 18 46
M  V30 50 1 21 47
M  V30 51 1 24 48
M  V30 52 1 25 49
M  V30 53 1 28 50
M  V30 54 1 28 51
M  V30 55 1 28 52
M  V30 56 1 29 53
M  V30 57 1 32 54
M  V30 END BOND
M  V30 END CTAB
M  END
>  <Dataset>  (277) 
ChEMBL_Kinases

>  <Ligand_Instance>  (277) 
nan

>  <PDB_ID>  (277) 
nan

>  <Standardized_SMILES>  (277) 
CCCS(=O)(=O)Nc1ccc(F)c(C(=O)c2n[nH]c3ncc(-c4ccc(OC)cc4Cl)cc23)c1F

>  <Name>  (277) 
nan

>  <Pocket>  (277) 
nan

>  <ATP_Site>  (277) 
nan

>  <Peripheral>  (277) 
nan

>  <Num_H_Atoms_ProtBoundConf>  (277) 
nan

>  <Num_Resolved_Atoms>  (277) 
nan

>  <Num_Not_Resolved_Atoms>  (277) 
nan

$$$$
CHEMBL4794451
     RDKit          3D

  0  0  0  0  0  0  0  0  0  0999 V3000
M  V30 BEGIN CTAB
M  V30 COUNTS 56 60 0 0 0
M  V30 BEGIN ATOM
M  V30 1 C 7.774493 -4.902162 2.627258 0
M  V30 2 C 6.421394 -5.315102 2.123449 0
M  V30 3 C 6.011583 -6.629345 1.983288 0
M  V30 4 C 4.732247 -6.865058 1.505621 0
M  V30 5 C 3.842341 -5.877209 1.161442 0
M  V30 6 N 4.305333 -4.608803 1.322055 0
M  V30 7 C 3.436615 -3.508618 0.984408 0
M  V30 8 C 2.390972 -3.298920 1.862656 0
M  V30 9 C 1.540930 -2.241576 1.554926 0
M  V30 10 C 1.704714 -1.421490 0.434710 0
M  V30 11 C 0.785277 -0.326044 0.161447 0
M  V30 12 C -0.591089 -0.541097 0.265214 0
M  V30 13 C -1.427504 0.518796 -0.000088 0
M  V30 14 C -0.929322 1.731739 -0.350822 0
M  V30 15 C -1.674573 2.852323 -0.634532 0
M  V30 16 C -3.050636 3.279975 -0.719117 0
M  V30 17 O -3.392520 4.469707 -0.975278 0
M  V30 18 N -4.286877 2.616267 -0.568648 0
M  V30 19 C -5.607827 3.183764 -0.682757 0
M  V30 20 C -6.488200 2.494915 -1.692801 0
M  V30 21 C -6.753966 1.098247 -1.261083 0
M  V30 22 O -7.467035 1.149169 -0.052718 0
M  V30 23 C -6.621733 1.650390 0.939580 0
M  V30 24 C -6.295988 3.093488 0.659203 0
M  V30 25 N -0.723284 3.782971 -0.920369 0
M  V30 26 N 0.472372 3.252445 -0.813388 0
M  V30 27 C 0.425102 1.959776 -0.457247 0
M  V30 28 C 1.279262 0.909646 -0.195189 0
M  V30 29 C 2.781238 -1.706130 -0.390373 0
M  V30 30 Cl 3.083646 -0.755539 -1.813085 0
M  V30 31 C 3.667238 -2.742154 -0.145652 0
M  V30 32 C 5.543441 -4.300562 1.783486 0
M  V30 33 O 5.866494 -3.076119 1.891999 0
M  V30 34 H 7.719004 -4.047363 3.314794 0
M  V30 35 H 8.173055 -5.764041 3.204230 0
M  V30 36 H 8.474421 -4.746803 1.791023 0
M  V30 37 H 6.716037 -7.383475 2.255683 0
M  V30 38 H 4.423920 -7.905886 1.400751 0
M  V30 39 H 2.848056 -6.059975 0.790173 0
M  V30 40 H 2.226909 -3.905720 2.737706 0
M  V30 41 H 0.715161 -2.078285 2.250764 0
M  V30 42 H -0.977545 -1.527889 0.549734 0
M  V30 43 H -2.474184 0.314686 0.093108 0
M  V30 44 H -4.206831 1.604502 -0.356785 0
M  V30 45 H -5.550832 4.283172 -0.934966 0
M  V30 46 H -6.112851 2.596432 -2.728037 0
M  V30 47 H -7.462861 3.058526 -1.666480 0
M  V30 48 H -5.796544 0.584865 -1.066543 0
M  V30 49 H -7.369725 0.565031 -2.019198 0
M  V30 50 H -5.679099 1.073262 0.896943 0
M  V30 51 H -7.123409 1.526967 1.930654 0
M  V30 52 H -5.622248 3.475939 1.468406 0
M  V30 53 H -7.250631 3.672859 0.672775 0
M  V30 54 H 1.364788 3.761557 -0.981698 0
M  V30 55 H 2.332863 1.138171 -0.291222 0
M  V30 56 H 4.501911 -2.970088 -0.776565 0
M  V30 END ATOM
M  V30 BEGIN BOND
M  V30 1 1 1 2
M  V30 2 2 2 3
M  V30 3 1 3 4
M  V30 4 2 4 5
M  V30 5 1 5 6
M  V30 6 1 6 7
M  V30 7 2 7 8
M  V30 8 1 8 9
M  V30 9 2 9 10
M  V30 10 1 10 11
M  V30 11 2 11 12
M  V30 12 1 12 13
M  V30 13 2 13 14
M  V30 14 1 14 15
M  V30 15 1 15 16
M  V30 16 2 16 17
M  V30 17 1 16 18
M  V30 18 1 18 19
M  V30 19 1 19 20
M  V30 20 1 20 21
M  V30 21 1 21 22
M  V30 22 1 22 23
M  V30 23 1 23 24
M  V30 24 2 15 25
M  V30 25 1 25 26
M  V30 26 1 26 27
M  V30 27 2 27 28
M  V30 28 1 10 29
M  V30 29 1 29 30
M  V30 30 2 29 31
M  V30 31 1 6 32
M  V30 32 2 32 33
M  V30 33 1 32 2
M  V30 34 1 31 7
M  V30 35 1 28 11
M  V30 36 1 27 14
M  V30 37 1 24 19
M  V30 38 1 1 34
M  V30 39 1 1 35
M  V30 40 1 1 36
M  V30 41 1 3 37
M  V30 42 1 4 38
M  V30 43 1 5 39
M  V30 44 1 8 40
M  V30 45 1 9 41
M  V30 46 1 12 42
M  V30 47 1 13 43
M  V30 48 1 18 44
M  V30 49 1 19 45
M  V30 50 1 20 46
M  V30 51 1 20 47
M  V30 52 1 21 48
M  V30 53 1 21 49
M  V30 54 1 23 50
M  V30 55 1 23 51
M  V30 56 1 24 52
M  V30 57 1 24 53
M  V30 58 1 26 54
M  V30 59 1 28 55
M  V30 60 1 31 56
M  V30 END BOND
M  V30 END CTAB
M  END
>  <Dataset>  (278) 
ChEMBL_Kinases

>  <Ligand_Instance>  (278) 
nan

>  <PDB_ID>  (278) 
nan

>  <Standardized_SMILES>  (278) 
Cc1cccn(-c2ccc(-c3ccc4c(C(=O)NC5CCOCC5)n[nH]c4c3)c(Cl)c2)c1=O

>  <Name>  (278) 
nan

>  <Pocket>  (278) 
nan

>  <ATP_Site>  (278) 
nan

>  <Peripheral>  (278) 
nan

>  <Num_H_Atoms_ProtBoundConf>  (278) 
nan

>  <Num_Resolved_Atoms>  (278) 
nan

>  <Num_Not_Resolved_Atoms>  (278) 
nan

$$$$
CHEMBL4104341
     RDKit          3D

  0  0  0  0  0  0  0  0  0  0999 V3000
M  V30 BEGIN CTAB
M  V30 COUNTS 51 52 0 0 0
M  V30 BEGIN ATOM
M  V30 1 C 4.555179 -3.644673 5.667351 0
M  V30 2 C 4.401770 -2.785898 4.410741 0
M  V30 3 C 3.485974 -1.666196 4.774333 0
M  V30 4 C 3.225632 -0.705382 3.609498 0
M  V30 5 C 4.476651 -0.077233 3.117758 0
M  V30 6 C 4.227242 0.915616 2.035131 0
M  V30 7 C 3.546772 0.477065 0.806868 0
M  V30 8 C 2.158176 0.043911 0.879831 0
M  V30 9 O 0.995625 -0.211826 1.369490 0
M  V30 10 N 1.770878 -0.410539 -0.441931 0
M  V30 11 N 0.459779 -0.899246 -0.696413 0
M  V30 12 C -0.540163 0.007748 -1.102823 0
M  V30 13 O -0.108006 1.199479 -1.190051 0
M  V30 14 C -1.932359 -0.208992 -1.423079 0
M  V30 15 C -2.665395 0.902986 -1.795995 0
M  V30 16 O -2.145790 2.209284 -1.880799 0
M  V30 17 C -4.020042 0.742190 -2.115800 0
M  V30 18 C -4.753328 1.863855 -2.490359 0
M  V30 19 C -6.080604 1.815624 -2.821895 0
M  V30 20 Cl -7.039000 3.179994 -3.294496 0
M  V30 21 C -6.690060 0.562309 -2.768925 0
M  V30 22 C -5.993493 -0.579757 -2.400334 0
M  V30 23 C -4.675174 -0.451938 -2.084359 0
M  V30 24 N -3.935800 -1.507166 -1.719281 0
M  V30 25 C -4.574786 -2.816070 -1.664709 0
M  V30 26 C -2.643572 -1.379706 -1.409894 0
M  V30 27 O -2.017090 -2.416595 -1.076739 0
M  V30 28 H 5.335457 -4.412590 5.554167 0
M  V30 29 H 4.745139 -2.948019 6.495447 0
M  V30 30 H 3.539219 -4.087476 5.846196 0
M  V30 31 H 3.950167 -3.378179 3.598972 0
M  V30 32 H 5.392039 -2.357152 4.142460 0
M  V30 33 H 2.481658 -2.055512 5.061158 0
M  V30 34 H 3.860427 -1.088024 5.644693 0
M  V30 35 H 2.808796 -1.346886 2.786633 0
M  V30 36 H 2.532542 0.057271 3.970328 0
M  V30 37 H 5.173811 -0.896089 2.743708 0
M  V30 38 H 5.063505 0.416941 3.937997 0
M  V30 39 H 3.632217 1.793873 2.468726 0
M  V30 40 H 5.210127 1.444686 1.785242 0
M  V30 41 H 4.141698 -0.407795 0.409620 0
M  V30 42 H 3.651924 1.238863 -0.021241 0
M  V30 43 H 2.207989 -0.511005 -1.415520 0
M  V30 44 H 0.162953 -1.893540 -0.607390 0
M  V30 45 H -2.337247 2.842900 -1.116462 0
M  V30 46 H -4.314798 2.864962 -2.545072 0
M  V30 47 H -7.752742 0.443680 -3.021003 0
M  V30 48 H -6.492877 -1.534267 -2.368970 0
M  V30 49 H -3.818417 -3.581422 -1.396630 0
M  V30 50 H -5.050250 -3.037533 -2.630409 0
M  V30 51 H -5.364650 -2.853238 -0.891109 0
M  V30 END ATOM
M  V30 BEGIN BOND
M  V30 1 1 1 2
M  V30 2 1 2 3
M  V30 3 1 3 4
M  V30 4 1 4 5
M  V30 5 1 5 6
M  V30 6 1 6 7
M  V30 7 1 7 8
M  V30 8 2 8 9
M  V30 9 1 8 10
M  V30 10 1 10 11
M  V30 11 1 11 12
M  V30 12 2 12 13
M  V30 13 1 12 14
M  V30 14 2 14 15
M  V30 15 1 15 16
M  V30 16 1 15 17
M  V30 17 2 17 18
M  V30 18 1 18 19
M  V30 19 1 19 20
M  V30 20 2 19 21
M  V30 21 1 21 22
M  V30 22 2 22 23
M  V30 23 1 23 24
M  V30 24 1 24 25
M  V30 25 1 24 26
M  V30 26 2 26 27
M  V30 27 1 26 14
M  V30 28 1 23 17
M  V30 29 1 1 28
M  V30 30 1 1 29
M  V30 31 1 1 30
M  V30 32 1 2 31
M  V30 33 1 2 32
M  V30 34 1 3 33
M  V30 35 1 3 34
M  V30 36 1 4 35
M  V30 37 1 4 36
M  V30 38 1 5 37
M  V30 39 1 5 38
M  V30 40 1 6 39
M  V30 41 1 6 40
M  V30 42 1 7 41
M  V30 43 1 7 42
M  V30 44 1 10 43
M  V30 45 1 11 44
M  V30 46 1 16 45
M  V30 47 1 18 46
M  V30 48 1 21 47
M  V30 49 1 22 48
M  V30 50 1 25 49
M  V30 51 1 25 50
M  V30 52 1 25 51
M  V30 END BOND
M  V30 END CTAB
M  END
>  <Dataset>  (279) 
ChEMBL_Kinases

>  <Ligand_Instance>  (279) 
nan

>  <PDB_ID>  (279) 
nan

>  <Standardized_SMILES>  (279) 
CCCCCCCC(=O)NNC(=O)c1c(O)c2cc(Cl)ccc2n(C)c1=O

>  <Name>  (279) 
nan

>  <Pocket>  (279) 
nan

>  <ATP_Site>  (279) 
nan

>  <Peripheral>  (279) 
nan

>  <Num_H_Atoms_ProtBoundConf>  (279) 
nan

>  <Num_Resolved_Atoms>  (279) 
nan

>  <Num_Not_Resolved_Atoms>  (279) 
nan

$$$$
CHEMBL4794509
     RDKit          3D

  0  0  0  0  0  0  0  0  0  0999 V3000
M  V30 BEGIN CTAB
M  V30 COUNTS 34 36 0 0 0
M  V30 BEGIN ATOM
M  V30 1 C 4.951239 -2.914211 2.434925 0
M  V30 2 C 4.087275 -2.177227 3.100383 0
M  V30 3 C 2.861579 -1.629462 2.530800 0
M  V30 4 C 2.003032 -0.864979 3.291418 0
M  V30 5 C 0.841972 -0.343577 2.758522 0
M  V30 6 C 0.617683 -0.642760 1.437127 0
M  V30 7 C -0.632925 -0.087170 0.842347 0
M  V30 8 C -1.650920 0.683461 1.327683 0
M  V30 9 C -2.649510 0.996625 0.452888 0
M  V30 10 N -3.730566 1.761480 0.778280 0
M  V30 11 C -4.657642 2.030891 -0.121993 0
M  V30 12 N -4.662251 1.607546 -1.421992 0
M  V30 13 C -3.583818 0.844397 -1.746014 0
M  V30 14 S -3.483924 0.260282 -3.408578 0
M  V30 15 C -2.078718 -0.781082 -3.761696 0
M  V30 16 C -2.147698 -2.124775 -3.079644 0
M  V30 17 O -2.961650 -2.751297 -2.315826 0
M  V30 18 O -0.995620 -2.865478 -3.382671 0
M  V30 19 C -2.603137 0.549008 -0.826241 0
M  V30 20 S -1.123597 -0.372404 -0.926544 0
M  V30 21 C 1.418448 -1.390775 0.621706 0
M  V30 22 C 2.580100 -1.895280 1.207106 0
M  V30 23 H 5.858144 -3.315426 2.868672 0
M  V30 24 H 4.901362 -3.223131 1.403984 0
M  V30 25 H 4.314326 -1.976213 4.126748 0
M  V30 26 H 2.211060 -0.646731 4.335562 0
M  V30 27 H 0.135052 0.260661 3.308454 0
M  V30 28 H -1.525495 0.948198 2.364887 0
M  V30 29 H -5.519996 2.646264 0.152287 0
M  V30 30 H -1.975595 -1.006395 -4.838710 0
M  V30 31 H -1.102690 -0.315213 -3.471404 0
M  V30 32 H -0.890660 -3.831220 -3.101087 0
M  V30 33 H 1.170997 -1.577922 -0.398053 0
M  V30 34 H 3.208526 -2.493463 0.533201 0
M  V30 END ATOM
M  V30 BEGIN BOND
M  V30 1 2 1 2
M  V30 2 1 2 3
M  V30 3 2 3 4
M  V30 4 1 4 5
M  V30 5 2 5 6
M  V30 6 1 6 7
M  V30 7 2 7 8
M  V30 8 1 8 9
M  V30 9 2 9 10
M  V30 10 1 10 11
M  V30 11 2 11 12
M  V30 12 1 12 13
M  V30 13 1 13 14
M  V30 14 1 14 15
M  V30 15 1 15 16
M  V30 16 2 16 17
M  V30 17 1 16 18
M  V30 18 2 13 19
M  V30 19 1 19 20
M  V30 20 1 6 21
M  V30 21 2 21 22
M  V30 22 1 22 3
M  V30 23 1 20 7
M  V30 24 1 19 9
M  V30 25 1 1 23
M  V30 26 1 1 24
M  V30 27 1 2 25
M  V30 28 1 4 26
M  V30 29 1 5 27
M  V30 30 1 8 28
M  V30 31 1 11 29
M  V30 32 1 15 30
M  V30 33 1 15 31
M  V30 34 1 18 32
M  V30 35 1 21 33
M  V30 36 1 22 34
M  V30 END BOND
M  V30 END CTAB
M  END
>  <Dataset>  (280) 
ChEMBL_Kinases

>  <Ligand_Instance>  (280) 
nan

>  <PDB_ID>  (280) 
nan

>  <Standardized_SMILES>  (280) 
C=Cc1ccc(-c2cc3ncnc(SCC(=O)O)c3s2)cc1

>  <Name>  (280) 
nan

>  <Pocket>  (280) 
nan

>  <ATP_Site>  (280) 
nan

>  <Peripheral>  (280) 
nan

>  <Num_H_Atoms_ProtBoundConf>  (280) 
nan

>  <Num_Resolved_Atoms>  (280) 
nan

>  <Num_Not_Resolved_Atoms>  (280) 
nan

$$$$
CHEMBL4794527
     RDKit          3D

  0  0  0  0  0  0  0  0  0  0999 V3000
M  V30 BEGIN CTAB
M  V30 COUNTS 93 99 0 0 0
M  V30 BEGIN ATOM
M  V30 1 C 2.131884 -4.357002 6.754531 0
M  V30 2 N 1.925786 -3.915760 5.394717 0
M  V30 3 C 1.793423 -2.529801 5.103382 0
M  V30 4 O 1.898258 -1.925064 6.235077 0
M  V30 5 C 1.586021 -1.794230 3.907081 0
M  V30 6 S 1.499888 0.008842 4.223691 0
M  V30 7 C 1.235466 0.395752 2.377551 0
M  V30 8 C 1.095123 1.820130 2.012834 0
M  V30 9 C 0.840216 2.237673 0.743406 0
M  V30 10 C 0.714477 3.548947 0.343933 0
M  V30 11 N 0.860667 4.491833 1.312395 0
M  V30 12 C 1.113575 4.171863 2.590651 0
M  V30 13 N 1.268499 5.156728 3.592172 0
M  V30 14 C 0.720169 5.967059 4.591068 0
M  V30 15 O -0.521076 5.882639 4.823775 0
M  V30 16 C 1.636492 6.903441 5.341388 0
M  V30 17 C 2.972899 6.266402 5.693276 0
M  V30 18 C 2.874612 7.368647 4.667855 0
M  V30 19 C 1.231618 2.836142 2.945940 0
M  V30 20 N 1.254664 -0.649273 1.952615 0
M  V30 21 C 1.413224 -1.823084 2.539477 0
M  V30 22 O 1.434009 -3.017185 2.047611 0
M  V30 23 C 1.453418 -4.209633 1.544500 0
M  V30 24 C 2.548627 -4.552849 0.553766 0
M  V30 25 O 2.564445 -3.790424 -0.598526 0
M  V30 26 C 3.673669 -4.201027 -1.329129 0
M  V30 27 C 3.893517 -3.566530 -2.637723 0
M  V30 28 O 2.865371 -3.766088 -3.544284 0
M  V30 29 C 3.149750 -3.252988 -4.784490 0
M  V30 30 C 3.333598 -1.784005 -4.905895 0
M  V30 31 N 2.193139 -0.979866 -4.620123 0
M  V30 32 C 1.625347 -0.377396 -3.593744 0
M  V30 33 C 0.483978 0.297398 -3.914674 0
M  V30 34 C -0.639297 1.110791 -3.438687 0
M  V30 35 O -1.817198 0.406716 -3.173186 0
M  V30 36 C -1.933536 -0.553907 -2.212578 0
M  V30 37 C -1.039534 -1.051039 -1.292438 0
M  V30 38 C -1.335046 -2.036519 -0.377166 0
M  V30 39 C -2.598755 -2.591706 -0.343023 0
M  V30 40 C -3.527182 -2.103116 -1.269760 0
M  V30 41 C -3.223486 -1.102450 -2.198284 0
M  V30 42 C -4.461590 -0.922380 -2.945377 0
M  V30 43 O -4.554714 -0.075795 -3.891717 0
M  V30 44 N -5.522585 -1.744383 -2.543974 0
M  V30 45 C -6.886082 -1.890682 -2.998594 0
M  V30 46 C -7.747937 -0.694510 -2.847373 0
M  V30 47 C -7.788387 0.290679 -3.954543 0
M  V30 48 C -7.713350 -0.395384 -5.262227 0
M  V30 49 O -7.911517 0.406393 -6.239829 0
M  V30 50 N -7.459237 -1.765278 -5.519921 0
M  V30 51 C -6.936798 -2.401095 -4.368753 0
M  V30 52 O -6.431081 -3.572889 -4.480174 0
M  V30 53 C -4.913741 -2.498035 -1.469737 0
M  V30 54 O -5.508448 -3.397974 -0.778236 0
M  V30 55 N 0.395028 0.053731 -5.256534 0
M  V30 56 N 1.403783 -0.693602 -5.645369 0
M  V30 57 H 2.484309 -5.427666 6.694043 0
M  V30 58 H 1.164095 -4.308111 7.281772 0
M  V30 59 H 2.905933 -3.735774 7.250638 0
M  V30 60 H 1.851912 -4.491260 4.515658 0
M  V30 61 H 0.739209 1.423404 0.043985 0
M  V30 62 H 0.508911 3.715824 -0.703182 0
M  V30 63 H 2.316823 5.262864 3.426743 0
M  V30 64 H 1.117785 7.489869 6.090003 0
M  V30 65 H 3.207198 5.268802 5.258529 0
M  V30 66 H 3.455505 6.462997 6.659764 0
M  V30 67 H 3.273105 8.342972 4.998666 0
M  V30 68 H 3.046578 7.158090 3.591888 0
M  V30 69 H 1.433180 2.616767 3.984153 0
M  V30 70 H 1.426045 -5.083896 2.272117 0
M  V30 71 H 0.490323 -4.396983 0.931350 0
M  V30 72 H 2.468522 -5.621603 0.242353 0
M  V30 73 H 3.577631 -4.436285 0.997668 0
M  V30 74 H 3.715573 -5.319877 -1.358855 0
M  V30 75 H 4.566825 -3.945545 -0.678261 0
M  V30 76 H 4.876055 -3.844467 -3.101128 0
M  V30 77 H 3.990564 -2.443446 -2.509728 0
M  V30 78 H 4.101410 -3.754671 -5.137854 0
M  V30 79 H 2.396322 -3.601544 -5.538353 0
M  V30 80 H 3.715127 -1.601065 -5.951931 0
M  V30 81 H 4.217764 -1.481201 -4.267252 0
M  V30 82 H 1.967832 -0.373417 -2.579799 0
M  V30 83 H -0.324892 1.679246 -2.497378 0
M  V30 84 H -0.907430 1.949879 -4.141476 0
M  V30 85 H -0.080787 -0.598983 -1.336858 0
M  V30 86 H -0.585156 -2.359119 0.297621 0
M  V30 87 H -2.828767 -3.360219 0.370388 0
M  V30 88 H -7.368680 -2.704119 -2.355372 0
M  V30 89 H -7.607136 -0.190962 -1.837257 0
M  V30 90 H -8.808208 -1.091058 -2.748161 0
M  V30 91 H -8.775728 0.835678 -3.853249 0
M  V30 92 H -6.986618 1.058032 -3.955164 0
M  V30 93 H -7.636761 -2.231154 -6.432892 0
M  V30 END ATOM
M  V30 BEGIN BOND
M  V30 1 1 1 2
M  V30 2 1 2 3
M  V30 3 2 3 4
M  V30 4 1 3 5
M  V30 5 1 5 6
M  V30 6 1 6 7
M  V30 7 1 7 8
M  V30 8 2 8 9
M  V30 9 1 9 10
M  V30 10 2 10 11
M  V30 11 1 11 12
M  V30 12 1 12 13
M  V30 13 1 13 14
M  V30 14 2 14 15
M  V30 15 1 14 16
M  V30 16 1 16 17
M  V30 17 1 17 18
M  V30 18 2 12 19
M  V30 19 2 7 20
M  V30 20 1 20 21
M  V30 21 1 21 22
M  V30 22 1 22 23
M  V30 23 1 23 24
M  V30 24 1 24 25
M  V30 25 1 25 26
M  V30 26 1 26 27
M  V30 27 1 27 28
M  V30 28 1 28 29
M  V30 29 1 29 30
M  V30 30 1 30 31
M  V30 31 1 31 32
M  V30 32 2 32 33
M  V30 33 1 33 34
M  V30 34 1 34 35
M  V30 35 1 35 36
M  V30 36 2 36 37
M  V30 37 1 37 38
M  V30 38 2 38 39
M  V30 39 1 39 40
M  V30 40 2 40 41
M  V30 41 1 41 42
M  V30 42 2 42 43
M  V30 43 1 42 44
M  V30 44 1 44 45
M  V30 45 1 45 46
M  V30 46 1 46 47
M  V30 47 1 47 48
M  V30 48 2 48 49
M  V30 49 1 48 50
M  V30 50 1 50 51
M  V30 51 2 51 52
M  V30 52 1 44 53
M  V30 53 2 53 54
M  V30 54 1 33 55
M  V30 55 2 55 56
M  V30 56 2 21 5
M  V30 57 1 56 31
M  V30 58 1 19 8
M  V30 59 1 41 36
M  V30 60 1 51 45
M  V30 61 1 18 16
M  V30 62 1 53 40
M  V30 63 1 1 57
M  V30 64 1 1 58
M  V30 65 1 1 59
M  V30 66 1 2 60
M  V30 67 1 9 61
M  V30 68 1 10 62
M  V30 69 1 13 63
M  V30 70 1 16 64
M  V30 71 1 17 65
M  V30 72 1 17 66
M  V30 73 1 18 67
M  V30 74 1 18 68
M  V30 75 1 19 69
M  V30 76 1 23 70
M  V30 77 1 23 71
M  V30 78 1 24 72
M  V30 79 1 24 73
M  V30 80 1 26 74
M  V30 81 1 26 75
M  V30 82 1 27 76
M  V30 83 1 27 77
M  V30 84 1 29 78
M  V30 85 1 29 79
M  V30 86 1 30 80
M  V30 87 1 30 81
M  V30 88 1 32 82
M  V30 89 1 34 83
M  V30 90 1 34 84
M  V30 91 1 37 85
M  V30 92 1 38 86
M  V30 93 1 39 87
M  V30 94 1 45 88
M  V30 95 1 46 89
M  V30 96 1 46 90
M  V30 97 1 47 91
M  V30 98 1 47 92
M  V30 99 1 50 93
M  V30 END BOND
M  V30 END CTAB
M  END
>  <Dataset>  (281) 
ChEMBL_Kinases

>  <Ligand_Instance>  (281) 
nan

>  <PDB_ID>  (281) 
nan

>  <Standardized_SMILES>  (281) 
CNC(=O)c1sc(-c2ccnc(NC(=O)C3CC3)c2)nc1OCCOCCOCCn1cc(COc2cccc3c2C(=O)N(C2CCC(=O)NC2=O)C3=O)nn1

>  <Name>  (281) 
nan

>  <Pocket>  (281) 
nan

>  <ATP_Site>  (281) 
nan

>  <Peripheral>  (281) 
nan

>  <Num_H_Atoms_ProtBoundConf>  (281) 
nan

>  <Num_Resolved_Atoms>  (281) 
nan

>  <Num_Not_Resolved_Atoms>  (281) 
nan

$$$$
CHEMBL4104452
     RDKit          3D

  0  0  0  0  0  0  0  0  0  0999 V3000
M  V30 BEGIN CTAB
M  V30 COUNTS 65 69 0 0 0
M  V30 BEGIN ATOM
M  V30 1 S 0.363646 6.181003 2.141334 0
M  V30 2 C 0.732258 4.543559 2.061545 0
M  V30 3 N -0.616156 4.169153 2.405420 0
M  V30 4 C -1.135046 2.831935 2.536315 0
M  V30 5 C -1.307137 2.341034 1.227006 0
M  V30 6 C -1.793119 1.055969 0.966852 0
M  V30 7 C -2.115586 0.241669 2.049421 0
M  V30 8 Cl -2.737446 -1.375821 1.844685 0
M  V30 9 C -1.948153 0.718961 3.352253 0
M  V30 10 C -1.465132 1.995895 3.559969 0
M  V30 11 N 2.030713 4.324152 1.736688 0
M  V30 12 C 2.749342 3.118079 1.556785 0
M  V30 13 C 2.341840 1.810022 1.840484 0
M  V30 14 C 3.103368 0.705366 1.568064 0
M  V30 15 C 4.342578 0.821291 0.984089 0
M  V30 16 C 5.117823 -0.399894 0.702412 0
M  V30 17 N 4.843260 -0.944874 -0.634055 0
M  V30 18 C 3.697140 -1.347561 -1.293281 0
M  V30 19 N 2.998358 -0.717928 -2.133126 0
M  V30 20 C 1.910975 -1.272498 -2.656418 0
M  V30 21 C 1.120092 -0.598317 -3.589456 0
M  V30 22 C 0.017167 -1.190105 -4.105604 0
M  V30 23 C -0.419200 -2.455017 -3.779798 0
M  V30 24 O -1.439081 -3.272870 -4.110539 0
M  V30 25 C -2.521200 -3.157570 -4.945993 0
M  V30 26 C -3.392626 -2.017019 -4.466297 0
M  V30 27 N -3.817140 -2.288904 -3.130121 0
M  V30 28 C -4.747498 -3.319566 -2.908693 0
M  V30 29 C -4.682682 -3.682865 -1.414620 0
M  V30 30 O -5.066092 -2.606601 -0.650419 0
M  V30 31 C -5.038095 -1.378118 -1.252865 0
M  V30 32 C -3.915163 -1.185959 -2.243829 0
M  V30 33 C 0.364787 -3.142225 -2.846972 0
M  V30 34 C 1.496193 -2.578305 -2.297255 0
M  V30 35 S 2.792402 -3.010601 -1.116213 0
M  V30 36 C 4.827895 2.066183 0.670170 0
M  V30 37 C 4.004499 3.120854 0.975729 0
M  V30 38 H -1.530269 4.540177 2.643896 0
M  V30 39 H -1.109687 2.822441 0.250965 0
M  V30 40 H -1.948437 0.602026 -0.019701 0
M  V30 41 H -2.159103 0.185388 4.265638 0
M  V30 42 H -1.270278 2.531937 4.504719 0
M  V30 43 H 2.626690 5.178704 1.600753 0
M  V30 44 H 1.382942 1.690816 2.305062 0
M  V30 45 H 2.675155 -0.260591 1.835478 0
M  V30 46 H 4.962343 -1.181110 1.466583 0
M  V30 47 H 6.203398 -0.105366 0.747315 0
M  V30 48 H 5.638269 -1.092902 -1.300023 0
M  V30 49 H 1.297629 0.412519 -3.976643 0
M  V30 50 H -0.618173 -0.728709 -4.830534 0
M  V30 51 H -2.250009 -3.017287 -6.024956 0
M  V30 52 H -3.122508 -4.091221 -4.853699 0
M  V30 53 H -2.881624 -1.034472 -4.551949 0
M  V30 54 H -4.277156 -1.957806 -5.166669 0
M  V30 55 H -4.541712 -4.200830 -3.510165 0
M  V30 56 H -5.792636 -2.975648 -3.109141 0
M  V30 57 H -3.615324 -3.877834 -1.159994 0
M  V30 58 H -5.278611 -4.601500 -1.206145 0
M  V30 59 H -4.854791 -0.606422 -0.447294 0
M  V30 60 H -6.040729 -1.111185 -1.683185 0
M  V30 61 H -4.069056 -0.199707 -2.738145 0
M  V30 62 H -2.971623 -1.135881 -1.621315 0
M  V30 63 H 0.274309 -4.130646 -2.405335 0
M  V30 64 H 5.788282 2.228809 0.216160 0
M  V30 65 H 4.373245 4.120657 0.719089 0
M  V30 END ATOM
M  V30 BEGIN BOND
M  V30 1 2 1 2
M  V30 2 1 2 3
M  V30 3 1 3 4
M  V30 4 2 4 5
M  V30 5 1 5 6
M  V30 6 2 6 7
M  V30 7 1 7 8
M  V30 8 1 7 9
M  V30 9 2 9 10
M  V30 10 1 2 11
M  V30 11 1 11 12
M  V30 12 2 12 13
M  V30 13 1 13 14
M  V30 14 2 14 15
M  V30 15 1 15 16
M  V30 16 1 16 17
M  V30 17 1 17 18
M  V30 18 2 18 19
M  V30 19 1 19 20
M  V30 20 2 20 21
M  V30 21 1 21 22
M  V30 22 2 22 23
M  V30 23 1 23 24
M  V30 24 1 24 25
M  V30 25 1 25 26
M  V30 26 1 26 27
M  V30 27 1 27 28
M  V30 28 1 28 29
M  V30 29 1 29 30
M  V30 30 1 30 31
M  V30 31 1 31 32
M  V30 32 1 23 33
M  V30 33 2 33 34
M  V30 34 1 34 35
M  V30 35 1 15 36
M  V30 36 2 36 37
M  V30 37 1 10 4
M  V30 38 1 37 12
M  V30 39 1 35 18
M  V30 40 1 34 20
M  V30 41 1 32 27
M  V30 42 1 3 38
M  V30 43 1 5 39
M  V30 44 1 6 40
M  V30 45 1 9 41
M  V30 46 1 10 42
M  V30 47 1 11 43
M  V30 48 1 13 44
M  V30 49 1 14 45
M  V30 50 1 16 46
M  V30 51 1 16 47
M  V30 52 1 17 48
M  V30 53 1 21 49
M  V30 54 1 22 50
M  V30 55 1 25 51
M  V30 56 1 25 52
M  V30 57 1 26 53
M  V30 58 1 26 54
M  V30 59 1 28 55
M  V30 60 1 28 56
M  V30 61 1 29 57
M  V30 62 1 29 58
M  V30 63 1 31 59
M  V30 64 1 31 60
M  V30 65 1 32 61
M  V30 66 1 32 62
M  V30 67 1 33 63
M  V30 68 1 36 64
M  V30 69 1 37 65
M  V30 END BOND
M  V30 END CTAB
M  END
>  <Dataset>  (282) 
ChEMBL_Kinases

>  <Ligand_Instance>  (282) 
nan

>  <PDB_ID>  (282) 
nan

>  <Standardized_SMILES>  (282) 
S=C(Nc1ccc(Cl)cc1)Nc1ccc(CNc2nc3ccc(OCCN4CCOCC4)cc3s2)cc1

>  <Name>  (282) 
nan

>  <Pocket>  (282) 
nan

>  <ATP_Site>  (282) 
nan

>  <Peripheral>  (282) 
nan

>  <Num_H_Atoms_ProtBoundConf>  (282) 
nan

>  <Num_Resolved_Atoms>  (282) 
nan

>  <Num_Not_Resolved_Atoms>  (282) 
nan

$$$$
CHEMBL4794547
     RDKit          3D

  0  0  0  0  0  0  0  0  0  0999 V3000
M  V30 BEGIN CTAB
M  V30 COUNTS 49 52 0 0 0
M  V30 BEGIN ATOM
M  V30 1 C 2.865343 -7.238375 -1.072326 0
M  V30 2 C 3.227334 -6.097645 -0.860991 0
M  V30 3 C 3.635389 -4.763480 -0.595324 0
M  V30 4 O 4.191399 -4.522479 0.510762 0
M  V30 5 N 3.420834 -3.723994 -1.556521 0
M  V30 6 C 2.773030 -4.058339 -2.820023 0
M  V30 7 C 2.876092 -2.840053 -3.714729 0
M  V30 8 C 2.324501 -1.706273 -2.914090 0
M  V30 9 C 2.773013 -1.434337 -1.696994 0
M  V30 10 C 2.269013 -0.340003 -0.874081 0
M  V30 11 C 2.724995 -0.043617 0.393716 0
M  V30 12 C 2.160676 1.022842 1.066983 0
M  V30 13 C 1.157169 1.793664 0.503239 0
M  V30 14 C 0.646486 2.907328 1.345094 0
M  V30 15 C -0.490890 2.315615 2.136624 0
M  V30 16 O -0.190256 1.253166 1.497253 0
M  V30 17 N -1.325559 2.937016 3.090051 0
M  V30 18 C -2.282285 1.985331 3.595678 0
M  V30 19 C -3.551142 1.643770 3.168489 0
M  V30 20 C -3.969433 0.668169 4.056486 0
M  V30 21 C -5.291524 0.005672 3.976880 0
M  V30 22 C -6.439293 0.946403 3.694126 0
M  V30 23 C -6.026510 -0.108555 2.711032 0
M  V30 24 N -2.986599 0.449917 4.962980 0
M  V30 25 N -1.972415 1.249032 4.677233 0
M  V30 26 C 0.733820 1.459501 -0.766102 0
M  V30 27 N 1.294134 0.412118 -1.416605 0
M  V30 28 C 3.849108 -2.367004 -1.257221 0
M  V30 29 H 2.539779 -8.221799 -1.266246 0
M  V30 30 H 1.684953 -4.238267 -2.619798 0
M  V30 31 H 3.233985 -4.964237 -3.257475 0
M  V30 32 H 2.221711 -3.022326 -4.581662 0
M  V30 33 H 3.936290 -2.661888 -3.960660 0
M  V30 34 H 1.528599 -1.077343 -3.334665 0
M  V30 35 H 3.495133 -0.643315 0.813540 0
M  V30 36 H 2.572906 1.193564 2.061021 0
M  V30 37 H 1.444977 3.294957 1.979663 0
M  V30 38 H 0.296579 3.735334 0.696969 0
M  V30 39 H -1.074827 3.940641 3.223638 0
M  V30 40 H -4.018509 2.104953 2.311327 0
M  V30 41 H -5.464860 -0.760462 4.775470 0
M  V30 42 H -7.347500 0.800655 4.312850 0
M  V30 43 H -6.244602 1.989611 3.371962 0
M  V30 44 H -5.609287 0.209836 1.743753 0
M  V30 45 H -6.742496 -0.951564 2.613089 0
M  V30 46 H -3.101664 -0.253968 5.726438 0
M  V30 47 H -0.051269 2.084058 -1.173524 0
M  V30 48 H 4.106749 -2.301501 -0.204373 0
M  V30 49 H 4.789827 -2.169780 -1.827337 0
M  V30 END ATOM
M  V30 BEGIN BOND
M  V30 1 3 1 2
M  V30 2 1 2 3
M  V30 3 2 3 4
M  V30 4 1 3 5
M  V30 5 1 5 6
M  V30 6 1 6 7
M  V30 7 1 7 8
M  V30 8 2 8 9
M  V30 9 1 9 10
M  V30 10 2 10 11
M  V30 11 1 11 12
M  V30 12 2 12 13
M  V30 13 1 13 14
M  V30 14 1 14 15
M  V30 15 2 15 16
M  V30 16 1 15 17
M  V30 17 1 17 18
M  V30 18 1 18 19
M  V30 19 2 19 20
M  V30 20 1 20 21
M  V30 21 1 21 22
M  V30 22 1 22 23
M  V30 23 1 20 24
M  V30 24 1 24 25
M  V30 25 1 13 26
M  V30 26 2 26 27
M  V30 27 1 9 28
M  V30 28 1 28 5
M  V30 29 1 27 10
M  V30 30 2 25 18
M  V30 31 1 23 21
M  V30 32 1 1 29
M  V30 33 1 6 30
M  V30 34 1 6 31
M  V30 35 1 7 32
M  V30 36 1 7 33
M  V30 37 1 8 34
M  V30 38 1 11 35
M  V30 39 1 12 36
M  V30 40 1 14 37
M  V30 41 1 14 38
M  V30 42 1 17 39
M  V30 43 1 19 40
M  V30 44 1 21 41
M  V30 45 1 22 42
M  V30 46 1 22 43
M  V30 47 1 23 44
M  V30 48 1 23 45
M  V30 49 1 24 46
M  V30 50 1 26 47
M  V30 51 1 28 48
M  V30 52 1 28 49
M  V30 END BOND
M  V30 END CTAB
M  END
>  <Dataset>  (283) 
ChEMBL_Kinases

>  <Ligand_Instance>  (283) 
nan

>  <PDB_ID>  (283) 
nan

>  <Standardized_SMILES>  (283) 
C#CC(=O)N1CCC=C(c2ccc(CC(=O)Nc3cc(C4CC4)[nH]n3)cn2)C1

>  <Name>  (283) 
nan

>  <Pocket>  (283) 
nan

>  <ATP_Site>  (283) 
nan

>  <Peripheral>  (283) 
nan

>  <Num_H_Atoms_ProtBoundConf>  (283) 
nan

>  <Num_Resolved_Atoms>  (283) 
nan

>  <Num_Not_Resolved_Atoms>  (283) 
nan

$$$$
CHEMBL4104440
     RDKit          3D

  0  0  0  0  0  0  0  0  0  0999 V3000
M  V30 BEGIN CTAB
M  V30 COUNTS 64 68 0 0 0
M  V30 BEGIN ATOM
M  V30 1 C 7.745781 -1.434758 7.016948 0
M  V30 2 N 6.840244 -0.863202 6.051566 0
M  V30 3 C 7.379321 -0.609082 4.763912 0
M  V30 4 O 8.607609 -0.900812 4.556674 0
M  V30 5 C 6.658446 -0.038159 3.634272 0
M  V30 6 C 7.342442 0.166715 2.455279 0
M  V30 7 C 6.615154 0.718956 1.395218 0
M  V30 8 C 5.265943 1.074876 1.436919 0
M  V30 9 C 4.684568 0.819884 2.679943 0
M  V30 10 C 5.319820 0.280269 3.778955 0
M  V30 11 C 3.269948 1.103984 2.974926 0
M  V30 12 O 3.009634 1.356574 4.178651 0
M  V30 13 C 2.167917 1.112846 1.988252 0
M  V30 14 C 0.948531 0.963888 2.660378 0
M  V30 15 C -0.166265 0.954584 1.848452 0
M  V30 16 C -0.065441 1.083706 0.479759 0
M  V30 17 N -1.224686 1.063307 -0.339084 0
M  V30 18 C -2.583025 0.882899 0.013824 0
M  V30 19 C -3.258953 -0.211563 -0.533217 0
M  V30 20 C -4.592445 -0.587617 -0.330221 0
M  V30 21 N -5.088872 -1.744996 -0.987556 0
M  V30 22 C -5.645466 -1.473661 -2.245766 0
M  V30 23 O -5.706568 -0.303679 -2.757757 0
M  V30 24 C -6.211357 -2.515494 -3.094427 0
M  V30 25 C -6.778468 -2.218921 -4.319334 0
M  V30 26 C -7.310495 -3.207208 -5.124130 0
M  V30 27 C -7.303906 -4.533786 -4.751189 0
M  V30 28 C -7.850057 -5.668563 -5.546654 0
M  V30 29 F -8.287140 -6.683866 -4.686265 0
M  V30 30 F -8.865868 -5.326064 -6.383128 0
M  V30 31 F -6.823364 -6.219780 -6.293046 0
M  V30 32 C -6.739379 -4.865490 -3.521731 0
M  V30 33 C -6.214430 -3.850952 -2.737545 0
M  V30 34 C -5.273068 0.257563 0.519297 0
M  V30 35 F -6.586284 -0.081678 0.741072 0
M  V30 36 C -4.695151 1.351519 1.100781 0
M  V30 37 C -3.380212 1.664794 0.859032 0
M  V30 38 F -2.732747 2.734182 1.392465 0
M  V30 39 C 1.155311 1.228532 -0.145571 0
M  V30 40 C 2.323807 1.245540 0.621704 0
M  V30 41 C 3.441568 1.401762 -0.293783 0
M  V30 42 C 4.794223 1.632526 0.177717 0
M  V30 43 H 8.273144 -0.665122 7.613816 0
M  V30 44 H 8.500425 -2.093688 6.559792 0
M  V30 45 H 7.167452 -2.052280 7.745822 0
M  V30 46 H 5.850744 -0.624916 6.208490 0
M  V30 47 H 8.384823 -0.076086 2.325635 0
M  V30 48 H 7.178644 0.868652 0.485035 0
M  V30 49 H 4.746950 0.138944 4.679814 0
M  V30 50 H 0.974810 0.871585 3.731632 0
M  V30 51 H -1.098812 0.838090 2.362573 0
M  V30 52 H -1.181312 1.192716 -1.371621 0
M  V30 53 H -2.686920 -0.859900 -1.202330 0
M  V30 54 H -5.053265 -2.709808 -0.591782 0
M  V30 55 H -6.815521 -1.199174 -4.671418 0
M  V30 56 H -7.770780 -3.039721 -6.098894 0
M  V30 57 H -6.710464 -5.898053 -3.186040 0
M  V30 58 H -5.790939 -4.168276 -1.798672 0
M  V30 59 H -5.262127 1.989451 1.760898 0
M  V30 60 H 1.187838 1.327596 -1.230895 0
M  V30 61 H 3.423866 0.545649 -1.038291 0
M  V30 62 H 3.160559 2.281783 -0.956266 0
M  V30 63 H 5.505752 1.247866 -0.617527 0
M  V30 64 H 5.038979 2.739740 0.188353 0
M  V30 END ATOM
M  V30 BEGIN BOND
M  V30 1 1 1 2
M  V30 2 1 2 3
M  V30 3 2 3 4
M  V30 4 1 3 5
M  V30 5 2 5 6
M  V30 6 1 6 7
M  V30 7 2 7 8
M  V30 8 1 8 9
M  V30 9 2 9 10
M  V30 10 1 9 11
M  V30 11 2 11 12
M  V30 12 1 11 13
M  V30 13 2 13 14
M  V30 14 1 14 15
M  V30 15 2 15 16
M  V30 16 1 16 17
M  V30 17 1 17 18
M  V30 18 2 18 19
M  V30 19 1 19 20
M  V30 20 1 20 21
M  V30 21 1 21 22
M  V30 22 2 22 23
M  V30 23 1 22 24
M  V30 24 2 24 25
M  V30 25 1 25 26
M  V30 26 2 26 27
M  V30 27 1 27 28
M  V30 28 1 28 29
M  V30 29 1 28 30
M  V30 30 1 28 31
M  V30 31 1 27 32
M  V30 32 2 32 33
M  V30 33 2 20 34
M  V30 34 1 34 35
M  V30 35 1 34 36
M  V30 36 2 36 37
M  V30 37 1 37 38
M  V30 38 1 16 39
M  V30 39 2 39 40
M  V30 40 1 40 41
M  V30 41 1 41 42
M  V30 42 1 10 5
M  V30 43 1 40 13
M  V30 44 1 42 8
M  V30 45 1 37 18
M  V30 46 1 33 24
M  V30 47 1 1 43
M  V30 48 1 1 44
M  V30 49 1 1 45
M  V30 50 1 2 46
M  V30 51 1 6 47
M  V30 52 1 7 48
M  V30 53 1 10 49
M  V30 54 1 14 50
M  V30 55 1 15 51
M  V30 56 1 17 52
M  V30 57 1 19 53
M  V30 58 1 21 54
M  V30 59 1 25 55
M  V30 60 1 26 56
M  V30 61 1 32 57
M  V30 62 1 33 58
M  V30 63 1 36 59
M  V30 64 1 39 60
M  V30 65 1 41 61
M  V30 66 1 41 62
M  V30 67 1 42 63
M  V30 68 1 42 64
M  V30 END BOND
M  V30 END CTAB
M  END
>  <Dataset>  (284) 
ChEMBL_Kinases

>  <Ligand_Instance>  (284) 
nan

>  <PDB_ID>  (284) 
nan

>  <Standardized_SMILES>  (284) 
CNC(=O)c1ccc2c(c1)C(=O)c1ccc(Nc3cc(NC(=O)c4ccc(C(F)(F)F)cc4)c(F)cc3F)cc1CC2

>  <Name>  (284) 
nan

>  <Pocket>  (284) 
nan

>  <ATP_Site>  (284) 
nan

>  <Peripheral>  (284) 
nan

>  <Num_H_Atoms_ProtBoundConf>  (284) 
nan

>  <Num_Resolved_Atoms>  (284) 
nan

>  <Num_Not_Resolved_Atoms>  (284) 
nan

$$$$
CHEMBL4104431
     RDKit          3D

  0  0  0  0  0  0  0  0  0  0999 V3000
M  V30 BEGIN CTAB
M  V30 COUNTS 31 33 0 0 0
M  V30 BEGIN ATOM
M  V30 1 O 1.798633 -6.325673 2.131558 0
M  V30 2 C 2.699534 -5.448957 2.162976 0
M  V30 3 N 3.929083 -5.558878 2.824404 0
M  V30 4 C 4.833629 -4.467081 2.756285 0
M  V30 5 S 6.124637 -4.177788 3.686160 0
M  V30 6 S 4.194076 -3.476796 1.380525 0
M  V30 7 C 2.526030 -4.177417 1.476747 0
M  V30 8 C 1.450079 -3.581815 0.999495 0
M  V30 9 C 1.482775 -2.272808 0.325629 0
M  V30 10 C 2.495498 -1.917837 -0.502777 0
M  V30 11 S 1.969028 -0.179677 -1.030333 0
M  V30 12 C 0.426752 -0.349781 0.046269 0
M  V30 13 C -0.591632 0.787056 0.134153 0
M  V30 14 C -1.672479 0.533643 0.937538 0
M  V30 15 C -2.590864 1.558496 1.016140 0
M  V30 16 C -2.399684 2.754005 0.313544 0
M  V30 17 O -3.432850 3.691721 0.506670 0
M  V30 18 C -4.549532 3.662930 -0.385717 0
M  V30 19 F -5.189100 2.456055 -0.337110 0
M  V30 20 F -4.095615 3.981817 -1.652225 0
M  V30 21 F -5.449155 4.631399 0.056361 0
M  V30 22 C -1.284524 2.939018 -0.478041 0
M  V30 23 C -0.341111 1.938633 -0.584195 0
M  V30 24 N 0.529080 -1.376825 0.492667 0
M  V30 25 H 4.213898 -6.425854 3.373999 0
M  V30 26 H 0.558686 -4.177234 1.167943 0
M  V30 27 H 3.394974 -2.464915 -0.809925 0
M  V30 28 H -1.747859 -0.415488 1.447366 0
M  V30 29 H -3.458987 1.390417 1.642904 0
M  V30 30 H -1.201432 3.879331 -0.987483 0
M  V30 31 H 0.533071 2.065993 -1.196063 0
M  V30 END ATOM
M  V30 BEGIN BOND
M  V30 1 2 1 2
M  V30 2 1 2 3
M  V30 3 1 3 4
M  V30 4 2 4 5
M  V30 5 1 4 6
M  V30 6 1 6 7
M  V30 7 2 7 8
M  V30 8 1 8 9
M  V30 9 2 9 10
M  V30 10 1 10 11
M  V30 11 1 11 12
M  V30 12 1 12 13
M  V30 13 2 13 14
M  V30 14 1 14 15
M  V30 15 2 15 16
M  V30 16 1 16 17
M  V30 17 1 17 18
M  V30 18 1 18 19
M  V30 19 1 18 20
M  V30 20 1 18 21
M  V30 21 1 16 22
M  V30 22 2 22 23
M  V30 23 2 12 24
M  V30 24 1 7 2
M  V30 25 1 24 9
M  V30 26 1 23 13
M  V30 27 1 3 25
M  V30 28 1 8 26
M  V30 29 1 10 27
M  V30 30 1 14 28
M  V30 31 1 15 29
M  V30 32 1 22 30
M  V30 33 1 23 31
M  V30 END BOND
M  V30 END CTAB
M  END
>  <Dataset>  (285) 
ChEMBL_Kinases

>  <Ligand_Instance>  (285) 
nan

>  <PDB_ID>  (285) 
nan

>  <Standardized_SMILES>  (285) 
O=C1NC(=S)S/C1=C\c1csc(-c2ccc(OC(F)(F)F)cc2)n1

>  <Name>  (285) 
nan

>  <Pocket>  (285) 
nan

>  <ATP_Site>  (285) 
nan

>  <Peripheral>  (285) 
nan

>  <Num_H_Atoms_ProtBoundConf>  (285) 
nan

>  <Num_Resolved_Atoms>  (285) 
nan

>  <Num_Not_Resolved_Atoms>  (285) 
nan

$$$$
CHEMBL4104408
     RDKit          3D

  0  0  0  0  0  0  0  0  0  0999 V3000
M  V30 BEGIN CTAB
M  V30 COUNTS 42 45 0 0 0
M  V30 BEGIN ATOM
M  V30 1 N 0.237060 -5.862915 2.167741 0
M  V30 2 C 1.047002 -5.072691 3.027991 0
M  V30 3 O 1.610274 -5.539622 4.050697 0
M  V30 4 C 1.278702 -3.680088 2.786971 0
M  V30 5 C 2.044207 -2.872247 3.574550 0
M  V30 6 N 2.128620 -1.628298 3.179935 0
M  V30 7 C 1.609266 -0.991293 2.151711 0
M  V30 8 N 1.901383 0.380665 1.982297 0
M  V30 9 C 1.575675 1.458113 1.132708 0 CFG=1
M  V30 10 C 0.152356 1.895031 1.395219 0
M  V30 11 C -0.222670 3.073771 0.497605 0
M  V30 12 C 0.691775 4.211028 0.960976 0
M  V30 13 N 2.038920 3.820826 0.696930 0
M  V30 14 C 2.498372 2.642895 1.355931 0
M  V30 15 C 0.820143 -1.712100 1.291912 0
M  V30 16 C 0.146885 -1.396382 0.154979 0
M  V30 17 C -0.588294 -2.319414 -0.552778 0
M  V30 18 N -1.360916 -2.274820 -1.723146 0
M  V30 19 C -1.096373 -1.814648 -2.961767 0
M  V30 20 C -2.194884 -1.999297 -3.770502 0
M  V30 21 N -3.117435 -2.575760 -2.996695 0
M  V30 22 C -2.634544 -2.749069 -1.763731 0
M  V30 23 S -0.396518 -3.798408 0.354918 0
M  V30 24 C 0.668927 -3.092500 1.645544 0
M  V30 25 H -0.707005 -5.643215 2.604353 0
M  V30 26 H 0.736173 -6.398300 1.407970 0
M  V30 27 H 2.507815 -3.303976 4.435486 0
M  V30 28 H 2.577420 0.776962 2.707914 0
M  V30 29 H 1.692080 1.215567 0.048576 0
M  V30 30 H 0.131162 2.314414 2.439397 0
M  V30 31 H -0.594459 1.132619 1.278709 0
M  V30 32 H -1.290230 3.292751 0.716299 0
M  V30 33 H -0.015048 2.795753 -0.545710 0
M  V30 34 H 0.560360 4.282898 2.060473 0
M  V30 35 H 0.500745 5.156325 0.443665 0
M  V30 36 H 2.388239 3.998638 -0.247549 0
M  V30 37 H 2.599989 2.846142 2.435927 0
M  V30 38 H 3.476957 2.379509 0.915216 0
M  V30 39 H 0.115216 -0.428510 -0.310301 0
M  V30 40 H -0.146570 -1.374308 -3.230325 0
M  V30 41 H -2.308149 -1.736994 -4.823982 0
M  V30 42 H -3.197735 -3.201600 -0.944401 0
M  V30 END ATOM
M  V30 BEGIN BOND
M  V30 1 1 1 2
M  V30 2 2 2 3
M  V30 3 1 2 4
M  V30 4 2 4 5
M  V30 5 1 5 6
M  V30 6 2 6 7
M  V30 7 1 7 8
M  V30 8 1 8 9
M  V30 9 1 9 10
M  V30 10 1 10 11
M  V30 11 1 11 12
M  V30 12 1 12 13
M  V30 13 1 13 14
M  V30 14 1 7 15
M  V30 15 1 15 16
M  V30 16 2 16 17
M  V30 17 1 17 18
M  V30 18 1 18 19
M  V30 19 2 19 20
M  V30 20 1 20 21
M  V30 21 2 21 22
M  V30 22 1 17 23
M  V30 23 1 23 24
M  V30 24 1 24 4
M  V30 25 1 14 9
M  V30 26 2 24 15
M  V30 27 1 22 18
M  V30 28 1 1 25
M  V30 29 1 1 26
M  V30 30 1 5 27
M  V30 31 1 8 28
M  V30 32 1 9 29 CFG=3
M  V30 33 1 10 30
M  V30 34 1 10 31
M  V30 35 1 11 32
M  V30 36 1 11 33
M  V30 37 1 12 34
M  V30 38 1 12 35
M  V30 39 1 13 36
M  V30 40 1 14 37
M  V30 41 1 14 38
M  V30 42 1 16 39
M  V30 43 1 19 40
M  V30 44 1 20 41
M  V30 45 1 22 42
M  V30 END BOND
M  V30 END CTAB
M  END
>  <Dataset>  (286) 
ChEMBL_Kinases

>  <Ligand_Instance>  (286) 
nan

>  <PDB_ID>  (286) 
nan

>  <Standardized_SMILES>  (286) 
NC(=O)c1cnc(N[C@H]2CCCNC2)c2cc(-n3ccnc3)sc12

>  <Name>  (286) 
nan

>  <Pocket>  (286) 
nan

>  <ATP_Site>  (286) 
nan

>  <Peripheral>  (286) 
nan

>  <Num_H_Atoms_ProtBoundConf>  (286) 
nan

>  <Num_Resolved_Atoms>  (286) 
nan

>  <Num_Not_Resolved_Atoms>  (286) 
nan

$$$$
CHEMBL41044
     RDKit          3D

  0  0  0  0  0  0  0  0  0  0999 V3000
M  V30 BEGIN CTAB
M  V30 COUNTS 17 18 0 0 0
M  V30 BEGIN ATOM
M  V30 1 N -2.057534 0.760598 1.281150 0
M  V30 2 C -0.679877 0.519086 0.986866 0
M  V30 3 N 0.124288 0.516176 2.069823 0
M  V30 4 C 1.457270 0.302332 1.965210 0
M  V30 5 N 2.514223 0.235791 2.818642 0
M  V30 6 C 3.637111 -0.012901 2.107611 0
M  V30 7 C 3.264375 -0.103429 0.770634 0
M  V30 8 C 1.907123 0.092122 0.675359 0
M  V30 9 C 1.105407 0.089610 -0.453491 0
M  V30 10 O 1.591301 -0.110415 -1.601099 0
M  V30 11 N -0.195786 0.308423 -0.259918 0
M  V30 12 H -2.100635 1.778603 1.012388 0
M  V30 13 H -2.876091 0.222906 1.643404 0
M  V30 14 H 2.287741 0.383301 3.846598 0
M  V30 15 H 4.594252 -0.099216 2.643658 0
M  V30 16 H 4.012602 -0.300156 0.015112 0
M  V30 17 H -0.868820 0.324224 -1.044921 0
M  V30 END ATOM
M  V30 BEGIN BOND
M  V30 1 1 1 2
M  V30 2 2 2 3
M  V30 3 1 3 4
M  V30 4 1 4 5
M  V30 5 1 5 6
M  V30 6 2 6 7
M  V30 7 1 7 8
M  V30 8 1 8 9
M  V30 9 2 9 10
M  V30 10 1 9 11
M  V30 11 1 11 2
M  V30 12 2 8 4
M  V30 13 1 1 12
M  V30 14 1 1 13
M  V30 15 1 5 14
M  V30 16 1 6 15
M  V30 17 1 7 16
M  V30 18 1 11 17
M  V30 END BOND
M  V30 END CTAB
M  END
>  <Dataset>  (287) 
ChEMBL_Kinases

>  <Ligand_Instance>  (287) 
nan

>  <PDB_ID>  (287) 
nan

>  <Standardized_SMILES>  (287) 
Nc1nc2[nH]ccc2c(=O)[nH]1

>  <Name>  (287) 
nan

>  <Pocket>  (287) 
nan

>  <ATP_Site>  (287) 
nan

>  <Peripheral>  (287) 
nan

>  <Num_H_Atoms_ProtBoundConf>  (287) 
nan

>  <Num_Resolved_Atoms>  (287) 
nan

>  <Num_Not_Resolved_Atoms>  (287) 
nan

$$$$
CHEMBL4104378
     RDKit          3D

  0  0  0  0  0  0  0  0  0  0999 V3000
M  V30 BEGIN CTAB
M  V30 COUNTS 407 409 0 0 0
M  V30 BEGIN ATOM
M  V30 1 C -1.790948 -3.447184 -0.553068 0
M  V30 2 C -1.149858 -2.568066 0.544400 0
M  V30 3 C -1.684616 -1.193516 0.365372 0 CFG=2
M  V30 4 C -1.379162 -0.626036 -0.998334 0
M  V30 5 C -1.419016 -0.216366 1.502710 0 CFG=2
M  V30 6 N -0.047143 0.019155 1.794900 0
M  V30 7 C 1.009700 0.677605 1.166964 0
M  V30 8 O 0.747094 1.192291 0.069151 0
M  V30 9 C 2.431042 0.972168 1.397804 0 CFG=2
M  V30 10 C 2.583608 2.225285 2.258859 0
M  V30 11 O 3.924908 2.446292 2.474397 0
M  V30 12 N 3.114572 1.191896 0.122493 0
M  V30 13 C 4.415511 0.514417 0.002408 0
M  V30 14 O 4.807447 -0.148383 1.011180 0
M  V30 15 C 5.491798 0.337487 -0.988042 0 CFG=2
M  V30 16 C 6.821622 0.801632 -0.414379 0
M  V30 17 O 6.961023 0.109539 0.805344 0
M  V30 18 N 5.205198 0.966550 -2.246828 0
M  V30 19 C 5.542422 0.284412 -3.471094 0
M  V30 20 O 6.100607 -0.868336 -3.246944 0
M  V30 21 C 5.509310 0.370149 -4.930212 0 CFG=2
M  V30 22 C 6.977601 0.398439 -5.366418 0
M  V30 23 C 7.740049 1.556223 -4.794349 0
M  V30 24 C 9.175220 1.510901 -5.274366 0
M  V30 25 O 9.418549 1.998068 -6.410138 0
M  V30 26 O 10.342126 1.034925 -4.725140 0
M  V30 27 N 4.815573 1.541756 -5.398600 0
M  V30 28 C 4.096738 1.362217 -6.629964 0
M  V30 29 O 4.155141 0.225969 -7.162132 0
M  V30 30 C 3.250582 2.335185 -7.437612 0 CFG=1
M  V30 31 N 3.116289 3.562914 -6.742132 0
M  V30 32 C 3.979837 4.657850 -6.416093 0
M  V30 33 O 5.158081 4.463913 -6.895428 0
M  V30 34 C 3.442382 5.762183 -5.644017 0 CFG=2
M  V30 35 C 4.455326 6.590304 -4.930158 0
M  V30 36 C 3.519287 7.454986 -4.066175 0
M  V30 37 C 2.172396 6.837733 -4.301541 0
M  V30 38 N 2.418496 5.470359 -4.684062 0
M  V30 39 C 1.701644 4.374048 -4.158869 0
M  V30 40 O 1.403685 3.169610 -3.993243 0
M  V30 41 C 0.571423 4.326294 -3.241794 0 CFG=2
M  V30 42 C 0.738769 4.242065 -1.788337 0
M  V30 43 C 1.497511 5.231356 -1.002355 0
M  V30 44 C 2.979968 5.248950 -1.228237 0
M  V30 45 C 3.602670 6.341949 -0.376391 0
M  V30 46 N 5.037901 6.353367 -0.588414 0
M  V30 47 N 0.016234 2.923280 -3.557428 0
M  V30 48 C -0.731374 2.675779 -4.708956 0
M  V30 49 O -0.929677 3.629091 -5.503163 0
M  V30 50 C -1.290287 1.339567 -5.018085 0 CFG=2
M  V30 51 C -0.398231 0.241870 -4.617222 0
M  V30 52 C -0.940148 -1.131540 -4.994561 0
M  V30 53 C 0.068990 -2.145758 -4.503630 0
M  V30 54 C -2.299372 -1.455978 -4.520840 0
M  V30 55 N -1.853842 1.191017 -6.336489 0
M  V30 56 C -3.129788 1.572445 -6.880339 0
M  V30 57 O -3.550303 2.135247 -5.856544 0
M  V30 58 C -3.499247 1.253539 -8.233152 0 CFG=2
M  V30 59 C -4.866460 0.693220 -8.488456 0
M  V30 60 C -6.039558 1.510118 -8.111730 0
M  V30 61 C -6.242536 1.722123 -6.686584 0
M  V30 62 N -6.579730 2.625985 -5.664767 0
M  V30 63 O -6.028381 0.592790 -6.139020 0
M  V30 64 N -2.516653 0.311383 -8.819978 0
M  V30 65 C -1.953132 0.084801 -10.064117 0
M  V30 66 O -2.416198 0.900470 -10.941764 0
M  V30 67 C -0.937236 -0.984643 -10.345151 0 CFG=2
M  V30 68 C -1.776379 -2.265856 -10.522478 0
M  V30 69 C -1.009356 -3.356121 -9.857881 0
M  V30 70 C 0.232426 -2.680285 -9.258327 0
M  V30 71 N -0.189185 -1.283265 -9.137179 0
M  V30 72 C 3.715739 2.434621 -8.860573 0 CFG=1
M  V30 73 C 3.614300 1.020659 -9.474025 0
M  V30 74 C 2.785404 3.289836 -9.658403 0
M  V30 75 C 2.620352 4.702604 -9.256437 0
M  V30 76 C -2.125605 -0.628457 2.713792 0
M  V30 77 O -1.279484 -0.510550 3.661801 0
M  V30 78 N -3.431971 -1.077644 2.924557 0
M  V30 79 C -3.763105 -1.411493 4.286302 0 CFG=1
M  V30 80 C -5.118202 -0.858451 4.629081 0
M  V30 81 C -5.237896 0.627823 4.513282 0
M  V30 82 C -4.282632 1.333643 5.436702 0
M  V30 83 C -6.674508 1.053386 4.858241 0
M  V30 84 C -3.876406 -2.915408 4.434533 0
M  V30 85 O -4.021930 -3.230965 5.663971 0
M  V30 86 N -3.847531 -3.926808 3.450990 0
M  V30 87 C -3.985671 -5.252913 3.991282 0 CFG=1
M  V30 88 C -5.544437 -5.427263 4.080416 0
M  V30 89 C -3.539592 -6.330167 3.095013 0
M  V30 90 O -3.791361 -7.408344 3.756989 0
M  V30 91 N -2.963753 -6.398593 1.787842 0
M  V30 92 C -2.691716 -7.685012 1.223669 0 CFG=1
M  V30 93 C -3.873011 -7.956941 0.264032 0
M  V30 94 C -3.983489 -6.923334 -0.810485 0
M  V30 95 C -5.156032 -7.204278 -1.707773 0
M  V30 96 N -5.202154 -6.199759 -2.713403 0
M  V30 97 O -6.148839 -7.889740 -2.038670 0
M  V30 98 C -1.420534 -7.926424 0.575842 0
M  V30 99 O -1.601605 -9.150998 0.210468 0
M  V30 100 N -0.132858 -7.353066 0.220334 0
M  V30 101 C 0.657717 -8.353907 -0.485276 0 CFG=1
M  V30 102 C 1.666520 -7.759283 -1.415070 0
M  V30 103 C 1.144768 -6.898051 -2.513920 0
M  V30 104 C 2.300872 -6.372477 -3.379586 0
M  V30 105 N 1.856084 -5.549244 -4.464073 0
M  V30 106 C 2.963335 -5.081913 -5.243527 0
M  V30 107 N 4.100451 -5.698160 -5.324122 0
M  V30 108 N 2.917085 -3.870994 -6.026768 0
M  V30 109 C 1.527063 -8.938999 0.648186 0
M  V30 110 O 2.002431 -10.102254 0.520357 0
M  V30 111 N 1.826639 -8.245412 1.819777 0
M  V30 112 C 2.541469 -8.475332 3.020979 0 CFG=1
M  V30 113 C 4.000834 -8.069121 2.896212 0
M  V30 114 C 4.630884 -8.878727 1.792354 0
M  V30 115 C 6.086772 -8.712202 1.588488 0
M  V30 116 N 6.606517 -7.437331 1.272644 0
M  V30 117 C 6.733949 -6.266514 2.085191 0
M  V30 118 N 6.760356 -6.618460 3.314070 0
M  V30 119 N 6.805152 -5.019099 1.409190 0
M  V30 120 C 1.857491 -7.971394 4.204450 0
M  V30 121 O 0.657877 -7.564211 4.013025 0
M  V30 122 N 2.365928 -7.890300 5.496339 0
M  V30 123 C 1.867041 -7.447834 6.768200 0 CFG=2
M  V30 124 C 2.290369 -6.007810 6.977836 0
M  V30 125 O 2.005363 -5.643988 8.152422 0
M  V30 126 N 2.932548 -5.104377 6.017194 0
M  V30 127 C 3.192839 -3.827609 6.570485 0 CFG=1
M  V30 128 C 4.290408 -3.010853 6.015593 0
M  V30 129 C 4.223085 -2.624862 4.575710 0
M  V30 130 C 4.333302 -3.722236 3.573217 0
M  V30 131 N 4.208447 -3.164842 2.231597 0
M  V30 132 C 2.873808 -2.785024 1.916990 0
M  V30 133 N 1.903380 -2.898289 2.724505 0
M  V30 134 N 2.606686 -2.263917 0.625254 0
M  V30 135 C 1.910249 -2.991772 6.669147 0
M  V30 136 O 0.743369 -3.249072 6.219518 0
M  V30 137 N 2.159144 -1.782126 7.387767 0
M  V30 138 C 1.264607 -0.712063 7.749921 0 CFG=1
M  V30 139 C 1.157066 -0.964268 9.316189 0
M  V30 140 C 0.293263 0.105898 9.886137 0
M  V30 141 C 0.163229 -0.035762 11.399462 0
M  V30 142 C 1.515674 0.020464 12.069821 0
M  V30 143 N 2.241823 1.245622 11.851171 0
M  V30 144 C 1.811059 0.653734 7.681337 0
M  V30 145 O 2.955822 1.105068 7.805973 0
M  V30 146 N 1.038007 1.824794 7.420512 0
M  V30 147 C 0.717653 3.165405 7.231950 0 CFG=1
M  V30 148 C 1.381503 3.963621 6.132322 0
M  V30 149 C 2.859570 4.085426 6.299873 0
M  V30 150 C 3.071095 4.768747 7.662419 0
M  V30 151 C 3.447146 5.102372 5.310658 0
M  V30 152 C -0.730492 3.364624 7.052684 0
M  V30 153 O -1.376828 2.270740 6.814220 0
M  V30 154 N -1.312540 4.653122 7.137386 0
M  V30 155 C -0.929994 6.010000 7.465938 0
M  V30 156 C -2.141985 6.504334 8.254747 0
M  V30 157 C -3.213288 5.420589 8.078143 0
M  V30 158 C -2.710388 4.721644 6.772214 0 CFG=1
M  V30 159 C -3.030717 5.741393 5.728407 0
M  V30 160 O -2.587130 6.855321 5.366429 0
M  V30 161 N -4.141238 5.446326 4.839431 0
M  V30 162 C -4.567074 6.365340 3.798969 0 CFG=1
M  V30 163 C -3.723499 6.108065 2.520101 0
M  V30 164 O -2.370033 6.313467 2.795847 0
M  V30 165 C -5.977514 6.175768 3.531820 0
M  V30 166 O -6.253490 5.166162 4.265731 0
M  V30 167 N -6.956856 6.785252 2.738595 0
M  V30 168 C -8.308967 6.270047 2.709903 0 CFG=2
M  V30 169 C -8.741576 5.974893 1.307708 0
M  V30 170 O -9.841567 5.438506 0.968522 0
M  V30 171 N -7.870753 6.305676 0.198615 0
M  V30 172 C -8.227414 6.019993 -1.187918 0 CFG=2
M  V30 173 C -7.131944 5.281941 -1.860819 0
M  V30 174 O -7.214602 4.861826 -3.072898 0
M  V30 175 N -5.894042 4.965660 -1.250945 0
M  V30 176 C -4.591806 4.342534 -1.357889 0 CFG=1
M  V30 177 C -3.534941 5.423579 -1.300809 0
M  V30 178 C -3.651277 6.414806 -2.425365 0
M  V30 179 C -2.544237 7.441441 -2.244783 0
M  V30 180 C -3.417391 5.771921 -3.773039 0
M  V30 181 C -4.300008 3.389201 -0.262997 0
M  V30 182 O -3.186929 2.816567 -0.353515 0
M  V30 183 O -5.169158 3.116511 0.815584 0
M  V30 184 C -8.406292 7.314248 -1.970828 0 CFG=1
M  V30 185 C -9.575372 8.107082 -1.459648 0
M  V30 186 O -7.230693 8.054832 -1.967006 0
M  V30 187 C -9.279095 7.187692 3.420079 0 CFG=1
M  V30 188 C -10.685210 6.673782 3.341448 0
M  V30 189 O -8.943175 7.349267 4.763498 0
M  V30 190 C 2.396430 -8.231006 7.939584 0
M  V30 191 C 2.057522 -9.702268 7.863385 0
M  V30 192 C 3.906345 -8.021827 8.003601 0
M  V30 193 H -1.777641 -4.476967 -0.221415 0
M  V30 194 H -1.162874 -3.386990 -1.471259 0
M  V30 195 H -2.843800 -3.135963 -0.712896 0
M  V30 196 H -0.069966 -2.652357 0.354326 0
M  V30 197 H -1.453664 -2.990892 1.517201 0
M  V30 198 H -2.819030 -1.327610 0.361028 0
M  V30 199 H -1.598541 0.461789 -0.959793 0
M  V30 200 H -0.362223 -0.777101 -1.346922 0
M  V30 201 H -2.121452 -1.083832 -1.733206 0
M  V30 202 H -1.917762 0.731410 1.100079 0
M  V30 203 H 0.353873 -0.360452 2.708927 0
M  V30 204 H 2.916217 0.178047 1.933726 0
M  V30 205 H 2.055276 3.094198 1.819555 0
M  V30 206 H 2.122880 1.998385 3.229020 0
M  V30 207 H 4.244687 1.770237 3.158629 0
M  V30 208 H 3.011729 1.687354 -0.790726 0
M  V30 209 H 5.664593 -0.762742 -1.189697 0
M  V30 210 H 7.594546 0.402749 -1.102148 0
M  V30 211 H 6.864081 1.867984 -0.222302 0
M  V30 212 H 7.833138 0.260252 1.235458 0
M  V30 213 H 4.786827 1.868689 -2.618505 0
M  V30 214 H 5.114635 -0.544402 -5.383321 0
M  V30 215 H 7.411394 -0.529041 -4.905860 0
M  V30 216 H 7.099384 0.296233 -6.457081 0
M  V30 217 H 7.677475 1.629874 -3.701333 0
M  V30 218 H 7.330652 2.510140 -5.205418 0
M  V30 219 H 11.022648 0.484662 -5.236298 0
M  V30 220 H 4.719356 2.511242 -5.019536 0
M  V30 221 H 2.259335 1.798500 -7.512765 0
M  V30 222 H 2.139239 3.691933 -6.412313 0
M  V30 223 H 2.918436 6.449722 -6.400099 0
M  V30 224 H 5.100554 5.981242 -4.294780 0
M  V30 225 H 4.996254 7.292227 -5.615232 0
M  V30 226 H 3.784711 7.398202 -3.007132 0
M  V30 227 H 3.547212 8.512464 -4.447154 0
M  V30 228 H 1.626639 7.359930 -5.120474 0
M  V30 229 H 1.611343 6.915262 -3.340782 0
M  V30 230 H -0.245044 5.000394 -3.610352 0
M  V30 231 H 1.267179 3.238692 -1.600727 0
M  V30 232 H -0.312175 4.123186 -1.355243 0
M  V30 233 H 1.367718 4.951471 0.090060 0
M  V30 234 H 1.060108 6.254391 -1.048211 0
M  V30 235 H 3.366128 5.281595 -2.217347 0
M  V30 236 H 3.373014 4.274344 -0.783491 0
M  V30 237 H 3.454339 6.109237 0.690764 0
M  V30 238 H 3.168611 7.320172 -0.663719 0
M  V30 239 H 5.483085 7.160778 -0.102578 0
M  V30 240 H 5.437695 5.459720 -0.223581 0
M  V30 241 H 0.180404 2.107542 -2.924095 0
M  V30 242 H -2.242407 1.281374 -4.335867 0
M  V30 243 H 0.597721 0.326603 -5.097809 0
M  V30 244 H -0.239139 0.249788 -3.515627 0
M  V30 245 H -0.897399 -1.190228 -6.119031 0
M  V30 246 H 1.003358 -2.122943 -5.107188 0
M  V30 247 H 0.397612 -1.921577 -3.466481 0
M  V30 248 H -0.323213 -3.176567 -4.483629 0
M  V30 249 H -2.960402 -1.869529 -5.347189 0
M  V30 250 H -2.271416 -2.327130 -3.800293 0
M  V30 251 H -2.814412 -0.612265 -4.059066 0
M  V30 252 H -1.072023 0.707701 -6.899273 0
M  V30 253 H -3.448297 2.166013 -8.911223 0
M  V30 254 H -4.948080 -0.329813 -7.990881 0
M  V30 255 H -4.902018 0.423608 -9.586832 0
M  V30 256 H -6.087402 2.476089 -8.700279 0
M  V30 257 H -6.962784 0.963674 -8.490479 0
M  V30 258 H -7.584217 2.513421 -5.380275 0
M  V30 259 H -5.979995 3.343969 -5.199535 0
M  V30 260 H -2.175625 -0.371529 -8.074425 0
M  V30 261 H -0.368763 -0.762500 -11.224099 0
M  V30 262 H -1.958693 -2.421800 -11.610446 0
M  V30 263 H -2.767140 -2.119668 -10.003914 0
M  V30 264 H -1.627783 -3.793118 -9.032878 0
M  V30 265 H -0.715125 -4.146627 -10.574504 0
M  V30 266 H 1.047594 -2.776848 -9.985533 0
M  V30 267 H 0.498246 -3.125330 -8.293914 0
M  V30 268 H 0.717506 -0.714981 -9.219368 0
M  V30 269 H 4.773011 2.736244 -8.956863 0
M  V30 270 H 2.759486 0.536006 -8.972798 0
M  V30 271 H 3.405503 1.181488 -10.566496 0
M  V30 272 H 4.568400 0.482162 -9.419271 0
M  V30 273 H 1.764237 2.824596 -9.721967 0
M  V30 274 H 3.138759 3.279572 -10.735456 0
M  V30 275 H 3.563038 5.258876 -9.134469 0
M  V30 276 H 1.933102 4.867357 -8.411569 0
M  V30 277 H 2.087430 5.238506 -10.123952 0
M  V30 278 H -3.932470 -1.086153 2.040814 0
M  V30 279 H -3.015407 -1.035815 4.977926 0
M  V30 280 H -5.912756 -1.298774 3.978087 0
M  V30 281 H -5.428721 -1.129612 5.670766 0
M  V30 282 H -5.033351 0.931041 3.448287 0
M  V30 283 H -4.841896 2.144437 5.985193 0
M  V30 284 H -3.888207 0.677639 6.249281 0
M  V30 285 H -3.443425 1.783958 4.902539 0
M  V30 286 H -6.793334 2.134725 4.725071 0
M  V30 287 H -7.387467 0.475361 4.221188 0
M  V30 288 H -6.853932 0.778765 5.925452 0
M  V30 289 H -3.728789 -3.557401 2.501275 0
M  V30 290 H -3.641270 -5.315855 5.030048 0
M  V30 291 H -5.917452 -5.440080 3.048672 0
M  V30 292 H -5.966698 -4.630370 4.708055 0
M  V30 293 H -5.680291 -6.394361 4.575768 0
M  V30 294 H -2.904388 -5.368794 1.598357 0
M  V30 295 H -2.901510 -8.427666 2.059683 0
M  V30 296 H -3.716590 -8.970456 -0.183721 0
M  V30 297 H -4.817662 -7.978840 0.837856 0
M  V30 298 H -3.099755 -7.016352 -1.485030 0
M  V30 299 H -4.016459 -5.898884 -0.426021 0
M  V30 300 H -5.369425 -5.263301 -3.174780 0
M  V30 301 H -5.185684 -5.549227 -3.559388 0
M  V30 302 H -0.247315 -6.405007 0.610079 0
M  V30 303 H 0.119669 -9.157694 -0.953167 0
M  V30 304 H 2.459137 -7.264286 -0.811924 0
M  V30 305 H 2.178116 -8.629290 -1.913748 0
M  V30 306 H 0.651851 -5.991124 -2.099924 0
M  V30 307 H 0.475911 -7.461318 -3.175026 0
M  V30 308 H 3.031526 -5.840442 -2.729889 0
M  V30 309 H 2.845326 -7.243794 -3.815004 0
M  V30 310 H 0.922717 -5.203558 -4.823542 0
M  V30 311 H 4.905179 -5.347695 -5.897992 0
M  V30 312 H 3.182109 -2.993947 -5.493076 0
M  V30 313 H 2.642917 -3.845782 -7.045265 0
M  V30 314 H 1.426842 -7.264745 1.837920 0
M  V30 315 H 2.582538 -9.616640 3.132429 0
M  V30 316 H 4.081675 -6.974307 2.671854 0
M  V30 317 H 4.544242 -8.247218 3.842222 0
M  V30 318 H 4.106014 -8.543671 0.851132 0
M  V30 319 H 4.355273 -9.963913 1.922841 0
M  V30 320 H 6.444297 -9.475842 0.823265 0
M  V30 321 H 6.576977 -9.120998 2.539924 0
M  V30 322 H 6.957722 -7.324724 0.266790 0
M  V30 323 H 6.848924 -5.950223 4.086804 0
M  V30 324 H 6.428772 -4.873200 0.456670 0
M  V30 325 H 7.293043 -4.341464 2.037199 0
M  V30 326 H 3.367268 -8.230179 5.589903 0
M  V30 327 H 0.755998 -7.383119 6.801397 0
M  V30 328 H 2.947030 -5.806335 5.251744 0
M  V30 329 H 3.396844 -3.994801 7.678265 0
M  V30 330 H 5.236328 -3.656771 6.098946 0
M  V30 331 H 4.513314 -2.160991 6.684756 0
M  V30 332 H 3.333699 -1.991819 4.352381 0
M  V30 333 H 5.136102 -1.966260 4.404271 0
M  V30 334 H 3.555673 -4.490073 3.637821 0
M  V30 335 H 5.351246 -4.195886 3.627923 0
M  V30 336 H 4.912917 -3.009588 1.503418 0
M  V30 337 H 0.926787 -2.632767 2.536270 0
M  V30 338 H 2.502320 -1.978686 -0.371500 0
M  V30 339 H 2.169637 -1.652454 -0.092917 0
M  V30 340 H 3.076518 -1.478828 7.775788 0
M  V30 341 H 0.278785 -0.861147 7.346922 0
M  V30 342 H 2.207242 -0.908849 9.647966 0
M  V30 343 H 0.704732 -1.967807 9.381633 0
M  V30 344 H 0.674816 1.100265 9.618358 0
M  V30 345 H -0.736756 -0.005569 9.466687 0
M  V30 346 H -0.406445 0.839622 11.777471 0
M  V30 347 H -0.406582 -0.939607 11.672011 0
M  V30 348 H 2.167314 -0.827418 11.839124 0
M  V30 349 H 1.314645 -0.048484 13.171583 0
M  V30 350 H 3.111642 1.170503 12.464616 0
M  V30 351 H 2.604821 1.354487 10.890734 0
M  V30 352 H 0.082353 1.325801 7.275845 0
M  V30 353 H 1.056949 3.730425 8.161476 0
M  V30 354 H 0.998274 5.018652 6.249669 0
M  V30 355 H 1.066131 3.678537 5.112694 0
M  V30 356 H 3.450923 3.190510 6.305814 0
M  V30 357 H 3.058509 4.019061 8.488797 0
M  V30 358 H 4.049527 5.272347 7.715501 0
M  V30 359 H 2.244011 5.464948 7.883937 0
M  V30 360 H 4.461272 5.322656 5.689955 0
M  V30 361 H 2.847457 6.030327 5.452865 0
M  V30 362 H 3.465017 4.715704 4.284206 0
M  V30 363 H -0.676948 6.647851 6.625374 0
M  V30 364 H -0.086826 5.946038 8.211282 0
M  V30 365 H -2.455585 7.450611 7.766186 0
M  V30 366 H -1.933154 6.615315 9.327341 0
M  V30 367 H -4.177379 5.912973 7.826102 0
M  V30 368 H -3.241133 4.706160 8.895903 0
M  V30 369 H -3.233784 3.796910 6.617490 0
M  V30 370 H -4.648819 4.520925 4.964484 0
M  V30 371 H -4.330246 7.419721 4.009403 0
M  V30 372 H -3.845608 5.088254 2.164307 0
M  V30 373 H -4.040134 6.902196 1.815585 0
M  V30 374 H -2.178975 7.283101 2.666393 0
M  V30 375 H -6.521045 7.587299 2.259197 0
M  V30 376 H -8.329098 5.317881 3.270955 0
M  V30 377 H -6.984448 6.777652 0.460458 0
M  V30 378 H -9.162091 5.426868 -1.261435 0
M  V30 379 H -5.841534 5.313637 -0.260794 0
M  V30 380 H -4.555758 3.802573 -2.336076 0
M  V30 381 H -3.716141 5.986392 -0.374289 0
M  V30 382 H -2.508038 5.053167 -1.273588 0
M  V30 383 H -4.600919 6.986341 -2.408570 0
M  V30 384 H -2.818823 8.068992 -1.366355 0
M  V30 385 H -2.371691 8.025953 -3.168007 0
M  V30 386 H -1.630918 6.889557 -1.956603 0
M  V30 387 H -2.552008 6.214855 -4.310844 0
M  V30 388 H -3.222307 4.677138 -3.691171 0
M  V30 389 H -4.293225 5.867523 -4.447200 0
M  V30 390 H -4.965899 2.398146 1.500562 0
M  V30 391 H -8.647904 7.033130 -3.012658 0
M  V30 392 H -10.485064 7.491528 -1.393708 0
M  V30 393 H -9.752260 8.910095 -2.230483 0
M  V30 394 H -9.301825 8.631652 -0.519857 0
M  V30 395 H -6.806913 8.080705 -2.872714 0
M  V30 396 H -9.253426 8.165797 2.909993 0
M  V30 397 H -11.324959 7.264473 4.027802 0
M  V30 398 H -10.796818 5.613182 3.650037 0
M  V30 399 H -11.131365 6.848407 2.315416 0
M  V30 400 H -9.665316 7.934843 5.149961 0
M  V30 401 H 1.978683 -7.867703 8.898299 0
M  V30 402 H 1.959747 -10.181001 8.875063 0
M  V30 403 H 1.131247 -9.930133 7.331970 0
M  V30 404 H 2.935181 -10.245441 7.403384 0
M  V30 405 H 4.398615 -8.952033 7.711403 0
M  V30 406 H 4.262699 -7.733522 9.006202 0
M  V30 407 H 4.225651 -7.237602 7.285443 0
M  V30 END ATOM
M  V30 BEGIN BOND
M  V30 1 1 1 2
M  V30 2 1 2 3
M  V30 3 1 3 4
M  V30 4 1 3 5
M  V30 5 1 5 6
M  V30 6 1 6 7
M  V30 7 2 7 8
M  V30 8 1 7 9
M  V30 9 1 9 10
M  V30 10 1 10 11
M  V30 11 1 9 12
M  V30 12 1 12 13
M  V30 13 2 13 14
M  V30 14 1 13 15
M  V30 15 1 15 16
M  V30 16 1 16 17
M  V30 17 1 15 18
M  V30 18 1 18 19
M  V30 19 2 19 20
M  V30 20 1 19 21
M  V30 21 1 21 22
M  V30 22 1 22 23
M  V30 23 1 23 24
M  V30 24 2 24 25
M  V30 25 1 24 26
M  V30 26 1 21 27
M  V30 27 1 27 28
M  V30 28 2 28 29
M  V30 29 1 28 30
M  V30 30 1 30 31
M  V30 31 1 31 32
M  V30 32 2 32 33
M  V30 33 1 32 34
M  V30 34 1 34 35
M  V30 35 1 35 36
M  V30 36 1 36 37
M  V30 37 1 37 38
M  V30 38 1 38 39
M  V30 39 2 39 40
M  V30 40 1 39 41
M  V30 41 1 41 42
M  V30 42 1 42 43
M  V30 43 1 43 44
M  V30 44 1 44 45
M  V30 45 1 45 46
M  V30 46 1 41 47
M  V30 47 1 47 48
M  V30 48 2 48 49
M  V30 49 1 48 50
M  V30 50 1 50 51
M  V30 51 1 51 52
M  V30 52 1 52 53
M  V30 53 1 52 54
M  V30 54 1 50 55
M  V30 55 1 55 56
M  V30 56 2 56 57
M  V30 57 1 56 58
M  V30 58 1 58 59
M  V30 59 1 59 60
M  V30 60 1 60 61
M  V30 61 1 61 62
M  V30 62 2 61 63
M  V30 63 1 58 64
M  V30 64 1 64 65
M  V30 65 2 65 66
M  V30 66 1 65 67
M  V30 67 1 67 68
M  V30 68 1 68 69
M  V30 69 1 69 70
M  V30 70 1 70 71
M  V30 71 1 30 72
M  V30 72 1 72 73
M  V30 73 1 72 74
M  V30 74 1 74 75
M  V30 75 1 5 76
M  V30 76 2 76 77
M  V30 77 1 76 78
M  V30 78 1 78 79
M  V30 79 1 79 80
M  V30 80 1 80 81
M  V30 81 1 81 82
M  V30 82 1 81 83
M  V30 83 1 79 84
M  V30 84 2 84 85
M  V30 85 1 84 86
M  V30 86 1 86 87
M  V30 87 1 87 88
M  V30 88 1 87 89
M  V30 89 2 89 90
M  V30 90 1 89 91
M  V30 91 1 91 92
M  V30 92 1 92 93
M  V30 93 1 93 94
M  V30 94 1 94 95
M  V30 95 1 95 96
M  V30 96 2 95 97
M  V30 97 1 92 98
M  V30 98 2 98 99
M  V30 99 1 98 100
M  V30 100 1 100 101
M  V30 101 1 101 102
M  V30 102 1 102 103
M  V30 103 1 103 104
M  V30 104 1 104 105
M  V30 105 1 105 106
M  V30 106 2 106 107 CFG=2
M  V30 107 1 106 108
M  V30 108 1 101 109
M  V30 109 2 109 110
M  V30 110 1 109 111
M  V30 111 1 111 112
M  V30 112 1 112 113
M  V30 113 1 113 114
M  V30 114 1 114 115
M  V30 115 1 115 116
M  V30 116 1 116 117
M  V30 117 2 117 118 CFG=2
M  V30 118 1 117 119
M  V30 119 1 112 120
M  V30 120 2 120 121
M  V30 121 1 120 122
M  V30 122 1 122 123
M  V30 123 1 123 124
M  V30 124 2 124 125
M  V30 125 1 124 126
M  V30 126 1 126 127
M  V30 127 1 127 128
M  V30 128 1 128 129
M  V30 129 1 129 130
M  V30 130 1 130 131
M  V30 131 1 131 132
M  V30 132 2 132 133 CFG=2
M  V30 133 1 132 134
M  V30 134 1 127 135
M  V30 135 2 135 136
M  V30 136 1 135 137
M  V30 137 1 137 138
M  V30 138 1 138 139
M  V30 139 1 139 140
M  V30 140 1 140 141
M  V30 141 1 141 142
M  V30 142 1 142 143
M  V30 143 1 138 144
M  V30 144 2 144 145
M  V30 145 1 144 146
M  V30 146 1 146 147
M  V30 147 1 147 148
M  V30 148 1 148 149
M  V30 149 1 149 150
M  V30 150 1 149 151
M  V30 151 1 147 152
M  V30 152 2 152 153
M  V30 153 1 152 154
M  V30 154 1 154 155
M  V30 155 1 155 156
M  V30 156 1 156 157
M  V30 157 1 157 158
M  V30 158 1 158 159
M  V30 159 2 159 160
M  V30 160 1 159 161
M  V30 161 1 161 162
M  V30 162 1 162 163
M  V30 163 1 163 164
M  V30 164 1 162 165
M  V30 165 2 165 166
M  V30 166 1 165 167
M  V30 167 1 167 168
M  V30 168 1 168 169
M  V30 169 2 169 170
M  V30 170 1 169 171
M  V30 171 1 171 172
M  V30 172 1 172 173
M  V30 173 2 173 174
M  V30 174 1 173 175
M  V30 175 1 175 176
M  V30 176 1 176 177
M  V30 177 1 177 178
M  V30 178 1 178 179
M  V30 179 1 178 180
M  V30 180 1 176 181
M  V30 181 2 181 182
M  V30 182 1 181 183
M  V30 183 1 172 184
M  V30 184 1 184 185
M  V30 185 1 184 186
M  V30 186 1 168 187
M  V30 187 1 187 188
M  V30 188 1 187 189
M  V30 189 1 123 190
M  V30 190 1 190 191
M  V30 191 1 190 192
M  V30 192 1 38 34
M  V30 193 1 71 67
M  V30 194 1 158 154
M  V30 195 1 1 193
M  V30 196 1 1 194
M  V30 197 1 1 195
M  V30 198 1 2 196
M  V30 199 1 2 197
M  V30 200 1 3 198 CFG=3
M  V30 201 1 4 199
M  V30 202 1 4 200
M  V30 203 1 4 201
M  V30 204 1 5 202 CFG=3
M  V30 205 1 6 203
M  V30 206 1 9 204 CFG=1
M  V30 207 1 10 205
M  V30 208 1 10 206
M  V30 209 1 11 207
M  V30 210 1 12 208
M  V30 211 1 15 209 CFG=3
M  V30 212 1 16 210
M  V30 213 1 16 211
M  V30 214 1 17 212
M  V30 215 1 18 213
M  V30 216 1 21 214 CFG=3
M  V30 217 1 22 215
M  V30 218 1 22 216
M  V30 219 1 23 217
M  V30 220 1 23 218
M  V30 221 1 26 219
M  V30 222 1 27 220
M  V30 223 1 30 221 CFG=3
M  V30 224 1 31 222
M  V30 225 1 34 223 CFG=3
M  V30 226 1 35 224
M  V30 227 1 35 225
M  V30 228 1 36 226
M  V30 229 1 36 227
M  V30 230 1 37 228
M  V30 231 1 37 229
M  V30 232 1 41 230 CFG=1
M  V30 233 1 42 231
M  V30 234 1 42 232
M  V30 235 1 43 233
M  V30 236 1 43 234
M  V30 237 1 44 235
M  V30 238 1 44 236
M  V30 239 1 45 237
M  V30 240 1 45 238
M  V30 241 1 46 239
M  V30 242 1 46 240
M  V30 243 1 47 241
M  V30 244 1 50 242 CFG=1
M  V30 245 1 51 243
M  V30 246 1 51 244
M  V30 247 1 52 245
M  V30 248 1 53 246
M  V30 249 1 53 247
M  V30 250 1 53 248
M  V30 251 1 54 249
M  V30 252 1 54 250
M  V30 253 1 54 251
M  V30 254 1 55 252
M  V30 255 1 58 253 CFG=3
M  V30 256 1 59 254
M  V30 257 1 59 255
M  V30 258 1 60 256
M  V30 259 1 60 257
M  V30 260 1 62 258
M  V30 261 1 62 259
M  V30 262 1 64 260
M  V30 263 1 67 261 CFG=3
M  V30 264 1 68 262
M  V30 265 1 68 263
M  V30 266 1 69 264
M  V30 267 1 69 265
M  V30 268 1 70 266
M  V30 269 1 70 267
M  V30 270 1 71 268
M  V30 271 1 72 269 CFG=1
M  V30 272 1 73 270
M  V30 273 1 73 271
M  V30 274 1 73 272
M  V30 275 1 74 273
M  V30 276 1 74 274
M  V30 277 1 75 275
M  V30 278 1 75 276
M  V30 279 1 75 277
M  V30 280 1 78 278
M  V30 281 1 79 279 CFG=1
M  V30 282 1 80 280
M  V30 283 1 80 281
M  V30 284 1 81 282
M  V30 285 1 82 283
M  V30 286 1 82 284
M  V30 287 1 82 285
M  V30 288 1 83 286
M  V30 289 1 83 287
M  V30 290 1 83 288
M  V30 291 1 86 289
M  V30 292 1 87 290 CFG=1
M  V30 293 1 88 291
M  V30 294 1 88 292
M  V30 295 1 88 293
M  V30 296 1 91 294
M  V30 297 1 92 295 CFG=1
M  V30 298 1 93 296
M  V30 299 1 93 297
M  V30 300 1 94 298
M  V30 301 1 94 299
M  V30 302 1 96 300
M  V30 303 1 96 301
M  V30 304 1 100 302
M  V30 305 1 101 303 CFG=3
M  V30 306 1 102 304
M  V30 307 1 102 305
M  V30 308 1 103 306
M  V30 309 1 103 307
M  V30 310 1 104 308
M  V30 311 1 104 309
M  V30 312 1 105 310
M  V30 313 1 107 311
M  V30 314 1 108 312
M  V30 315 1 108 313
M  V30 316 1 111 314
M  V30 317 1 112 315 CFG=1
M  V30 318 1 113 316
M  V30 319 1 113 317
M  V30 320 1 114 318
M  V30 321 1 114 319
M  V30 322 1 115 320
M  V30 323 1 115 321
M  V30 324 1 116 322
M  V30 325 1 118 323
M  V30 326 1 119 324
M  V30 327 1 119 325
M  V30 328 1 122 326
M  V30 329 1 123 327 CFG=3
M  V30 330 1 126 328
M  V30 331 1 127 329 CFG=1
M  V30 332 1 128 330
M  V30 333 1 128 331
M  V30 334 1 129 332
M  V30 335 1 129 333
M  V30 336 1 130 334
M  V30 337 1 130 335
M  V30 338 1 131 336
M  V30 339 1 133 337
M  V30 340 1 134 338
M  V30 341 1 134 339
M  V30 342 1 137 340
M  V30 343 1 138 341 CFG=3
M  V30 344 1 139 342
M  V30 345 1 139 343
M  V30 346 1 140 344
M  V30 347 1 140 345
M  V30 348 1 141 346
M  V30 349 1 141 347
M  V30 350 1 142 348
M  V30 351 1 142 349
M  V30 352 1 143 350
M  V30 353 1 143 351
M  V30 354 1 146 352
M  V30 355 1 147 353 CFG=1
M  V30 356 1 148 354
M  V30 357 1 148 355
M  V30 358 1 149 356
M  V30 359 1 150 357
M  V30 360 1 150 358
M  V30 361 1 150 359
M  V30 362 1 151 360
M  V30 363 1 151 361
M  V30 364 1 151 362
M  V30 365 1 155 363
M  V30 366 1 155 364
M  V30 367 1 156 365
M  V30 368 1 156 366
M  V30 369 1 157 367
M  V30 370 1 157 368
M  V30 371 1 158 369 CFG=3
M  V30 372 1 161 370
M  V30 373 1 162 371 CFG=1
M  V30 374 1 163 372
M  V30 375 1 163 373
M  V30 376 1 164 374
M  V30 377 1 167 375
M  V30 378 1 168 376 CFG=1
M  V30 379 1 171 377
M  V30 380 1 172 378 CFG=1
M  V30 381 1 175 379
M  V30 382 1 176 380 CFG=3
M  V30 383 1 177 381
M  V30 384 1 177 382
M  V30 385 1 178 383
M  V30 386 1 179 384
M  V30 387 1 179 385
M  V30 388 1 179 386
M  V30 389 1 180 387
M  V30 390 1 180 388
M  V30 391 1 180 389
M  V30 392 1 183 390
M  V30 393 1 184 391 CFG=3
M  V30 394 1 185 392
M  V30 395 1 185 393
M  V30 396 1 185 394
M  V30 397 1 186 395
M  V30 398 1 187 396 CFG=3
M  V30 399 1 188 397
M  V30 400 1 188 398
M  V30 401 1 188 399
M  V30 402 1 189 400
M  V30 403 1 190 401
M  V30 404 1 191 402
M  V30 405 1 191 403
M  V30 406 1 191 404
M  V30 407 1 192 405
M  V30 408 1 192 406
M  V30 409 1 192 407
M  V30 END BOND
M  V30 END CTAB
M  END
>  <Dataset>  (288) 
ChEMBL_Kinases

>  <Ligand_Instance>  (288) 
nan

>  <PDB_ID>  (288) 
nan

>  <Standardized_SMILES>  (288) 
CC[C@H](C)[C@H](NC(=O)[C@H](CO)NC(=O)[C@H](CO)NC(=O)[C@H](CCC(=O)O)NC(=O)[C@@H](NC(=O)[C@@H]1CCCN1C(=O)[C@H](CCCCN)NC(=O)[C@H](CC(C)C)NC(=O)[C@H](CCC(N)=O)NC(=O)[C@@H]1CCCN1)[C@@H](C)CC)C(=O)N[C@@H](CC(C)C)C(=O)N[C@@H](C)C(=O)N[C@@H](CCC(N)=O)C(=O)N[C@@H](CCCNC(=N)N)C(=O)N[C@@H](CCCNC(=N)N)C(=O)N[C@H](C(=O)N[C@@H](CCCNC(=N)N)C(=O)N[C@@H](CCCCN)C(=O)N[C@@H](CC(C)C)C(=O)N1CCC[C@H]1C(=O)N[C@@H](CO)C(=O)N[C@H](C(=O)N[C@H](C(=O)N[C@@H](CC(C)C)C(=O)O)[C@@H](C)O)[C@@H](C)O)C(C)C

>  <Name>  (288) 
nan

>  <Pocket>  (288) 
nan

>  <ATP_Site>  (288) 
nan

>  <Peripheral>  (288) 
nan

>  <Num_H_Atoms_ProtBoundConf>  (288) 
nan

>  <Num_Resolved_Atoms>  (288) 
nan

>  <Num_Not_Resolved_Atoms>  (288) 
nan

$$$$
CHEMBL4794578
     RDKit          3D

  0  0  0  0  0  0  0  0  0  0999 V3000
M  V30 BEGIN CTAB
M  V30 COUNTS 52 55 0 0 0
M  V30 BEGIN ATOM
M  V30 1 C 0.624784 -2.847284 4.408005 0
M  V30 2 C 1.558756 -3.945012 3.924791 0
M  V30 3 O 1.098788 -4.716083 2.899981 0
M  V30 4 C 0.693084 -4.580310 1.637980 0
M  V30 5 N 0.552639 -3.529120 0.816469 0
M  V30 6 C 0.111619 -3.662480 -0.441886 0
M  V30 7 N -0.074872 -2.553497 -1.310723 0
M  V30 8 C 0.015904 -1.152599 -1.102967 0
M  V30 9 C 0.308704 -0.611745 0.139131 0
M  V30 10 C 0.394279 0.747584 0.412216 0
M  V30 11 C 0.169278 1.636480 -0.638560 0
M  V30 12 C 0.222582 3.092704 -0.508326 0
M  V30 13 O 0.836191 3.978520 -1.176060 0
M  V30 14 N -0.498240 3.803376 0.513271 0
M  V30 15 C -0.315510 5.265559 0.481705 0
M  V30 16 C 0.015637 5.634240 1.918644 0
M  V30 17 O 0.498220 4.534428 2.640936 0
M  V30 18 C -0.570650 3.662083 2.873110 0
M  V30 19 C -1.391066 3.450768 1.607803 0
M  V30 20 C -0.122526 1.107362 -1.878097 0
M  V30 21 C -0.206587 -0.240084 -2.146404 0
M  V30 22 O -0.501139 -0.701499 -3.406964 0
M  V30 23 C -0.745549 0.057674 -4.543187 0
M  V30 24 N -0.206932 -4.871484 -0.924993 0
M  V30 25 C -0.094188 -5.971896 -0.165677 0
M  V30 26 N -0.383287 -7.210372 -0.548803 0
M  V30 27 C -0.117737 -7.988032 0.534549 0
M  V30 28 C 0.330971 -7.190019 1.562353 0
M  V30 29 C 0.363889 -5.848981 1.147906 0
M  V30 30 H 1.051937 -2.446691 5.368991 0
M  V30 31 H 0.637877 -1.969484 3.716381 0
M  V30 32 H -0.372004 -3.206021 4.662769 0
M  V30 33 H 2.572307 -3.496879 3.797162 0
M  V30 34 H 1.684751 -4.614735 4.829060 0
M  V30 35 H -0.328949 -2.784208 -2.323196 0
M  V30 36 H 0.498069 -1.210477 1.007489 0
M  V30 37 H 0.620225 1.172352 1.368619 0
M  V30 38 H 0.421278 5.601514 -0.240520 0
M  V30 39 H -1.325850 5.675311 0.267477 0
M  V30 40 H 0.736679 6.455252 1.928585 0
M  V30 41 H -0.889754 5.991139 2.466361 0
M  V30 42 H -0.203597 2.665477 3.170199 0
M  V30 43 H -1.212004 4.139209 3.636510 0
M  V30 44 H -1.764507 2.421526 1.526623 0
M  V30 45 H -2.265006 4.126009 1.565011 0
M  V30 46 H -0.293457 1.793203 -2.673600 0
M  V30 47 H -1.836970 0.141955 -4.792512 0
M  V30 48 H -0.309975 -0.526170 -5.407795 0
M  V30 49 H -0.350262 1.074605 -4.556728 0
M  V30 50 H -0.723761 -7.723385 -1.365039 0
M  V30 51 H -0.188527 -9.068695 0.731785 0
M  V30 52 H 0.638799 -7.457628 2.573855 0
M  V30 END ATOM
M  V30 BEGIN BOND
M  V30 1 1 1 2
M  V30 2 1 2 3
M  V30 3 1 3 4
M  V30 4 2 4 5
M  V30 5 1 5 6
M  V30 6 1 6 7
M  V30 7 1 7 8
M  V30 8 2 8 9
M  V30 9 1 9 10
M  V30 10 2 10 11
M  V30 11 1 11 12
M  V30 12 2 12 13
M  V30 13 1 12 14
M  V30 14 1 14 15
M  V30 15 1 15 16
M  V30 16 1 16 17
M  V30 17 1 17 18
M  V30 18 1 18 19
M  V30 19 1 11 20
M  V30 20 2 20 21
M  V30 21 1 21 22
M  V30 22 1 22 23
M  V30 23 2 6 24
M  V30 24 1 24 25
M  V30 25 1 25 26
M  V30 26 1 26 27
M  V30 27 2 27 28
M  V30 28 1 28 29
M  V30 29 1 29 4
M  V30 30 1 21 8
M  V30 31 2 29 25
M  V30 32 1 19 14
M  V30 33 1 1 30
M  V30 34 1 1 31
M  V30 35 1 1 32
M  V30 36 1 2 33
M  V30 37 1 2 34
M  V30 38 1 7 35
M  V30 39 1 9 36
M  V30 40 1 10 37
M  V30 41 1 15 38
M  V30 42 1 15 39
M  V30 43 1 16 40
M  V30 44 1 16 41
M  V30 45 1 18 42
M  V30 46 1 18 43
M  V30 47 1 19 44
M  V30 48 1 19 45
M  V30 49 1 20 46
M  V30 50 1 23 47
M  V30 51 1 23 48
M  V30 52 1 23 49
M  V30 53 1 26 50
M  V30 54 1 27 51
M  V30 55 1 28 52
M  V30 END BOND
M  V30 END CTAB
M  END
>  <Dataset>  (289) 
ChEMBL_Kinases

>  <Ligand_Instance>  (289) 
nan

>  <PDB_ID>  (289) 
nan

>  <Standardized_SMILES>  (289) 
CCOc1nc(Nc2ccc(C(=O)N3CCOCC3)cc2OC)nc2[nH]ccc12

>  <Name>  (289) 
nan

>  <Pocket>  (289) 
nan

>  <ATP_Site>  (289) 
nan

>  <Peripheral>  (289) 
nan

>  <Num_H_Atoms_ProtBoundConf>  (289) 
nan

>  <Num_Resolved_Atoms>  (289) 
nan

>  <Num_Not_Resolved_Atoms>  (289) 
nan

$$$$
CHEMBL4794583
     RDKit          3D

  0  0  0  0  0  0  0  0  0  0999 V3000
M  V30 BEGIN CTAB
M  V30 COUNTS 74 78 0 0 0
M  V30 BEGIN ATOM
M  V30 1 C 5.889637 -4.172970 6.263381 0
M  V30 2 C 6.651943 -4.159345 4.935949 0
M  V30 3 C 6.787760 -5.559642 4.402361 0
M  V30 4 C 5.985995 -3.228207 3.992947 0
M  V30 5 C 6.581090 -2.086466 3.498480 0
M  V30 6 C 5.867670 -1.302898 2.633021 0
M  V30 7 C 4.583877 -1.543316 2.193452 0
M  V30 8 N 3.842378 -0.753497 1.307165 0
M  V30 9 C 4.261065 0.417804 0.626265 0
M  V30 10 C 3.376690 1.081688 -0.201568 0
M  V30 11 C 3.681394 2.220535 -0.907314 0
M  V30 12 C 2.668281 2.843562 -1.752128 0
M  V30 13 N 2.787875 3.844900 -2.638674 0
M  V30 14 O 1.628664 4.092589 -3.175631 0
M  V30 15 C 0.707146 3.283632 -2.680151 0
M  V30 16 C -0.723773 3.134988 -2.925449 0
M  V30 17 C -1.506919 2.183292 -2.271929 0
M  V30 18 C -2.850011 2.126914 -2.573157 0
M  V30 19 C -3.488612 2.946121 -3.480165 0
M  V30 20 N -4.864104 2.819980 -3.720080 0
M  V30 21 S -5.891460 1.472249 -4.028889 0
M  V30 22 O -5.406458 0.863293 -5.329649 0
M  V30 23 O -7.282873 2.010751 -4.258413 0
M  V30 24 C -5.950936 0.314538 -2.754850 0
M  V30 25 C -6.822541 0.386965 -1.687692 0
M  V30 26 C -6.829558 -0.585369 -0.688477 0
M  V30 27 C -5.972287 -1.666473 -0.710193 0
M  V30 28 C -5.914166 -2.735562 0.302560 0
M  V30 29 C -6.823230 -3.895248 0.003252 0
M  V30 30 C -6.237330 -2.191908 1.681715 0
M  V30 31 C -4.504016 -3.328991 0.397847 0
M  V30 32 C -5.079670 -1.788405 -1.754369 0
M  V30 33 C -5.105484 -0.800915 -2.726029 0
M  V30 34 C -2.665055 3.883850 -4.110554 0
M  V30 35 C -1.316141 3.977996 -3.841624 0
M  V30 36 N 1.365469 2.514129 -1.798689 0
M  V30 37 C 4.944367 2.761823 -0.804468 0
M  V30 38 C 5.801458 2.076840 0.028176 0
M  V30 39 N 5.461172 0.978511 0.690649 0
M  V30 40 C 4.055433 -2.696889 2.727048 0
M  V30 41 C 4.705580 -3.523765 3.592529 0
M  V30 42 H 5.003212 -3.500701 6.171756 0
M  V30 43 H 6.520977 -3.811099 7.101395 0
M  V30 44 H 5.555207 -5.200673 6.533847 0
M  V30 45 H 7.664180 -3.770555 5.157068 0
M  V30 46 H 6.893761 -5.582648 3.311189 0
M  V30 47 H 5.881430 -6.155004 4.653533 0
M  V30 48 H 7.661967 -6.088295 4.826815 0
M  V30 49 H 7.584513 -1.851421 3.810472 0
M  V30 50 H 6.388017 -0.432363 2.289047 0
M  V30 51 H 2.849751 -1.073846 1.127188 0
M  V30 52 H 2.366674 0.698978 -0.319262 0
M  V30 53 H -0.985701 1.570143 -1.582063 0
M  V30 54 H -3.349176 1.356932 -2.004407 0
M  V30 55 H -5.252865 3.810363 -3.679180 0
M  V30 56 H -7.513406 1.222189 -1.632980 0
M  V30 57 H -7.510321 -0.543515 0.159869 0
M  V30 58 H -7.712480 -3.877717 0.694575 0
M  V30 59 H -7.122996 -3.942743 -1.047685 0
M  V30 60 H -6.348489 -4.886331 0.221211 0
M  V30 61 H -7.279818 -2.373259 1.947762 0
M  V30 62 H -5.591153 -2.624061 2.473393 0
M  V30 63 H -6.019275 -1.087736 1.693939 0
M  V30 64 H -4.294297 -3.760165 1.385822 0
M  V30 65 H -3.810255 -2.513421 0.185355 0
M  V30 66 H -4.334077 -4.121433 -0.359193 0
M  V30 67 H -4.389126 -2.596967 -1.835132 0
M  V30 68 H -4.405281 -0.870082 -3.573174 0
M  V30 69 H -3.140881 4.536896 -4.824423 0
M  V30 70 H -0.786621 4.737820 -4.387666 0
M  V30 71 H 5.236103 3.655149 -1.338091 0
M  V30 72 H 6.815365 2.465335 0.144384 0
M  V30 73 H 3.038266 -2.998303 2.454131 0
M  V30 74 H 4.222688 -4.423760 3.975317 0
M  V30 END ATOM
M  V30 BEGIN BOND
M  V30 1 1 1 2
M  V30 2 1 2 3
M  V30 3 1 2 4
M  V30 4 2 4 5
M  V30 5 1 5 6
M  V30 6 2 6 7
M  V30 7 1 7 8
M  V30 8 1 8 9
M  V30 9 2 9 10
M  V30 10 1 10 11
M  V30 11 1 11 12
M  V30 12 2 12 13
M  V30 13 1 13 14
M  V30 14 1 14 15
M  V30 15 1 15 16
M  V30 16 2 16 17
M  V30 17 1 17 18
M  V30 18 2 18 19
M  V30 19 1 19 20
M  V30 20 1 20 21
M  V30 21 2 21 22
M  V30 22 2 21 23
M  V30 23 1 21 24
M  V30 24 2 24 25
M  V30 25 1 25 26
M  V30 26 2 26 27
M  V30 27 1 27 28
M  V30 28 1 28 29
M  V30 29 1 28 30
M  V30 30 1 28 31
M  V30 31 1 27 32
M  V30 32 2 32 33
M  V30 33 1 19 34
M  V30 34 2 34 35
M  V30 35 2 15 36
M  V30 36 2 11 37
M  V30 37 1 37 38
M  V30 38 2 38 39
M  V30 39 1 7 40
M  V30 40 2 40 41
M  V30 41 1 41 4
M  V30 42 1 39 9
M  V30 43 1 36 12
M  V30 44 1 35 16
M  V30 45 1 33 24
M  V30 46 1 1 42
M  V30 47 1 1 43
M  V30 48 1 1 44
M  V30 49 1 2 45
M  V30 50 1 3 46
M  V30 51 1 3 47
M  V30 52 1 3 48
M  V30 53 1 5 49
M  V30 54 1 6 50
M  V30 55 1 8 51
M  V30 56 1 10 52
M  V30 57 1 17 53
M  V30 58 1 18 54
M  V30 59 1 20 55
M  V30 60 1 25 56
M  V30 61 1 26 57
M  V30 62 1 29 58
M  V30 63 1 29 59
M  V30 64 1 29 60
M  V30 65 1 30 61
M  V30 66 1 30 62
M  V30 67 1 30 63
M  V30 68 1 31 64
M  V30 69 1 31 65
M  V30 70 1 31 66
M  V30 71 1 32 67
M  V30 72 1 33 68
M  V30 73 1 34 69
M  V30 74 1 35 70
M  V30 75 1 37 71
M  V30 76 1 38 72
M  V30 77 1 40 73
M  V30 78 1 41 74
M  V30 END BOND
M  V30 END CTAB
M  END
>  <Dataset>  (290) 
ChEMBL_Kinases

>  <Ligand_Instance>  (290) 
nan

>  <PDB_ID>  (290) 
nan

>  <Standardized_SMILES>  (290) 
CC(C)c1ccc(Nc2cc(-c3noc(-c4ccc(NS(=O)(=O)c5ccc(C(C)(C)C)cc5)cc4)n3)ccn2)cc1

>  <Name>  (290) 
nan

>  <Pocket>  (290) 
nan

>  <ATP_Site>  (290) 
nan

>  <Peripheral>  (290) 
nan

>  <Num_H_Atoms_ProtBoundConf>  (290) 
nan

>  <Num_Resolved_Atoms>  (290) 
nan

>  <Num_Not_Resolved_Atoms>  (290) 
nan

$$$$
CHEMBL4104344
     RDKit          3D

  0  0  0  0  0  0  0  0  0  0999 V3000
M  V30 BEGIN CTAB
M  V30 COUNTS 36 38 0 0 0
M  V30 BEGIN ATOM
M  V30 1 C -1.171721 -4.964569 4.141393 0
M  V30 2 C -0.424316 -3.882186 3.462160 0
M  V30 3 C -0.828051 -3.677875 2.145656 0
M  V30 4 C -0.222270 -2.689133 1.357153 0
M  V30 5 C 0.782376 -1.928667 1.925595 0
M  V30 6 C 1.416819 -0.896146 1.105593 0
M  V30 7 C 2.736759 -0.524971 1.264339 0
M  V30 8 N 3.330006 0.425350 0.513434 0
M  V30 9 C 2.614430 1.064807 -0.454865 0
M  V30 10 N 3.218055 2.072604 -1.261934 0
M  V30 11 C 1.275230 0.759333 -0.690550 0
M  V30 12 C 0.488249 1.428899 -1.720024 0
M  V30 13 C 0.637196 1.796543 -3.016685 0
M  V30 14 N -0.500831 2.415085 -3.449193 0
M  V30 15 N -1.362666 2.433674 -2.419677 0
M  V30 16 C -2.702367 3.026038 -2.519446 0
M  V30 17 C -0.797675 1.843708 -1.351644 0
M  V30 18 C 0.723685 -0.227744 0.116215 0
M  V30 19 C 1.189284 -2.125473 3.233015 0
M  V30 20 C 0.589834 -3.100650 4.006436 0
M  V30 21 H -0.797432 -5.061908 5.196149 0
M  V30 22 H -1.091320 -5.939539 3.658099 0
M  V30 23 H -2.258310 -4.723524 4.257236 0
M  V30 24 H -1.602918 -4.233426 1.641185 0
M  V30 25 H -0.519567 -2.512538 0.332095 0
M  V30 26 H 3.347266 -1.003574 2.020341 0
M  V30 27 H 3.573680 1.641434 -2.157084 0
M  V30 28 H 3.049823 2.880271 -0.591273 0
M  V30 29 H 1.586087 1.563641 -3.509633 0
M  V30 30 H -2.965155 3.574156 -1.593938 0
M  V30 31 H -2.742718 3.767146 -3.338406 0
M  V30 32 H -3.476946 2.253138 -2.758400 0
M  V30 33 H -1.358492 1.765234 -0.408567 0
M  V30 34 H -0.319521 -0.460266 -0.072978 0
M  V30 35 H 1.971355 -1.543065 3.696040 0
M  V30 36 H 0.825809 -3.342679 5.037147 0
M  V30 END ATOM
M  V30 BEGIN BOND
M  V30 1 1 1 2
M  V30 2 2 2 3
M  V30 3 1 3 4
M  V30 4 2 4 5
M  V30 5 1 5 6
M  V30 6 2 6 7
M  V30 7 1 7 8
M  V30 8 2 8 9
M  V30 9 1 9 10
M  V30 10 1 9 11
M  V30 11 1 11 12
M  V30 12 1 12 13
M  V30 13 2 13 14
M  V30 14 1 14 15
M  V30 15 1 15 16
M  V30 16 1 15 17
M  V30 17 2 11 18
M  V30 18 1 5 19
M  V30 19 2 19 20
M  V30 20 1 20 2
M  V30 21 1 18 6
M  V30 22 2 17 12
M  V30 23 1 1 21
M  V30 24 1 1 22
M  V30 25 1 1 23
M  V30 26 1 3 24
M  V30 27 1 4 25
M  V30 28 1 7 26
M  V30 29 1 10 27
M  V30 30 1 10 28
M  V30 31 1 13 29
M  V30 32 1 16 30
M  V30 33 1 16 31
M  V30 34 1 16 32
M  V30 35 1 17 33
M  V30 36 1 18 34
M  V30 37 1 19 35
M  V30 38 1 20 36
M  V30 END BOND
M  V30 END CTAB
M  END
>  <Dataset>  (291) 
ChEMBL_Kinases

>  <Ligand_Instance>  (291) 
nan

>  <PDB_ID>  (291) 
nan

>  <Standardized_SMILES>  (291) 
Cc1ccc(-c2cnc(N)c(-c3cnn(C)c3)c2)cc1

>  <Name>  (291) 
nan

>  <Pocket>  (291) 
nan

>  <ATP_Site>  (291) 
nan

>  <Peripheral>  (291) 
nan

>  <Num_H_Atoms_ProtBoundConf>  (291) 
nan

>  <Num_Resolved_Atoms>  (291) 
nan

>  <Num_Not_Resolved_Atoms>  (291) 
nan

$$$$
CHEMBL4794486
     RDKit          3D

  0  0  0  0  0  0  0  0  0  0999 V3000
M  V30 BEGIN CTAB
M  V30 COUNTS 55 60 0 0 0
M  V30 BEGIN ATOM
M  V30 1 C 2.193420 0.704880 6.240283 0
M  V30 2 O 2.491826 0.645097 4.876386 0
M  V30 3 C 3.137254 -0.370162 4.217391 0
M  V30 4 C 3.642225 -1.556946 4.716711 0
M  V30 5 C 4.267965 -2.464446 3.879252 0
M  V30 6 C 4.409926 -2.218561 2.521006 0
M  V30 7 C 3.900159 -1.019461 2.014243 0
M  V30 8 F 4.085898 -0.873745 0.692265 0
M  V30 9 C 3.271188 -0.111317 2.866475 0
M  V30 10 C 2.818354 1.062093 2.136450 0
M  V30 11 C 1.522398 0.966790 1.624538 0
M  V30 12 C 1.006473 2.040681 0.912925 0
M  V30 13 C 1.813275 3.148737 0.752623 0
M  V30 14 C 3.092535 3.240328 1.259074 0
M  V30 15 N 3.543917 2.176986 1.938206 0
M  V30 16 C 1.026545 4.017924 0.018442 0
M  V30 17 N -0.152987 3.416425 -0.212371 0
M  V30 18 N -0.192408 2.222619 0.315993 0
M  V30 19 C -1.299584 1.348121 0.240881 0
M  V30 20 C -2.410877 1.730938 0.963512 0
M  V30 21 C -3.555832 0.940561 0.957984 0
M  V30 22 C -3.566728 -0.244298 0.212602 0
M  V30 23 C -2.434252 -0.589608 -0.495440 0
M  V30 24 N -2.457965 -1.797513 -1.249872 0
M  V30 25 C -3.617420 -2.673504 -1.303278 0
M  V30 26 C -3.244560 -3.680436 -2.376851 0 CFG=2
M  V30 27 C -1.789349 -3.899032 -1.972780 0
M  V30 28 C -1.443964 -2.404258 -2.072263 0 CFG=1
M  V30 29 C -1.854035 -2.207001 -3.511549 0
M  V30 30 N -3.105874 -2.937621 -3.598896 0
M  V30 31 C -3.205430 -3.753203 -4.782616 0
M  V30 32 N -1.321068 0.190892 -0.482432 0
M  V30 33 H 1.071817 0.746308 6.351326 0
M  V30 34 H 2.536328 1.664797 6.716404 0
M  V30 35 H 2.531923 -0.193046 6.789451 0
M  V30 36 H 3.495851 -1.679143 5.777583 0
M  V30 37 H 4.627242 -3.360629 4.368510 0
M  V30 38 H 4.906216 -2.958834 1.909848 0
M  V30 39 H 0.911831 0.094413 1.761302 0
M  V30 40 H 3.710527 4.125983 1.119427 0
M  V30 41 H 1.350720 5.008418 -0.295015 0
M  V30 42 H -2.480370 2.633205 1.564739 0
M  V30 43 H -4.443493 1.209274 1.511733 0
M  V30 44 H -4.469864 -0.824758 0.235455 0
M  V30 45 H -4.548708 -2.165591 -1.563936 0
M  V30 46 H -3.757725 -3.210374 -0.320309 0
M  V30 47 H -3.837000 -4.567630 -2.406492 0
M  V30 48 H -1.226305 -4.438359 -2.757462 0
M  V30 49 H -1.670938 -4.291161 -0.959247 0
M  V30 50 H -0.416393 -2.177112 -1.837235 0
M  V30 51 H -1.069611 -2.636956 -4.176352 0
M  V30 52 H -1.973034 -1.133867 -3.722752 0
M  V30 53 H -4.164779 -4.315978 -4.674428 0
M  V30 54 H -2.354846 -4.443830 -4.935007 0
M  V30 55 H -3.355331 -3.078028 -5.649190 0
M  V30 END ATOM
M  V30 BEGIN BOND
M  V30 1 1 1 2
M  V30 2 1 2 3
M  V30 3 2 3 4
M  V30 4 1 4 5
M  V30 5 2 5 6
M  V30 6 1 6 7
M  V30 7 1 7 8
M  V30 8 2 7 9
M  V30 9 1 9 10
M  V30 10 2 10 11
M  V30 11 1 11 12
M  V30 12 2 12 13
M  V30 13 1 13 14
M  V30 14 2 14 15
M  V30 15 1 13 16
M  V30 16 2 16 17
M  V30 17 1 17 18
M  V30 18 1 18 19
M  V30 19 2 19 20
M  V30 20 1 20 21
M  V30 21 2 21 22
M  V30 22 1 22 23
M  V30 23 1 23 24
M  V30 24 1 24 25
M  V30 25 1 25 26
M  V30 26 1 26 27
M  V30 27 1 27 28
M  V30 28 1 28 29
M  V30 29 1 29 30
M  V30 30 1 30 31
M  V30 31 2 23 32
M  V30 32 1 9 3
M  V30 33 1 15 10
M  V30 34 1 32 19
M  V30 35 1 18 12
M  V30 36 1 28 24
M  V30 37 1 30 26
M  V30 38 1 1 33
M  V30 39 1 1 34
M  V30 40 1 1 35
M  V30 41 1 4 36
M  V30 42 1 5 37
M  V30 43 1 6 38
M  V30 44 1 11 39
M  V30 45 1 14 40
M  V30 46 1 16 41
M  V30 47 1 20 42
M  V30 48 1 21 43
M  V30 49 1 22 44
M  V30 50 1 25 45
M  V30 51 1 25 46
M  V30 52 1 26 47 CFG=3
M  V30 53 1 27 48
M  V30 54 1 27 49
M  V30 55 1 28 50 CFG=3
M  V30 56 1 29 51
M  V30 57 1 29 52
M  V30 58 1 31 53
M  V30 59 1 31 54
M  V30 60 1 31 55
M  V30 END BOND
M  V30 END CTAB
M  END
>  <Dataset>  (292) 
ChEMBL_Kinases

>  <Ligand_Instance>  (292) 
nan

>  <PDB_ID>  (292) 
nan

>  <Standardized_SMILES>  (292) 
COc1cccc(F)c1-c1cc2c(cn1)cnn2-c1cccc(N2C[C@@H]3C[C@H]2CN3C)n1

>  <Name>  (292) 
nan

>  <Pocket>  (292) 
nan

>  <ATP_Site>  (292) 
nan

>  <Peripheral>  (292) 
nan

>  <Num_H_Atoms_ProtBoundConf>  (292) 
nan

>  <Num_Resolved_Atoms>  (292) 
nan

>  <Num_Not_Resolved_Atoms>  (292) 
nan

$$$$
CHEMBL410318
     RDKit          3D

  0  0  0  0  0  0  0  0  0  0999 V3000
M  V30 BEGIN CTAB
M  V30 COUNTS 47 50 0 0 0
M  V30 BEGIN ATOM
M  V30 1 C 1.483677 -3.816556 -1.067061 0
M  V30 2 O 0.870631 -3.192048 0.043060 0
M  V30 3 C 0.925591 -1.864589 0.306712 0
M  V30 4 O 1.619052 -1.748553 -0.732458 0
M  V30 5 C 0.569542 -0.756978 1.148914 0
M  V30 6 C 1.079057 0.446830 0.709936 0
M  V30 7 C 1.871309 0.606244 -0.504097 0
M  V30 8 C 1.262999 0.876680 -1.714986 0
M  V30 9 C 2.024377 1.025997 -2.860489 0
M  V30 10 C 3.410009 0.902824 -2.790827 0
M  V30 11 C 4.017952 0.629682 -1.565028 0
M  V30 12 C 3.240758 0.480309 -0.412339 0
M  V30 13 C 0.834897 1.583816 1.452063 0
M  V30 14 C 1.312228 2.814312 1.073084 0
M  V30 15 C 1.071384 3.952622 1.811034 0
M  V30 16 C 0.323180 3.814113 2.961472 0
M  V30 17 C -0.145436 2.582181 3.326077 0
M  V30 18 C 0.085447 1.416604 2.595511 0
M  V30 19 C -0.385239 0.186533 2.963300 0
M  V30 20 O -1.043835 0.209951 4.022465 0
M  V30 21 N -0.163068 -0.940205 2.257695 0
M  V30 22 C -0.679871 -2.202609 2.700151 0
M  V30 23 C -2.051449 -2.512184 2.269400 0
M  V30 24 C -3.079180 -2.165443 3.159993 0
M  V30 25 C -4.413467 -2.391182 2.892882 0
M  V30 26 C -4.806838 -2.981938 1.710646 0
M  V30 27 C -3.839383 -3.343056 0.799652 0
M  V30 28 C -2.525865 -3.094677 1.117507 0
M  V30 29 H 1.014315 -3.373819 -1.988343 0
M  V30 30 H 1.264198 -4.889975 -1.101254 0
M  V30 31 H 2.568108 -3.650668 -1.012436 0
M  V30 32 H 0.191743 0.974159 -1.781120 0
M  V30 33 H 1.548185 1.239918 -3.820463 0
M  V30 34 H 4.046835 1.015360 -3.681524 0
M  V30 35 H 5.114633 0.545327 -1.581526 0
M  V30 36 H 3.788783 0.268909 0.502686 0
M  V30 37 H 1.899302 2.881601 0.157538 0
M  V30 38 H 1.464620 4.902079 1.478854 0
M  V30 39 H 0.100763 4.687765 3.587793 0
M  V30 40 H -0.739675 2.502462 4.249177 0
M  V30 41 H -0.024394 -3.022355 2.277430 0
M  V30 42 H -0.638945 -2.312249 3.815954 0
M  V30 43 H -2.974842 -1.698903 4.135471 0
M  V30 44 H -5.242236 -2.146857 3.536428 0
M  V30 45 H -5.823781 -3.196724 1.417047 0
M  V30 46 H -4.063328 -3.809833 -0.147860 0
M  V30 47 H -1.772658 -3.379148 0.403476 0
M  V30 END ATOM
M  V30 BEGIN BOND
M  V30 1 1 1 2
M  V30 2 1 2 3
M  V30 3 2 3 4
M  V30 4 1 3 5
M  V30 5 2 5 6
M  V30 6 1 6 7
M  V30 7 2 7 8
M  V30 8 1 8 9
M  V30 9 2 9 10
M  V30 10 1 10 11
M  V30 11 2 11 12
M  V30 12 1 6 13
M  V30 13 2 13 14
M  V30 14 1 14 15
M  V30 15 2 15 16
M  V30 16 1 16 17
M  V30 17 2 17 18
M  V30 18 1 18 19
M  V30 19 2 19 20
M  V30 20 1 19 21
M  V30 21 1 21 22
M  V30 22 1 22 23
M  V30 23 2 23 24
M  V30 24 1 24 25
M  V30 25 2 25 26
M  V30 26 1 26 27
M  V30 27 2 27 28
M  V30 28 1 21 5
M  V30 29 1 28 23
M  V30 30 1 12 7
M  V30 31 1 18 13
M  V30 32 1 1 29
M  V30 33 1 1 30
M  V30 34 1 1 31
M  V30 35 1 8 32
M  V30 36 1 9 33
M  V30 37 1 10 34
M  V30 38 1 11 35
M  V30 39 1 12 36
M  V30 40 1 14 37
M  V30 41 1 15 38
M  V30 42 1 16 39
M  V30 43 1 17 40
M  V30 44 1 22 41
M  V30 45 1 22 42
M  V30 46 1 24 43
M  V30 47 1 25 44
M  V30 48 1 26 45
M  V30 49 1 27 46
M  V30 50 1 28 47
M  V30 END BOND
M  V30 END CTAB
M  END
>  <Dataset>  (293) 
ChEMBL_Kinases

>  <Ligand_Instance>  (293) 
nan

>  <PDB_ID>  (293) 
nan

>  <Standardized_SMILES>  (293) 
COC(=O)c1c(-c2ccccc2)c2ccccc2c(=O)n1Cc1ccccc1

>  <Name>  (293) 
nan

>  <Pocket>  (293) 
nan

>  <ATP_Site>  (293) 
nan

>  <Peripheral>  (293) 
nan

>  <Num_H_Atoms_ProtBoundConf>  (293) 
nan

>  <Num_Resolved_Atoms>  (293) 
nan

>  <Num_Not_Resolved_Atoms>  (293) 
nan

$$$$
CHEMBL4103149
     RDKit          3D

  0  0  0  0  0  0  0  0  0  0999 V3000
M  V30 BEGIN CTAB
M  V30 COUNTS 53 57 0 0 0
M  V30 BEGIN ATOM
M  V30 1 N 6.059386 -0.927756 5.737415 0
M  V30 2 C 6.113909 -1.943058 4.751600 0
M  V30 3 O 6.769347 -2.975578 4.935553 0
M  V30 4 C 5.366756 -1.716082 3.518451 0
M  V30 5 C 5.382037 -2.665207 2.517461 0
M  V30 6 C 4.694055 -2.514128 1.319474 0
M  V30 7 C 3.951807 -1.370395 1.092537 0
M  V30 8 C 3.936183 -0.406178 2.109291 0
M  V30 9 C 4.628865 -0.571075 3.301556 0
M  V30 10 C 3.223050 0.871412 2.086571 0
M  V30 11 O 3.688994 1.770071 2.833230 0
M  V30 12 C 2.042521 1.143679 1.271031 0
M  V30 13 C 1.462956 2.328110 1.666799 0
M  V30 14 C 0.332588 2.749742 1.009434 0
M  V30 15 C -0.272678 2.049989 -0.042826 0
M  V30 16 N -1.424562 2.528216 -0.704156 0
M  V30 17 C -2.567147 1.915657 -1.262901 0
M  V30 18 C -2.881838 0.584918 -1.258536 0
M  V30 19 C -3.999367 0.017680 -1.827830 0
M  V30 20 N -4.220015 -1.400762 -1.756976 0
M  V30 21 C -4.936761 -1.955178 -0.675189 0
M  V30 22 O -5.374847 -1.194188 0.217173 0
M  V30 23 C -5.080796 -3.368697 -0.731418 0
M  V30 24 C -5.788539 -4.167163 0.284180 0
M  V30 25 C -5.848654 -5.514413 0.101629 0
M  V30 26 C -5.209016 -6.094888 -1.089846 0
M  V30 27 S -4.515052 -4.545993 -1.924706 0
M  V30 28 C -4.883133 0.866190 -2.459810 0
M  V30 29 F -5.997086 0.330070 -3.031349 0
M  V30 30 C -4.609377 2.216512 -2.490057 0
M  V30 31 C -3.482063 2.717288 -1.906028 0
M  V30 32 F -3.309596 4.077151 -1.996323 0
M  V30 33 C 0.373455 0.879277 -0.371761 0
M  V30 34 C 1.508802 0.395014 0.242792 0
M  V30 35 O 2.003489 -0.806823 -0.239850 0
M  V30 36 C 3.289513 -1.385242 -0.236678 0
M  V30 37 H 6.054707 -0.168650 6.423936 0
M  V30 38 H 5.377002 -1.109719 6.530099 0
M  V30 39 H 5.979928 -3.533356 2.757597 0
M  V30 40 H 4.763143 -3.305057 0.596809 0
M  V30 41 H 4.576970 0.197533 4.033692 0
M  V30 42 H 1.884765 2.914647 2.475043 0
M  V30 43 H -0.109447 3.687270 1.337081 0
M  V30 44 H -1.354183 3.584739 -0.765422 0
M  V30 45 H -2.220584 -0.100234 -0.764269 0
M  V30 46 H -3.809977 -1.946402 -2.557108 0
M  V30 47 H -6.229332 -3.667717 1.126129 0
M  V30 48 H -6.345288 -6.167994 0.794868 0
M  V30 49 H -5.239688 -7.183530 -1.267339 0
M  V30 50 H -5.316809 2.865497 -2.991351 0
M  V30 51 H 0.027600 0.244870 -1.173134 0
M  V30 52 H 3.933300 -0.798806 -0.921682 0
M  V30 53 H 3.186774 -2.445245 -0.557281 0
M  V30 END ATOM
M  V30 BEGIN BOND
M  V30 1 1 1 2
M  V30 2 2 2 3
M  V30 3 1 2 4
M  V30 4 2 4 5
M  V30 5 1 5 6
M  V30 6 2 6 7
M  V30 7 1 7 8
M  V30 8 2 8 9
M  V30 9 1 8 10
M  V30 10 2 10 11
M  V30 11 1 10 12
M  V30 12 2 12 13
M  V30 13 1 13 14
M  V30 14 2 14 15
M  V30 15 1 15 16
M  V30 16 1 16 17
M  V30 17 2 17 18
M  V30 18 1 18 19
M  V30 19 1 19 20
M  V30 20 1 20 21
M  V30 21 2 21 22
M  V30 22 1 21 23
M  V30 23 2 23 24
M  V30 24 1 24 25
M  V30 25 2 25 26
M  V30 26 1 26 27
M  V30 27 2 19 28
M  V30 28 1 28 29
M  V30 29 1 28 30
M  V30 30 2 30 31
M  V30 31 1 31 32
M  V30 32 1 15 33
M  V30 33 2 33 34
M  V30 34 1 34 35
M  V30 35 1 35 36
M  V30 36 1 9 4
M  V30 37 1 34 12
M  V30 38 1 36 7
M  V30 39 1 31 17
M  V30 40 1 27 23
M  V30 41 1 1 37
M  V30 42 1 1 38
M  V30 43 1 5 39
M  V30 44 1 6 40
M  V30 45 1 9 41
M  V30 46 1 13 42
M  V30 47 1 14 43
M  V30 48 1 16 44
M  V30 49 1 18 45
M  V30 50 1 20 46
M  V30 51 1 24 47
M  V30 52 1 25 48
M  V30 53 1 26 49
M  V30 54 1 30 50
M  V30 55 1 33 51
M  V30 56 1 36 52
M  V30 57 1 36 53
M  V30 END BOND
M  V30 END CTAB
M  END
>  <Dataset>  (294) 
ChEMBL_Kinases

>  <Ligand_Instance>  (294) 
nan

>  <PDB_ID>  (294) 
nan

>  <Standardized_SMILES>  (294) 
NC(=O)c1ccc2c(c1)C(=O)c1ccc(Nc3cc(NC(=O)c4cccs4)c(F)cc3F)cc1OC2

>  <Name>  (294) 
nan

>  <Pocket>  (294) 
nan

>  <ATP_Site>  (294) 
nan

>  <Peripheral>  (294) 
nan

>  <Num_H_Atoms_ProtBoundConf>  (294) 
nan

>  <Num_Resolved_Atoms>  (294) 
nan

>  <Num_Not_Resolved_Atoms>  (294) 
nan

$$$$
CHEMBL4103075
     RDKit          3D

  0  0  0  0  0  0  0  0  0  0999 V3000
M  V30 BEGIN CTAB
M  V30 COUNTS 58 62 0 0 0
M  V30 BEGIN ATOM
M  V30 1 C 8.385064 2.160916 4.107937 0
M  V30 2 N 7.082368 1.871257 3.505413 0
M  V30 3 C 6.856070 0.573581 2.972470 0
M  V30 4 O 7.811163 -0.240169 3.061777 0
M  V30 5 C 5.620871 0.130630 2.343383 0
M  V30 6 C 5.591860 -1.168512 1.884031 0
M  V30 7 C 4.438101 -1.664652 1.268116 0
M  V30 8 C 3.346228 -0.858554 1.125328 0
M  V30 9 C 3.396376 0.447475 1.595228 0
M  V30 10 C 4.529415 0.966359 2.210992 0
M  V30 11 C 2.348540 1.488188 1.550810 0
M  V30 12 O 2.658868 2.674636 1.774580 0
M  V30 13 C 0.912625 1.257789 1.256548 0
M  V30 14 C 0.184918 2.441780 1.100618 0
M  V30 15 C -1.166485 2.387227 0.822433 0
M  V30 16 C -1.795689 1.162790 0.699017 0
M  V30 17 N -3.188947 1.075547 0.410551 0
M  V30 18 C -3.965072 -0.111352 0.295224 0
M  V30 19 C -4.663427 -0.534516 -0.817782 0
M  V30 20 C -5.376817 -1.714445 -0.779488 0
M  V30 21 N -6.090301 -2.111815 -1.970200 0
M  V30 22 C -5.185196 -2.900288 -2.735205 0
M  V30 23 O -4.040903 -3.063180 -2.233904 0
M  V30 24 C -5.482799 -3.539890 -4.066366 0
M  V30 25 C -4.957309 -5.005883 -4.171444 0
M  V30 26 C -4.321224 -3.859938 -4.927630 0
M  V30 27 C -5.419923 -2.514169 0.368304 0
M  V30 28 F -6.143877 -3.682486 0.361424 0
M  V30 29 C -4.721306 -2.084208 1.471383 0
M  V30 30 C -3.998084 -0.888992 1.433867 0
M  V30 31 F -3.385307 -0.659406 2.638827 0
M  V30 32 C -1.065827 -0.001200 0.855159 0
M  V30 33 C 0.287287 0.029272 1.133829 0
M  V30 34 C 0.900961 -1.330863 1.267735 0
M  V30 35 C 2.158704 -1.468481 0.456982 0
M  V30 36 H 8.164744 2.688153 5.077390 0
M  V30 37 H 9.046010 2.711955 3.440635 0
M  V30 38 H 8.855557 1.200646 4.403707 0
M  V30 39 H 6.304755 2.564860 3.442997 0
M  V30 40 H 6.432494 -1.855989 1.970779 0
M  V30 41 H 4.322825 -2.662527 0.879538 0
M  V30 42 H 4.554036 1.985360 2.571775 0
M  V30 43 H 0.695636 3.385007 1.201217 0
M  V30 44 H -1.719754 3.329664 0.703666 0
M  V30 45 H -3.723934 1.976883 0.262727 0
M  V30 46 H -4.605253 0.110330 -1.683280 0
M  V30 47 H -7.040379 -1.976164 -2.385619 0
M  V30 48 H -6.484394 -3.398697 -4.505437 0
M  V30 49 H -4.382252 -5.394236 -3.317394 0
M  V30 50 H -5.599596 -5.721885 -4.722326 0
M  V30 51 H -4.524928 -3.888970 -6.022391 0
M  V30 52 H -3.311104 -3.517734 -4.660129 0
M  V30 53 H -4.800938 -2.751597 2.317811 0
M  V30 54 H -1.469819 -0.989849 0.775696 0
M  V30 55 H 0.156085 -2.036097 0.825593 0
M  V30 56 H 1.046173 -1.622882 2.330253 0
M  V30 57 H 2.342074 -2.518976 0.217363 0
M  V30 58 H 1.945643 -0.919556 -0.507250 0
M  V30 END ATOM
M  V30 BEGIN BOND
M  V30 1 1 1 2
M  V30 2 1 2 3
M  V30 3 2 3 4
M  V30 4 1 3 5
M  V30 5 2 5 6
M  V30 6 1 6 7
M  V30 7 2 7 8
M  V30 8 1 8 9
M  V30 9 2 9 10
M  V30 10 1 9 11
M  V30 11 2 11 12
M  V30 12 1 11 13
M  V30 13 2 13 14
M  V30 14 1 14 15
M  V30 15 2 15 16
M  V30 16 1 16 17
M  V30 17 1 17 18
M  V30 18 2 18 19
M  V30 19 1 19 20
M  V30 20 1 20 21
M  V30 21 1 21 22
M  V30 22 2 22 23
M  V30 23 1 22 24
M  V30 24 1 24 25
M  V30 25 1 25 26
M  V30 26 2 20 27
M  V30 27 1 27 28
M  V30 28 1 27 29
M  V30 29 2 29 30
M  V30 30 1 30 31
M  V30 31 1 16 32
M  V30 32 2 32 33
M  V30 33 1 33 34
M  V30 34 1 34 35
M  V30 35 1 10 5
M  V30 36 1 33 13
M  V30 37 1 35 8
M  V30 38 1 30 18
M  V30 39 1 26 24
M  V30 40 1 1 36
M  V30 41 1 1 37
M  V30 42 1 1 38
M  V30 43 1 2 39
M  V30 44 1 6 40
M  V30 45 1 7 41
M  V30 46 1 10 42
M  V30 47 1 14 43
M  V30 48 1 15 44
M  V30 49 1 17 45
M  V30 50 1 19 46
M  V30 51 1 21 47
M  V30 52 1 24 48
M  V30 53 1 25 49
M  V30 54 1 25 50
M  V30 55 1 26 51
M  V30 56 1 26 52
M  V30 57 1 29 53
M  V30 58 1 32 54
M  V30 59 1 34 55
M  V30 60 1 34 56
M  V30 61 1 35 57
M  V30 62 1 35 58
M  V30 END BOND
M  V30 END CTAB
M  END
>  <Dataset>  (295) 
ChEMBL_Kinases

>  <Ligand_Instance>  (295) 
nan

>  <PDB_ID>  (295) 
nan

>  <Standardized_SMILES>  (295) 
CNC(=O)c1ccc2c(c1)C(=O)c1ccc(Nc3cc(NC(=O)C4CC4)c(F)cc3F)cc1CC2

>  <Name>  (295) 
nan

>  <Pocket>  (295) 
nan

>  <ATP_Site>  (295) 
nan

>  <Peripheral>  (295) 
nan

>  <Num_H_Atoms_ProtBoundConf>  (295) 
nan

>  <Num_Resolved_Atoms>  (295) 
nan

>  <Num_Not_Resolved_Atoms>  (295) 
nan

$$$$
CHEMBL4103039
     RDKit          3D

  0  0  0  0  0  0  0  0  0  0999 V3000
M  V30 BEGIN CTAB
M  V30 COUNTS 51 55 0 0 0
M  V30 BEGIN ATOM
M  V30 1 C 3.191321 -0.965610 4.865472 0
M  V30 2 C 3.200479 -0.222972 3.592991 0
M  V30 3 N 4.129915 0.565406 3.072258 0
M  V30 4 N 3.743141 1.045548 1.898916 0
M  V30 5 C 4.555736 1.919448 1.125758 0
M  V30 6 C 5.840589 1.424122 0.894621 0
M  V30 7 C 6.820735 2.077227 0.178274 0
M  V30 8 C 6.474749 3.329444 -0.344880 0
M  V30 9 C 7.474938 4.036167 -1.095628 0
M  V30 10 N 8.287290 4.605264 -1.690357 0
M  V30 11 C 5.203711 3.833703 -0.123937 0
M  V30 12 C 4.246301 3.152533 0.597931 0
M  V30 13 C 2.519294 0.588588 1.585204 0
M  V30 14 O 1.758704 0.859700 0.432114 0
M  V30 15 C 0.482578 0.269960 0.298050 0
M  V30 16 C -0.699824 0.868236 0.737883 0
M  V30 17 C -1.873795 0.169718 0.538956 0
M  V30 18 C -1.849842 -1.070990 -0.074136 0
M  V30 19 C -3.117427 -1.791616 -0.270210 0
M  V30 20 N -3.287196 -2.995768 -0.826160 0
M  V30 21 C -4.615513 -3.316899 -0.818924 0
M  V30 22 C -5.378226 -4.409076 -1.248607 0
M  V30 23 C -6.748070 -4.426973 -1.090536 0
M  V30 24 N -7.391387 -5.606315 -1.575060 0 CHG=1 VAL=4
M  V30 25 O -8.640157 -5.689606 -1.461214 0
M  V30 26 O -6.946130 -6.741160 -2.172108 0 CHG=-1 VAL=1
M  V30 27 C -7.419693 -3.374935 -0.505667 0
M  V30 28 C -6.648624 -2.317781 -0.093732 0
M  V30 29 C -5.269917 -2.255483 -0.231522 0
M  V30 30 N -4.328696 -1.340654 0.092419 0
M  V30 31 C -0.671110 -1.679425 -0.518849 0
M  V30 32 C 0.514702 -0.965870 -0.314045 0
M  V30 33 C 2.178071 -0.201559 2.637973 0
M  V30 34 N 0.965920 -0.946947 2.813207 0 CHG=1 VAL=4
M  V30 35 O 0.679497 -2.174186 2.704854 0
M  V30 36 O 0.877460 -2.284300 2.643494 0 CHG=-1 VAL=1
M  V30 37 H 4.197061 -1.327302 5.109727 0
M  V30 38 H 2.915499 -0.217589 5.666566 0
M  V30 39 H 2.399113 -1.733011 4.902352 0
M  V30 40 H 6.176530 0.449728 1.277077 0
M  V30 41 H 7.806084 1.671245 0.015400 0
M  V30 42 H 4.937772 4.804316 -0.530829 0
M  V30 43 H 3.253150 3.482192 0.803226 0
M  V30 44 H -0.622190 1.826084 1.198976 0
M  V30 45 H -2.805853 0.610477 0.870138 0
M  V30 46 H -4.780986 -5.208055 -1.703203 0
M  V30 47 H -8.488460 -3.430833 -0.402406 0
M  V30 48 H -7.184541 -1.491530 0.366138 0
M  V30 49 H -4.607164 -0.453149 0.551245 0
M  V30 50 H -0.639633 -2.639199 -0.995289 0
M  V30 51 H 1.431798 -1.437018 -0.659263 0
M  V30 END ATOM
M  V30 BEGIN BOND
M  V30 1 1 1 2
M  V30 2 2 2 3
M  V30 3 1 3 4
M  V30 4 1 4 5
M  V30 5 2 5 6
M  V30 6 1 6 7
M  V30 7 2 7 8
M  V30 8 1 8 9
M  V30 9 3 9 10
M  V30 10 1 8 11
M  V30 11 2 11 12
M  V30 12 1 4 13
M  V30 13 1 13 14
M  V30 14 1 14 15
M  V30 15 2 15 16
M  V30 16 1 16 17
M  V30 17 2 17 18
M  V30 18 1 18 19
M  V30 19 2 19 20
M  V30 20 1 20 21
M  V30 21 2 21 22
M  V30 22 1 22 23
M  V30 23 1 23 24
M  V30 24 2 24 25
M  V30 25 1 24 26
M  V30 26 2 23 27
M  V30 27 1 27 28
M  V30 28 2 28 29
M  V30 29 1 29 30
M  V30 30 1 18 31
M  V30 31 2 31 32
M  V30 32 2 13 33
M  V30 33 1 33 34
M  V30 34 2 34 35
M  V30 35 1 34 36
M  V30 36 1 33 2
M  V30 37 1 12 5
M  V30 38 1 32 15
M  V30 39 1 30 19
M  V30 40 1 29 21
M  V30 41 1 1 37
M  V30 42 1 1 38
M  V30 43 1 1 39
M  V30 44 1 6 40
M  V30 45 1 7 41
M  V30 46 1 11 42
M  V30 47 1 12 43
M  V30 48 1 16 44
M  V30 49 1 17 45
M  V30 50 1 22 46
M  V30 51 1 27 47
M  V30 52 1 28 48
M  V30 53 1 30 49
M  V30 54 1 31 50
M  V30 55 1 32 51
M  V30 END BOND
M  V30 END CTAB
M  END
>  <Dataset>  (296) 
ChEMBL_Kinases

>  <Ligand_Instance>  (296) 
nan

>  <PDB_ID>  (296) 
nan

>  <Standardized_SMILES>  (296) 
Cc1nn(-c2ccc(C#N)cc2)c(Oc2ccc(-c3nc4cc([N+](=O)[O-])ccc4[nH]3)cc2)c1[N+](=O)[O-]

>  <Name>  (296) 
nan

>  <Pocket>  (296) 
nan

>  <ATP_Site>  (296) 
nan

>  <Peripheral>  (296) 
nan

>  <Num_H_Atoms_ProtBoundConf>  (296) 
nan

>  <Num_Resolved_Atoms>  (296) 
nan

>  <Num_Not_Resolved_Atoms>  (296) 
nan

$$$$
CHEMBL4103031
     RDKit          3D

  0  0  0  0  0  0  0  0  0  0999 V3000
M  V30 BEGIN CTAB
M  V30 COUNTS 63 64 0 0 0
M  V30 BEGIN ATOM
M  V30 1 C 1.719465 -5.252513 0.614891 0
M  V30 2 C 2.655001 -4.135537 0.950277 0
M  V30 3 C 3.726106 -3.904108 -0.105945 0
M  V30 4 C 4.578967 -2.753553 0.380191 0
M  V30 5 C 5.689903 -2.416284 -0.584474 0
M  V30 6 C 5.189446 -2.017883 -1.941053 0
M  V30 7 C 4.293223 -0.798681 -1.884192 0
M  V30 8 C 3.820663 -0.438241 -3.262336 0
M  V30 9 C 2.906626 0.788191 -3.273274 0
M  V30 10 C 1.684037 0.556751 -2.440088 0
M  V30 11 C 0.732631 1.752991 -2.424620 0
M  V30 12 C -0.458324 1.449404 -1.578536 0
M  V30 13 O -0.260185 0.287162 -1.139188 0
M  V30 14 N -1.516921 2.380409 -1.402107 0
M  V30 15 N -2.484876 1.817298 -0.566775 0
M  V30 16 C -2.622513 1.852697 0.841172 0
M  V30 17 O -1.726676 2.497530 1.439198 0
M  V30 18 C -3.661956 1.236979 1.629562 0
M  V30 19 C -3.592858 1.406782 2.994866 0
M  V30 20 O -2.583886 2.131089 3.623269 0
M  V30 21 C -4.543209 0.856979 3.860915 0
M  V30 22 C -4.458191 1.037788 5.223092 0
M  V30 23 C -5.438588 0.461227 6.004482 0
M  V30 24 C -6.491261 -0.277595 5.532415 0
M  V30 25 Cl -7.715759 -0.992720 6.557109 0
M  V30 26 C -6.534942 -0.432774 4.150454 0
M  V30 27 C -5.587960 0.116015 3.308424 0
M  V30 28 N -5.688521 -0.072901 1.960669 0
M  V30 29 C -6.769842 -0.841543 1.371981 0
M  V30 30 C -4.731887 0.491187 1.207630 0
M  V30 31 O -4.855169 0.298500 -0.017141 0
M  V30 32 H 0.642769 -4.943644 0.749259 0
M  V30 33 H 1.794815 -5.617358 -0.436075 0
M  V30 34 H 1.864406 -6.143234 1.272037 0
M  V30 35 H 3.105656 -4.372518 1.933921 0
M  V30 36 H 2.062565 -3.185836 1.087971 0
M  V30 37 H 4.375126 -4.823864 -0.108915 0
M  V30 38 H 3.303566 -3.775534 -1.100575 0
M  V30 39 H 5.095204 -3.127512 1.311485 0
M  V30 40 H 3.990621 -1.877963 0.689667 0
M  V30 41 H 6.283099 -3.357418 -0.721799 0
M  V30 42 H 6.316073 -1.614992 -0.183220 0
M  V30 43 H 6.074338 -1.745125 -2.540599 0
M  V30 44 H 4.692316 -2.881584 -2.400487 0
M  V30 45 H 3.404755 -1.006545 -1.248657 0
M  V30 46 H 4.905741 0.043285 -1.501863 0
M  V30 47 H 4.697202 -0.175638 -3.915730 0
M  V30 48 H 3.325329 -1.291335 -3.761156 0
M  V30 49 H 3.466570 1.641493 -2.823652 0
M  V30 50 H 2.592159 1.020202 -4.308914 0
M  V30 51 H 2.046847 0.493964 -1.370618 0
M  V30 52 H 1.154792 -0.378979 -2.627997 0
M  V30 53 H 0.365395 1.880437 -3.462467 0
M  V30 54 H 1.252648 2.670469 -2.134462 0
M  V30 55 H -1.383957 3.279014 -1.908235 0
M  V30 56 H -3.169149 1.316318 -1.129502 0
M  V30 57 H -1.648941 1.767710 3.731945 0
M  V30 58 H -3.643272 1.614566 5.635893 0
M  V30 59 H -5.405286 0.582928 7.087649 0
M  V30 60 H -7.364856 -1.016901 3.760680 0
M  V30 61 H -6.848868 -0.471540 0.306920 0
M  V30 62 H -6.513734 -1.901948 1.302322 0
M  V30 63 H -7.761938 -0.618135 1.804598 0
M  V30 END ATOM
M  V30 BEGIN BOND
M  V30 1 1 1 2
M  V30 2 1 2 3
M  V30 3 1 3 4
M  V30 4 1 4 5
M  V30 5 1 5 6
M  V30 6 1 6 7
M  V30 7 1 7 8
M  V30 8 1 8 9
M  V30 9 1 9 10
M  V30 10 1 10 11
M  V30 11 1 11 12
M  V30 12 2 12 13
M  V30 13 1 12 14
M  V30 14 1 14 15
M  V30 15 1 15 16
M  V30 16 2 16 17
M  V30 17 1 16 18
M  V30 18 2 18 19
M  V30 19 1 19 20
M  V30 20 1 19 21
M  V30 21 2 21 22
M  V30 22 1 22 23
M  V30 23 2 23 24
M  V30 24 1 24 25
M  V30 25 1 24 26
M  V30 26 2 26 27
M  V30 27 1 27 28
M  V30 28 1 28 29
M  V30 29 1 28 30
M  V30 30 2 30 31
M  V30 31 1 30 18
M  V30 32 1 27 21
M  V30 33 1 1 32
M  V30 34 1 1 33
M  V30 35 1 1 34
M  V30 36 1 2 35
M  V30 37 1 2 36
M  V30 38 1 3 37
M  V30 39 1 3 38
M  V30 40 1 4 39
M  V30 41 1 4 40
M  V30 42 1 5 41
M  V30 43 1 5 42
M  V30 44 1 6 43
M  V30 45 1 6 44
M  V30 46 1 7 45
M  V30 47 1 7 46
M  V30 48 1 8 47
M  V30 49 1 8 48
M  V30 50 1 9 49
M  V30 51 1 9 50
M  V30 52 1 10 51
M  V30 53 1 10 52
M  V30 54 1 11 53
M  V30 55 1 11 54
M  V30 56 1 14 55
M  V30 57 1 15 56
M  V30 58 1 20 57
M  V30 59 1 22 58
M  V30 60 1 23 59
M  V30 61 1 26 60
M  V30 62 1 29 61
M  V30 63 1 29 62
M  V30 64 1 29 63
M  V30 END BOND
M  V30 END CTAB
M  END
>  <Dataset>  (297) 
ChEMBL_Kinases

>  <Ligand_Instance>  (297) 
nan

>  <PDB_ID>  (297) 
nan

>  <Standardized_SMILES>  (297) 
CCCCCCCCCCCC(=O)NNC(=O)c1c(O)c2ccc(Cl)cc2n(C)c1=O

>  <Name>  (297) 
nan

>  <Pocket>  (297) 
nan

>  <ATP_Site>  (297) 
nan

>  <Peripheral>  (297) 
nan

>  <Num_H_Atoms_ProtBoundConf>  (297) 
nan

>  <Num_Resolved_Atoms>  (297) 
nan

>  <Num_Not_Resolved_Atoms>  (297) 
nan

$$$$
CHEMBL4794897
     RDKit          3D

  0  0  0  0  0  0  0  0  0  0999 V3000
M  V30 BEGIN CTAB
M  V30 COUNTS 60 66 0 0 0
M  V30 BEGIN ATOM
M  V30 1 C 1.898308 -3.935477 0.726857 0
M  V30 2 O 2.150810 -2.788245 1.412300 0
M  V30 3 C 2.087161 -1.607394 0.675279 0 CFG=2
M  V30 4 C 3.581026 -1.256163 0.598282 0 CFG=2
M  V30 5 O 4.198077 -2.397235 0.083457 0
M  V30 6 C 4.011268 -1.123095 2.033903 0 CFG=2
M  V30 7 O 4.071879 -2.408924 2.567371 0
M  V30 8 C 3.106573 -0.282181 2.858221 0 CFG=2
M  V30 9 C 2.765414 -1.017936 4.134724 0
M  V30 10 O 1.981295 0.179451 2.297182 0
M  V30 11 C 1.285984 -0.601597 1.393114 0 CFG=1
M  V30 12 N 0.429380 0.212539 0.539448 0
M  V30 13 C 0.767706 1.457987 0.083692 0
M  V30 14 C 1.950292 2.154453 0.329527 0
M  V30 15 C 2.186880 3.430624 -0.195268 0
M  V30 16 C 1.193023 3.988339 -0.979143 0
M  V30 17 C 0.046362 3.267699 -1.194862 0
M  V30 18 C -0.214996 2.022496 -0.698222 0
M  V30 19 C -1.188050 1.100727 -0.727771 0
M  V30 20 C -2.407530 1.091109 -1.342413 0
M  V30 21 C -3.269327 0.023707 -1.244261 0
M  V30 22 C -2.868066 -1.083080 -0.484965 0
M  V30 23 C -3.523765 -2.268245 -0.227901 0
M  V30 24 C -4.753129 -2.770434 -0.602066 0
M  V30 25 C -5.164554 -4.016613 -0.190606 0
M  V30 26 C -4.338045 -4.751724 0.594949 0
M  V30 27 C -3.121685 -4.233056 0.954309 0
M  V30 28 C -2.652363 -2.992002 0.574796 0
M  V30 29 N -1.559742 -2.224353 0.747418 0
M  V30 30 C -1.638670 -1.047654 0.121860 0
M  V30 31 C -0.790453 0.025253 0.014690 0
M  V30 32 C -4.552712 0.220203 -1.994557 0
M  V30 33 N -4.381523 1.540200 -2.570273 0
M  V30 34 C -3.125957 2.023695 -2.175350 0
M  V30 35 O -2.863649 3.155233 -2.610083 0
M  V30 36 H 2.607649 -4.108323 -0.111567 0
M  V30 37 H 2.089587 -4.780910 1.428211 0
M  V30 38 H 0.845233 -4.055397 0.416668 0
M  V30 39 H 1.800413 -1.752663 -0.380349 0
M  V30 40 H 3.809706 -0.431133 -0.058151 0
M  V30 41 H 5.145152 -2.245348 -0.147776 0
M  V30 42 H 5.048631 -0.731248 2.029969 0
M  V30 43 H 4.830206 -2.565770 3.165631 0
M  V30 44 H 3.684911 0.619287 3.188431 0
M  V30 45 H 2.614246 -2.089612 4.022100 0
M  V30 46 H 3.651347 -0.916640 4.827750 0
M  V30 47 H 1.938191 -0.501498 4.663306 0
M  V30 48 H 0.613957 -1.157668 2.075439 0
M  V30 49 H 2.795323 1.829343 0.916796 0
M  V30 50 H 3.102700 3.995942 -0.017858 0
M  V30 51 H 1.367624 4.992668 -1.397936 0
M  V30 52 H -0.648905 3.773506 -1.801753 0
M  V30 53 H -5.428571 -2.198594 -1.229648 0
M  V30 54 H -6.129174 -4.393362 -0.492800 0
M  V30 55 H -4.607845 -5.749730 0.954772 0
M  V30 56 H -2.477586 -4.834251 1.580599 0
M  V30 57 H -0.831661 -2.667652 1.334069 0
M  V30 58 H -5.396890 0.213943 -1.287320 0
M  V30 59 H -4.584516 -0.555456 -2.772203 0
M  V30 60 H -5.180273 1.877295 -3.145150 0
M  V30 END ATOM
M  V30 BEGIN BOND
M  V30 1 1 1 2
M  V30 2 1 2 3
M  V30 3 1 3 4
M  V30 4 1 4 5
M  V30 5 1 4 6
M  V30 6 1 6 7
M  V30 7 1 6 8
M  V30 8 1 8 9
M  V30 9 1 8 10
M  V30 10 1 10 11
M  V30 11 1 11 12
M  V30 12 1 12 13
M  V30 13 2 13 14
M  V30 14 1 14 15
M  V30 15 2 15 16
M  V30 16 1 16 17
M  V30 17 2 17 18
M  V30 18 1 18 19
M  V30 19 2 19 20
M  V30 20 1 20 21
M  V30 21 2 21 22
M  V30 22 1 22 23
M  V30 23 2 23 24
M  V30 24 1 24 25
M  V30 25 2 25 26
M  V30 26 1 26 27
M  V30 27 2 27 28
M  V30 28 1 28 29
M  V30 29 1 29 30
M  V30 30 2 30 31
M  V30 31 1 21 32
M  V30 32 1 32 33
M  V30 33 1 33 34
M  V30 34 2 34 35
M  V30 35 1 11 3
M  V30 36 1 31 12
M  V30 37 1 18 13
M  V30 38 1 31 19
M  V30 39 1 34 20
M  V30 40 1 30 22
M  V30 41 1 28 23
M  V30 42 1 1 36
M  V30 43 1 1 37
M  V30 44 1 1 38
M  V30 45 1 3 39 CFG=3
M  V30 46 1 4 40 CFG=3
M  V30 47 1 5 41
M  V30 48 1 6 42 CFG=3
M  V30 49 1 7 43
M  V30 50 1 8 44 CFG=1
M  V30 51 1 9 45
M  V30 52 1 9 46
M  V30 53 1 9 47
M  V30 54 1 11 48 CFG=1
M  V30 55 1 14 49
M  V30 56 1 15 50
M  V30 57 1 16 51
M  V30 58 1 17 52
M  V30 59 1 24 53
M  V30 60 1 25 54
M  V30 61 1 26 55
M  V30 62 1 27 56
M  V30 63 1 29 57
M  V30 64 1 32 58
M  V30 65 1 32 59
M  V30 66 1 33 60
M  V30 END BOND
M  V30 END CTAB
M  END
>  <Dataset>  (298) 
ChEMBL_Kinases

>  <Ligand_Instance>  (298) 
nan

>  <PDB_ID>  (298) 
nan

>  <Standardized_SMILES>  (298) 
CO[C@@H]1[C@H](O)[C@H](O)[C@H](C)O[C@H]1n1c2ccccc2c2c3c(c4c5ccccc5[nH]c4c21)CNC3=O

>  <Name>  (298) 
nan

>  <Pocket>  (298) 
nan

>  <ATP_Site>  (298) 
nan

>  <Peripheral>  (298) 
nan

>  <Num_H_Atoms_ProtBoundConf>  (298) 
nan

>  <Num_Resolved_Atoms>  (298) 
nan

>  <Num_Not_Resolved_Atoms>  (298) 
nan

$$$$
CHEMBL4794940
     RDKit          3D

  0  0  0  0  0  0  0  0  0  0999 V3000
M  V30 BEGIN CTAB
M  V30 COUNTS 47 50 0 0 0
M  V30 BEGIN ATOM
M  V30 1 C 4.066485 -3.631304 -1.927111 0
M  V30 2 C 4.405818 -2.315931 -1.253839 0
M  V30 3 C 5.182899 -2.644795 0.006018 0
M  V30 4 O 5.221003 -1.539404 -2.082560 0
M  V30 5 C 3.202493 -1.523029 -0.922098 0
M  V30 6 O 2.564458 -2.339201 -0.177805 0
M  V30 7 N 2.739480 -0.201659 -1.261574 0
M  V30 8 C 1.481900 -0.034120 -0.610979 0
M  V30 9 C 0.288857 -0.378044 -1.210857 0
M  V30 10 C -0.896408 -0.188202 -0.520359 0
M  V30 11 C -0.791600 0.345429 0.750782 0
M  V30 12 C 0.389072 0.697702 1.373278 0
M  V30 13 C 1.576752 0.502772 0.669994 0
M  V30 14 O 0.577735 1.238079 2.644396 0
M  V30 15 C -0.323146 1.524084 3.659681 0
M  V30 16 N 0.286990 1.878104 4.809568 0
M  V30 17 C -0.432746 2.195059 5.917477 0
M  V30 18 C -1.816185 2.167802 5.911718 0
M  V30 19 C -2.454483 1.809077 4.747785 0
M  V30 20 C -1.700029 1.488918 3.626979 0
M  V30 21 C -2.512632 1.125849 2.459261 0
M  V30 22 O -3.721603 1.464315 2.538622 0
M  V30 23 N -2.119601 0.452320 1.268364 0
M  V30 24 C -3.237194 -0.134510 0.609852 0
M  V30 25 C -4.044301 0.456512 -0.356036 0
M  V30 26 C -5.097579 -0.278418 -0.888787 0
M  V30 27 N -5.346264 -1.541314 -0.488236 0
M  V30 28 C -4.580088 -2.152717 0.452998 0
M  V30 29 C -3.515227 -1.441182 1.006816 0
M  V30 30 H 2.954849 -3.647921 -2.032629 0
M  V30 31 H 4.494049 -3.712012 -2.939835 0
M  V30 32 H 4.322245 -4.501318 -1.287063 0
M  V30 33 H 6.091423 -2.010145 0.130882 0
M  V30 34 H 4.501715 -2.445947 0.881118 0
M  V30 35 H 5.444004 -3.716141 0.061390 0
M  V30 36 H 6.161534 -1.833377 -2.012362 0
M  V30 37 H 3.464565 0.218770 -1.874289 0
M  V30 38 H 0.314644 -0.788677 -2.209765 0
M  V30 39 H -1.832052 -0.446583 -0.963362 0
M  V30 40 H 2.516057 0.767458 1.127550 0
M  V30 41 H -0.005858 2.486357 6.868281 0
M  V30 42 H -2.452407 2.404430 6.744984 0
M  V30 43 H -3.543826 1.753435 4.628614 0
M  V30 44 H -3.774584 1.467046 -0.616930 0
M  V30 45 H -5.686291 0.237786 -1.634430 0
M  V30 46 H -4.823526 -3.170226 0.739405 0
M  V30 47 H -2.951307 -2.009396 1.756690 0
M  V30 END ATOM
M  V30 BEGIN BOND
M  V30 1 1 1 2
M  V30 2 1 2 3
M  V30 3 1 2 4
M  V30 4 1 2 5
M  V30 5 2 5 6
M  V30 6 1 5 7
M  V30 7 1 7 8
M  V30 8 2 8 9
M  V30 9 1 9 10
M  V30 10 2 10 11
M  V30 11 1 11 12
M  V30 12 2 12 13
M  V30 13 1 12 14
M  V30 14 1 14 15
M  V30 15 2 15 16
M  V30 16 1 16 17
M  V30 17 2 17 18
M  V30 18 1 18 19
M  V30 19 2 19 20
M  V30 20 1 20 21
M  V30 21 2 21 22
M  V30 22 1 21 23
M  V30 23 1 23 24
M  V30 24 2 24 25
M  V30 25 1 25 26
M  V30 26 2 26 27
M  V30 27 1 27 28
M  V30 28 2 28 29
M  V30 29 1 13 8
M  V30 30 1 20 15
M  V30 31 1 29 24
M  V30 32 1 23 11
M  V30 33 1 1 30
M  V30 34 1 1 31
M  V30 35 1 1 32
M  V30 36 1 3 33
M  V30 37 1 3 34
M  V30 38 1 3 35
M  V30 39 1 4 36
M  V30 40 1 7 37
M  V30 41 1 9 38
M  V30 42 1 10 39
M  V30 43 1 13 40
M  V30 44 1 17 41
M  V30 45 1 18 42
M  V30 46 1 19 43
M  V30 47 1 25 44
M  V30 48 1 26 45
M  V30 49 1 28 46
M  V30 50 1 29 47
M  V30 END BOND
M  V30 END CTAB
M  END
>  <Dataset>  (299) 
ChEMBL_Kinases

>  <Ligand_Instance>  (299) 
nan

>  <PDB_ID>  (299) 
nan

>  <Standardized_SMILES>  (299) 
CC(C)(O)C(=O)Nc1ccc2c(c1)Oc1ncccc1C(=O)N2c1ccncc1

>  <Name>  (299) 
nan

>  <Pocket>  (299) 
nan

>  <ATP_Site>  (299) 
nan

>  <Peripheral>  (299) 
nan

>  <Num_H_Atoms_ProtBoundConf>  (299) 
nan

>  <Num_Resolved_Atoms>  (299) 
nan

>  <Num_Not_Resolved_Atoms>  (299) 
nan

$$$$
CHEMBL4794978
     RDKit          3D

  0  0  0  0  0  0  0  0  0  0999 V3000
M  V30 BEGIN CTAB
M  V30 COUNTS 21 22 0 0 0
M  V30 BEGIN ATOM
M  V30 1 C -0.167688 -1.662153 4.907649 0
M  V30 2 C -0.112621 -0.974859 3.613676 0
M  V30 3 O -1.075275 -0.735894 2.811468 0
M  V30 4 N 1.110666 -0.487673 3.121402 0
M  V30 5 C 0.983325 0.178133 1.803050 0
M  V30 6 N 1.073126 -0.305958 0.776089 0
M  V30 7 C 0.972855 0.217025 -0.435969 0
M  V30 8 C 1.087083 -0.398249 -1.673597 0
M  V30 9 C 0.949706 0.322058 -2.823041 0
M  V30 10 Br 1.099793 -0.487084 -4.549117 0
M  V30 11 C 0.690302 1.698070 -2.861259 0
M  V30 12 C 0.575894 2.314249 -1.630477 0
M  V30 13 C 0.720262 1.556898 -0.475787 0
M  V30 14 S 0.640110 1.995141 1.270023 0
M  V30 15 H -0.062152 -0.989457 5.782713 0
M  V30 16 H -1.218725 -2.062868 4.999697 0
M  V30 17 H 0.524942 -2.540173 4.938890 0
M  V30 18 H 2.017169 -0.565829 3.596080 0
M  V30 19 H 1.285813 -1.453787 -1.826803 0
M  V30 20 H 0.572606 2.315997 -3.735930 0
M  V30 21 H 0.380646 3.351578 -1.440201 0
M  V30 END ATOM
M  V30 BEGIN BOND
M  V30 1 1 1 2
M  V30 2 2 2 3
M  V30 3 1 2 4
M  V30 4 1 4 5
M  V30 5 2 5 6
M  V30 6 1 6 7
M  V30 7 2 7 8
M  V30 8 1 8 9
M  V30 9 1 9 10
M  V30 10 2 9 11
M  V30 11 1 11 12
M  V30 12 2 12 13
M  V30 13 1 13 14
M  V30 14 1 14 5
M  V30 15 1 13 7
M  V30 16 1 1 15
M  V30 17 1 1 16
M  V30 18 1 1 17
M  V30 19 1 4 18
M  V30 20 1 8 19
M  V30 21 1 11 20
M  V30 22 1 12 21
M  V30 END BOND
M  V30 END CTAB
M  END
>  <Dataset>  (300) 
ChEMBL_Kinases

>  <Ligand_Instance>  (300) 
nan

>  <PDB_ID>  (300) 
nan

>  <Standardized_SMILES>  (300) 
CC(=O)Nc1nc2cc(Br)ccc2s1

>  <Name>  (300) 
nan

>  <Pocket>  (300) 
nan

>  <ATP_Site>  (300) 
nan

>  <Peripheral>  (300) 
nan

>  <Num_H_Atoms_ProtBoundConf>  (300) 
nan

>  <Num_Resolved_Atoms>  (300) 
nan

>  <Num_Not_Resolved_Atoms>  (300) 
nan

$$$$
CHEMBL4795023
     RDKit          3D

  0  0  0  0  0  0  0  0  0  0999 V3000
M  V30 BEGIN CTAB
M  V30 COUNTS 31 32 0 0 0
M  V30 BEGIN ATOM
M  V30 1 C -2.828875 -3.821779 2.257271 0
M  V30 2 O -2.977639 -3.762175 0.874050 0
M  V30 3 C -2.252526 -3.010744 -0.010779 0
M  V30 4 C -1.238145 -2.188790 0.417102 0
M  V30 5 C -0.421148 -1.368612 -0.373923 0
M  V30 6 C 0.623942 -0.561324 0.238189 0
M  V30 7 C 0.885316 0.672950 -0.093117 0
M  V30 8 C 0.118851 1.324809 -1.122547 0
M  V30 9 N -0.508200 1.860116 -1.941686 0
M  V30 10 C 1.931307 1.492646 0.505797 0
M  V30 11 O 2.207574 2.684863 0.217915 0
M  V30 12 N 2.772357 0.987840 1.521007 0
M  V30 13 C 3.812989 1.786173 2.131124 0
M  V30 14 N 4.906436 2.225348 2.236907 0
M  V30 15 N 5.397657 3.025861 3.081358 0
M  V30 16 C 4.619682 3.502199 4.048200 0
M  V30 17 Br 5.457209 4.710891 5.280965 0
M  V30 18 S 2.956806 2.633329 3.622411 0
M  V30 19 C -0.735379 -1.455470 -1.719226 0
M  V30 20 C -1.731232 -2.252992 -2.211206 0
M  V30 21 C -2.491885 -3.031102 -1.363945 0
M  V30 22 O -3.487392 -3.820042 -1.915173 0
M  V30 23 H -2.772995 -2.788437 2.669473 0
M  V30 24 H -1.930248 -4.431792 2.535808 0
M  V30 25 H -3.752483 -4.326953 2.655822 0
M  V30 26 H -1.040757 -2.166695 1.494034 0
M  V30 27 H 1.211203 -1.035359 1.015661 0
M  V30 28 H 2.704614 0.015416 1.898252 0
M  V30 29 H -0.135525 -0.849824 -2.386331 0
M  V30 30 H -1.943846 -2.291303 -3.272742 0
M  V30 31 H -4.203030 -4.283359 -1.375209 0
M  V30 END ATOM
M  V30 BEGIN BOND
M  V30 1 1 1 2
M  V30 2 1 2 3
M  V30 3 2 3 4
M  V30 4 1 4 5
M  V30 5 1 5 6
M  V30 6 2 6 7
M  V30 7 1 7 8
M  V30 8 3 8 9
M  V30 9 1 7 10
M  V30 10 2 10 11
M  V30 11 1 10 12
M  V30 12 1 12 13
M  V30 13 2 13 14
M  V30 14 1 14 15
M  V30 15 2 15 16
M  V30 16 1 16 17
M  V30 17 1 16 18
M  V30 18 2 5 19
M  V30 19 1 19 20
M  V30 20 2 20 21
M  V30 21 1 21 22
M  V30 22 1 21 3
M  V30 23 1 18 13
M  V30 24 1 1 23
M  V30 25 1 1 24
M  V30 26 1 1 25
M  V30 27 1 4 26
M  V30 28 1 6 27
M  V30 29 1 12 28
M  V30 30 1 19 29
M  V30 31 1 20 30
M  V30 32 1 22 31
M  V30 END BOND
M  V30 END CTAB
M  END
>  <Dataset>  (301) 
ChEMBL_Kinases

>  <Ligand_Instance>  (301) 
nan

>  <PDB_ID>  (301) 
nan

>  <Standardized_SMILES>  (301) 
COc1cc(/C=C(\C#N)C(=O)Nc2nnc(Br)s2)ccc1O

>  <Name>  (301) 
nan

>  <Pocket>  (301) 
nan

>  <ATP_Site>  (301) 
nan

>  <Peripheral>  (301) 
nan

>  <Num_H_Atoms_ProtBoundConf>  (301) 
nan

>  <Num_Resolved_Atoms>  (301) 
nan

>  <Num_Not_Resolved_Atoms>  (301) 
nan

$$$$
CHEMBL4795057
     RDKit          3D

  0  0  0  0  0  0  0  0  0  0999 V3000
M  V30 BEGIN CTAB
M  V30 COUNTS 50 53 0 0 0
M  V30 BEGIN ATOM
M  V30 1 O 1.746117 -0.797835 3.370275 0
M  V30 2 C 1.925855 0.349797 2.927840 0
M  V30 3 C 3.250100 1.070359 2.918408 0
M  V30 4 C 4.154362 0.358006 1.983925 0
M  V30 5 C 5.094936 -0.652330 2.178459 0
M  V30 6 C 5.805694 -1.138716 1.107207 0
M  V30 7 C 5.654465 -0.686783 -0.195027 0
M  V30 8 C 4.719637 0.328298 -0.438181 0
M  V30 9 C 4.510080 0.855201 -1.810073 0
M  V30 10 F 4.494814 -0.200495 -2.698581 0
M  V30 11 F 5.506957 1.739218 -2.095822 0
M  V30 12 F 3.285863 1.502562 -1.909887 0
M  V30 13 C 4.027568 0.790464 0.654634 0
M  V30 14 N 0.812721 1.061441 2.383353 0
M  V30 15 C -0.554385 0.512031 2.320622 0
M  V30 16 C -1.423438 1.521700 1.668602 0
M  V30 17 C -2.859897 1.176417 1.495333 0
M  V30 18 N -2.988326 -0.029383 0.717236 0
M  V30 19 C -3.044726 -1.142909 1.463969 0
M  V30 20 O -3.009200 -1.190282 2.699628 0
M  V30 21 C -3.155401 -2.395937 0.859812 0
M  V30 22 C -3.212778 -3.571880 1.616738 0
M  V30 23 C -3.319287 -4.767301 0.941114 0
M  V30 24 F -3.368834 -5.851204 1.750207 0
M  V30 25 C -3.372676 -4.886395 -0.423410 0
M  V30 26 C -3.315301 -3.704050 -1.172399 0
M  V30 27 C -3.209623 -2.511666 -0.512890 0
M  V30 28 N -3.151869 -1.391555 -1.214316 0
M  V30 29 C -3.175304 -1.141241 -2.531774 0
M  V30 30 S -3.284448 -2.089491 -3.825539 0
M  V30 31 N -3.083313 0.186921 -2.716796 0
M  V30 32 N -3.001638 0.786952 -1.533659 0
M  V30 33 C -3.044834 -0.197300 -0.611487 0
M  V30 34 H 3.140168 2.105078 2.604485 0
M  V30 35 H 3.669597 1.014082 3.953822 0
M  V30 36 H 5.137360 -0.936675 3.214567 0
M  V30 37 H 6.519426 -1.930601 1.355789 0
M  V30 38 H 6.247828 -1.113094 -0.986110 0
M  V30 39 H 3.316879 1.579214 0.374618 0
M  V30 40 H 0.990488 2.042004 2.005454 0
M  V30 41 H -0.552067 -0.439515 1.750146 0
M  V30 42 H -0.806446 0.245712 3.354721 0
M  V30 43 H -1.351791 2.471995 2.277414 0
M  V30 44 H -0.992128 1.712794 0.642821 0
M  V30 45 H -3.286300 1.988261 0.818731 0
M  V30 46 H -3.487163 1.198732 2.382884 0
M  V30 47 H -3.172396 -3.487632 2.701474 0
M  V30 48 H -3.456933 -5.883562 -0.831837 0
M  V30 49 H -3.362691 -3.884551 -2.226434 0
M  V30 50 H -3.066200 0.783707 -3.590801 0
M  V30 END ATOM
M  V30 BEGIN BOND
M  V30 1 2 1 2
M  V30 2 1 2 3
M  V30 3 1 3 4
M  V30 4 2 4 5
M  V30 5 1 5 6
M  V30 6 2 6 7
M  V30 7 1 7 8
M  V30 8 1 8 9
M  V30 9 1 9 10
M  V30 10 1 9 11
M  V30 11 1 9 12
M  V30 12 2 8 13
M  V30 13 1 2 14
M  V30 14 1 14 15
M  V30 15 1 15 16
M  V30 16 1 16 17
M  V30 17 1 17 18
M  V30 18 1 18 19
M  V30 19 2 19 20
M  V30 20 1 19 21
M  V30 21 2 21 22
M  V30 22 1 22 23
M  V30 23 1 23 24
M  V30 24 2 23 25
M  V30 25 1 25 26
M  V30 26 2 26 27
M  V30 27 1 27 28
M  V30 28 1 28 29
M  V30 29 2 29 30
M  V30 30 1 29 31
M  V30 31 1 31 32
M  V30 32 2 32 33
M  V30 33 1 13 4
M  V30 34 1 33 18
M  V30 35 1 27 21
M  V30 36 1 33 28
M  V30 37 1 3 34
M  V30 38 1 3 35
M  V30 39 1 5 36
M  V30 40 1 6 37
M  V30 41 1 7 38
M  V30 42 1 13 39
M  V30 43 1 14 40
M  V30 44 1 15 41
M  V30 45 1 15 42
M  V30 46 1 16 43
M  V30 47 1 16 44
M  V30 48 1 17 45
M  V30 49 1 17 46
M  V30 50 1 22 47
M  V30 51 1 25 48
M  V30 52 1 26 49
M  V30 53 1 31 50
M  V30 END BOND
M  V30 END CTAB
M  END
>  <Dataset>  (302) 
ChEMBL_Kinases

>  <Ligand_Instance>  (302) 
nan

>  <PDB_ID>  (302) 
nan

>  <Standardized_SMILES>  (302) 
O=C(Cc1cccc(C(F)(F)F)c1)NCCCn1c(=O)c2cc(F)ccc2n2c(=S)[nH]nc12

>  <Name>  (302) 
nan

>  <Pocket>  (302) 
nan

>  <ATP_Site>  (302) 
nan

>  <Peripheral>  (302) 
nan

>  <Num_H_Atoms_ProtBoundConf>  (302) 
nan

>  <Num_Resolved_Atoms>  (302) 
nan

>  <Num_Not_Resolved_Atoms>  (302) 
nan

$$$$
CHEMBL4795074
     RDKit          3D

  0  0  0  0  0  0  0  0  0  0999 V3000
M  V30 BEGIN CTAB
M  V30 COUNTS 83 88 0 0 0
M  V30 BEGIN ATOM
M  V30 1 C 1.171450 -6.118383 5.204888 0
M  V30 2 C 1.004824 -4.653773 4.832681 0
M  V30 3 O 1.558581 -4.414603 3.556135 0
M  V30 4 C 1.582537 -3.209472 2.913574 0
M  V30 5 C 1.102616 -1.961301 3.306813 0
M  V30 6 C 1.222745 -0.852355 2.509060 0
M  V30 7 C 1.837839 -0.962469 1.271331 0
M  V30 8 C 1.896147 0.215825 0.440013 0
M  V30 9 N 2.951682 1.185248 0.603766 0
M  V30 10 C 2.808211 2.135022 -0.520395 0
M  V30 11 N 2.202963 1.805457 -1.672769 0
M  V30 12 C 1.989431 2.654530 -2.684436 0
M  V30 13 N 1.316772 2.007395 -3.757504 0
M  V30 14 C 0.164411 1.176018 -3.646180 0
M  V30 15 C -0.441583 1.056796 -2.400120 0
M  V30 16 C -1.558181 0.292761 -2.148624 0
M  V30 17 C -2.146538 -0.416130 -3.168537 0
M  V30 18 C -3.313423 -1.271873 -3.018867 0
M  V30 19 O -3.949168 -1.945837 -3.854953 0
M  V30 20 N -3.839024 -1.377083 -1.699796 0
M  V30 21 C -4.980931 -2.144232 -1.190400 0
M  V30 22 C -6.101513 -1.287201 -0.712235 0
M  V30 23 C -5.875950 -0.679238 0.627504 0
M  V30 24 N -4.908430 -1.289878 1.457180 0
M  V30 25 C -3.898578 -0.455195 2.012595 0
M  V30 26 C -4.583540 -2.648844 1.242488 0
M  V30 27 C -4.515318 -3.131644 -0.161294 0
M  V30 28 C -1.563845 -0.311981 -4.412623 0
M  V30 29 C -0.433832 0.463538 -4.657845 0
M  V30 30 O 0.139845 0.558267 -5.914610 0
M  V30 31 C -0.354453 -0.105267 -7.037540 0
M  V30 32 N 2.375908 3.924438 -2.614644 0
M  V30 33 C 3.008604 4.405889 -1.502522 0
M  V30 34 C 3.200607 3.485869 -0.496685 0
M  V30 35 N 3.954672 3.936482 0.616812 0
M  V30 36 C 4.398410 5.139769 1.004533 0
M  V30 37 N 4.958973 4.912710 2.207791 0
M  V30 38 N 4.860116 3.645529 2.523676 0
M  V30 39 C 4.226462 2.999657 1.526837 0
M  V30 40 C 4.011930 1.531990 1.467681 0 CFG=1
M  V30 41 C 4.262360 0.843334 2.736502 0
M  V30 42 C 4.610743 -0.609216 2.591881 0
M  V30 43 C 2.332110 -2.208767 0.847225 0
M  V30 44 C 2.207665 -3.338083 1.665043 0
M  V30 45 H 1.664175 -6.266270 6.165786 0
M  V30 46 H 0.182371 -6.622202 5.226925 0
M  V30 47 H 1.761976 -6.635501 4.408570 0
M  V30 48 H -0.053963 -4.344399 4.871141 0
M  V30 49 H 1.556384 -4.081844 5.613176 0
M  V30 50 H 0.643666 -2.000662 4.287169 0
M  V30 51 H 0.817621 0.071113 2.906751 0
M  V30 52 H 0.884233 0.761236 0.447238 0
M  V30 53 H 1.923325 -0.162358 -0.629780 0
M  V30 54 H 1.760307 2.202275 -4.673004 0
M  V30 55 H -0.079400 1.576610 -1.529159 0
M  V30 56 H -1.975774 0.240768 -1.169377 0
M  V30 57 H -3.535877 -0.936727 -0.821264 0
M  V30 58 H -5.362083 -2.686438 -2.099277 0
M  V30 59 H -6.236651 -0.450782 -1.456292 0
M  V30 60 H -7.046014 -1.876512 -0.750337 0
M  V30 61 H -6.862461 -0.720250 1.175698 0
M  V30 62 H -5.625566 0.402951 0.541561 0
M  V30 63 H -2.899234 -0.554065 1.567907 0
M  V30 64 H -4.226485 0.611054 1.894739 0
M  V30 65 H -3.882280 -0.633239 3.121970 0
M  V30 66 H -5.227687 -3.319800 1.883518 0
M  V30 67 H -3.555629 -2.807638 1.690852 0
M  V30 68 H -5.154278 -4.058461 -0.242189 0
M  V30 69 H -3.494248 -3.481785 -0.448663 0
M  V30 70 H -1.980851 -0.844048 -5.256520 0
M  V30 71 H 0.425970 -0.194261 -7.829889 0
M  V30 72 H -1.265164 0.386619 -7.464416 0
M  V30 73 H -0.647115 -1.142068 -6.763800 0
M  V30 74 H 3.341185 5.420546 -1.395624 0
M  V30 75 H 4.296140 6.056262 0.427753 0
M  V30 76 H 4.961709 1.215153 0.829158 0
M  V30 77 H 5.170172 1.348012 3.189673 0
M  V30 78 H 3.484812 1.011871 3.520149 0
M  V30 79 H 5.652831 -0.815198 3.013718 0
M  V30 80 H 4.764334 -0.886370 1.507199 0
M  V30 81 H 3.973484 -1.303075 3.145809 0
M  V30 82 H 2.806034 -2.254075 -0.123536 0
M  V30 83 H 2.622177 -4.228811 1.232636 0
M  V30 END ATOM
M  V30 BEGIN BOND
M  V30 1 1 1 2
M  V30 2 1 2 3
M  V30 3 1 3 4
M  V30 4 2 4 5
M  V30 5 1 5 6
M  V30 6 2 6 7
M  V30 7 1 7 8
M  V30 8 1 8 9
M  V30 9 1 9 10
M  V30 10 2 10 11
M  V30 11 1 11 12
M  V30 12 1 12 13
M  V30 13 1 13 14
M  V30 14 2 14 15
M  V30 15 1 15 16
M  V30 16 2 16 17
M  V30 17 1 17 18
M  V30 18 2 18 19
M  V30 19 1 18 20
M  V30 20 1 20 21
M  V30 21 1 21 22
M  V30 22 1 22 23
M  V30 23 1 23 24
M  V30 24 1 24 25
M  V30 25 1 24 26
M  V30 26 1 26 27
M  V30 27 1 17 28
M  V30 28 2 28 29
M  V30 29 1 29 30
M  V30 30 1 30 31
M  V30 31 2 12 32
M  V30 32 1 32 33
M  V30 33 2 33 34
M  V30 34 1 34 35
M  V30 35 1 35 36
M  V30 36 2 36 37
M  V30 37 1 37 38
M  V30 38 2 38 39
M  V30 39 1 39 40
M  V30 40 1 40 41
M  V30 41 1 41 42
M  V30 42 1 7 43
M  V30 43 2 43 44
M  V30 44 1 44 4
M  V30 45 1 40 9
M  V30 46 1 34 10
M  V30 47 1 39 35
M  V30 48 1 29 14
M  V30 49 1 27 21
M  V30 50 1 1 45
M  V30 51 1 1 46
M  V30 52 1 1 47
M  V30 53 1 2 48
M  V30 54 1 2 49
M  V30 55 1 5 50
M  V30 56 1 6 51
M  V30 57 1 8 52
M  V30 58 1 8 53
M  V30 59 1 13 54
M  V30 60 1 15 55
M  V30 61 1 16 56
M  V30 62 1 20 57
M  V30 63 1 21 58
M  V30 64 1 22 59
M  V30 65 1 22 60
M  V30 66 1 23 61
M  V30 67 1 23 62
M  V30 68 1 25 63
M  V30 69 1 25 64
M  V30 70 1 25 65
M  V30 71 1 26 66
M  V30 72 1 26 67
M  V30 73 1 27 68
M  V30 74 1 27 69
M  V30 75 1 28 70
M  V30 76 1 31 71
M  V30 77 1 31 72
M  V30 78 1 31 73
M  V30 79 1 33 74
M  V30 80 1 36 75
M  V30 81 1 40 76 CFG=3
M  V30 82 1 41 77
M  V30 83 1 41 78
M  V30 84 1 42 79
M  V30 85 1 42 80
M  V30 86 1 42 81
M  V30 87 1 43 82
M  V30 88 1 44 83
M  V30 END BOND
M  V30 END CTAB
M  END
>  <Dataset>  (303) 
ChEMBL_Kinases

>  <Ligand_Instance>  (303) 
nan

>  <PDB_ID>  (303) 
nan

>  <Standardized_SMILES>  (303) 
CCOc1ccc(CN2c3nc(Nc4ccc(C(=O)NC5CCN(C)CC5)cc4OC)ncc3-n3cnnc3[C@H]2CC)cc1

>  <Name>  (303) 
nan

>  <Pocket>  (303) 
nan

>  <ATP_Site>  (303) 
nan

>  <Peripheral>  (303) 
nan

>  <Num_H_Atoms_ProtBoundConf>  (303) 
nan

>  <Num_Resolved_Atoms>  (303) 
nan

>  <Num_Not_Resolved_Atoms>  (303) 
nan

$$$$
CHEMBL4103742
     RDKit          3D

  0  0  0  0  0  0  0  0  0  0999 V3000
M  V30 BEGIN CTAB
M  V30 COUNTS 47 50 0 0 0
M  V30 BEGIN ATOM
M  V30 1 C 1.037576 -3.965137 2.508971 0
M  V30 2 N -0.078699 -3.061547 2.339870 0
M  V30 3 C -0.013331 -2.015645 1.487383 0
M  V30 4 N 1.164511 -1.748264 0.699279 0
M  V30 5 C 1.168410 -2.316447 -0.612174 0
M  V30 6 C 2.261770 -1.921703 -1.516752 0
M  V30 7 N 3.209121 -0.976812 -1.103284 0
M  V30 8 C 3.043073 -0.284537 0.115970 0
M  V30 9 C 2.554318 1.125982 -0.039864 0
M  V30 10 C 1.523008 1.340366 -0.927168 0
M  V30 11 C 1.044047 2.639162 -1.094869 0
M  V30 12 C 1.634830 3.638704 -0.358108 0
M  V30 13 C 2.661708 3.485081 0.537241 0
M  V30 14 C 3.105076 2.196906 0.675240 0
M  V30 15 C 2.263337 -0.967758 1.184050 0
M  V30 16 N -1.048591 -1.171841 1.327917 0
M  V30 17 C -2.222193 -1.276321 1.979732 0
M  V30 18 C -3.299874 -0.320513 1.746846 0
M  V30 19 C -3.005257 0.673957 0.815237 0
M  V30 20 C -4.039808 1.591891 0.589036 0
M  V30 21 N -5.244824 1.523869 1.227310 0
M  V30 22 C -5.438499 0.530732 2.108848 0
M  V30 23 C -4.502046 -0.422939 2.411080 0
M  V30 24 C -2.281877 -2.345428 2.847636 0
M  V30 25 C -1.233594 -3.222464 3.026847 0
M  V30 26 O -1.313079 -4.189900 3.824654 0
M  V30 27 H 1.288842 -4.557763 1.626605 0
M  V30 28 H 0.749639 -4.681959 3.335637 0
M  V30 29 H 1.933521 -3.425245 2.935847 0
M  V30 30 H 0.140032 -2.159135 -1.055643 0
M  V30 31 H 1.198512 -3.436953 -0.474928 0
M  V30 32 H 1.776830 -1.516212 -2.458370 0
M  V30 33 H 2.793944 -2.841542 -1.908478 0
M  V30 34 H 3.514454 -0.289397 -1.829888 0
M  V30 35 H 4.092225 -0.143420 0.525454 0
M  V30 36 H 1.059839 0.571550 -1.502276 0
M  V30 37 H 0.240166 2.853584 -1.776809 0
M  V30 38 H 1.228778 4.645767 -0.519360 0
M  V30 39 H 3.084122 4.308306 1.086029 0
M  V30 40 H 3.920644 1.961891 1.362676 0
M  V30 41 H 1.902157 -0.171395 1.899386 0
M  V30 42 H 2.960619 -1.593750 1.802279 0
M  V30 43 H -2.062606 0.753891 0.294666 0
M  V30 44 H -3.854671 2.394379 -0.137778 0
M  V30 45 H -6.426488 0.548281 2.574031 0
M  V30 46 H -4.711020 -1.200817 3.129246 0
M  V30 47 H -3.188568 -2.503724 3.412346 0
M  V30 END ATOM
M  V30 BEGIN BOND
M  V30 1 1 1 2
M  V30 2 1 2 3
M  V30 3 1 3 4
M  V30 4 1 4 5
M  V30 5 1 5 6
M  V30 6 1 6 7
M  V30 7 1 7 8
M  V30 8 1 8 9
M  V30 9 2 9 10
M  V30 10 1 10 11
M  V30 11 2 11 12
M  V30 12 1 12 13
M  V30 13 2 13 14
M  V30 14 1 8 15
M  V30 15 2 3 16
M  V30 16 1 16 17
M  V30 17 1 17 18
M  V30 18 2 18 19
M  V30 19 1 19 20
M  V30 20 2 20 21
M  V30 21 1 21 22
M  V30 22 2 22 23
M  V30 23 2 17 24
M  V30 24 1 24 25
M  V30 25 2 25 26
M  V30 26 1 25 2
M  V30 27 1 15 4
M  V30 28 1 23 18
M  V30 29 1 14 9
M  V30 30 1 1 27
M  V30 31 1 1 28
M  V30 32 1 1 29
M  V30 33 1 5 30
M  V30 34 1 5 31
M  V30 35 1 6 32
M  V30 36 1 6 33
M  V30 37 1 7 34
M  V30 38 1 8 35
M  V30 39 1 10 36
M  V30 40 1 11 37
M  V30 41 1 12 38
M  V30 42 1 13 39
M  V30 43 1 14 40
M  V30 44 1 15 41
M  V30 45 1 15 42
M  V30 46 1 19 43
M  V30 47 1 20 44
M  V30 48 1 22 45
M  V30 49 1 23 46
M  V30 50 1 24 47
M  V30 END BOND
M  V30 END CTAB
M  END
>  <Dataset>  (304) 
ChEMBL_Kinases

>  <Ligand_Instance>  (304) 
nan

>  <PDB_ID>  (304) 
nan

>  <Standardized_SMILES>  (304) 
Cn1c(N2CCNC(c3ccccc3)C2)nc(-c2ccncc2)cc1=O

>  <Name>  (304) 
nan

>  <Pocket>  (304) 
nan

>  <ATP_Site>  (304) 
nan

>  <Peripheral>  (304) 
nan

>  <Num_H_Atoms_ProtBoundConf>  (304) 
nan

>  <Num_Resolved_Atoms>  (304) 
nan

>  <Num_Not_Resolved_Atoms>  (304) 
nan

$$$$
CHEMBL4795076
     RDKit          3D

  0  0  0  0  0  0  0  0  0  0999 V3000
M  V30 BEGIN CTAB
M  V30 COUNTS 23 25 0 0 0
M  V30 BEGIN ATOM
M  V30 1 O 0.493219 -1.399084 2.808426 0
M  V30 2 C 0.631100 -0.710530 1.777051 0
M  V30 3 C 1.888096 -0.401686 1.068156 0
M  V30 4 C 3.211912 -0.769054 1.330495 0
M  V30 5 Br 3.651522 -1.862992 2.833443 0
M  V30 6 C 4.183091 -0.311141 0.463357 0
M  V30 7 Br 6.022335 -0.778204 0.764778 0
M  V30 8 C 3.948802 0.480701 -0.641798 0
M  V30 9 Br 5.350163 1.073070 -1.793399 0
M  V30 10 C 2.618037 0.825528 -0.869883 0
M  V30 11 Br 2.247275 1.920215 -2.388066 0
M  V30 12 C 1.587570 0.400379 -0.038250 0
M  V30 13 C 0.140554 0.635111 -0.081989 0
M  V30 14 O -0.432145 1.324822 -0.968637 0
M  V30 15 N -0.396393 -0.058530 1.039047 0
M  V30 16 C -1.779065 -0.096063 1.378642 0
M  V30 17 N -2.351825 -0.727236 2.416188 0
M  V30 18 C -3.693607 -0.541923 2.422673 0
M  V30 19 C -3.983141 0.258405 1.316351 0
M  V30 20 N -2.796709 0.495551 0.726420 0
M  V30 21 H -4.358505 -0.957906 3.165722 0
M  V30 22 H -4.956734 0.592968 1.029523 0
M  V30 23 H -2.710906 1.084440 -0.149137 0
M  V30 END ATOM
M  V30 BEGIN BOND
M  V30 1 2 1 2
M  V30 2 1 2 3
M  V30 3 2 3 4
M  V30 4 1 4 5
M  V30 5 1 4 6
M  V30 6 1 6 7
M  V30 7 2 6 8
M  V30 8 1 8 9
M  V30 9 1 8 10
M  V30 10 1 10 11
M  V30 11 2 10 12
M  V30 12 1 12 13
M  V30 13 2 13 14
M  V30 14 1 13 15
M  V30 15 1 15 16
M  V30 16 2 16 17
M  V30 17 1 17 18
M  V30 18 2 18 19
M  V30 19 1 19 20
M  V30 20 1 15 2
M  V30 21 1 20 16
M  V30 22 1 12 3
M  V30 23 1 18 21
M  V30 24 1 19 22
M  V30 25 1 20 23
M  V30 END BOND
M  V30 END CTAB
M  END
>  <Dataset>  (305) 
ChEMBL_Kinases

>  <Ligand_Instance>  (305) 
nan

>  <PDB_ID>  (305) 
nan

>  <Standardized_SMILES>  (305) 
O=C1c2c(Br)c(Br)c(Br)c(Br)c2C(=O)N1c1ncc[nH]1

>  <Name>  (305) 
nan

>  <Pocket>  (305) 
nan

>  <ATP_Site>  (305) 
nan

>  <Peripheral>  (305) 
nan

>  <Num_H_Atoms_ProtBoundConf>  (305) 
nan

>  <Num_Resolved_Atoms>  (305) 
nan

>  <Num_Not_Resolved_Atoms>  (305) 
nan

$$$$
CHEMBL4795145
     RDKit          3D

  0  0  0  0  0  0  0  0  0  0999 V3000
M  V30 BEGIN CTAB
M  V30 COUNTS 45 50 0 0 0
M  V30 BEGIN ATOM
M  V30 1 F -2.406167 -2.137051 -3.444583 0
M  V30 2 C -1.279173 -1.479181 -3.025588 0
M  V30 3 C -0.080146 -1.813788 -3.615835 0
M  V30 4 C 1.087494 -1.187723 -3.237346 0
M  V30 5 C 1.045512 -0.216997 -2.256289 0
M  V30 6 C 2.153799 0.565881 -1.708131 0
M  V30 7 C 3.138947 1.164517 -2.499673 0
M  V30 8 C 4.173202 1.894931 -1.990060 0
M  V30 9 C 4.265956 2.061104 -0.620411 0
M  V30 10 C 3.316836 1.490099 0.217679 0
M  V30 11 N 3.192777 1.509941 1.569771 0
M  V30 12 C 2.091127 0.795772 1.866509 0
M  V30 13 C 1.593815 0.566281 3.222645 0
M  V30 14 N 2.164884 1.033725 4.348058 0
M  V30 15 N 1.441736 0.630345 5.403604 0
M  V30 16 C 0.389497 -0.105449 4.981233 0
M  V30 17 C -0.677083 -0.775219 5.553580 0
M  V30 18 C -1.574158 -1.437490 4.733130 0
M  V30 19 C -1.448636 -1.457787 3.361638 0
M  V30 20 C -2.371266 -2.141102 2.488236 0
M  V30 21 C -2.152244 -2.097892 1.128824 0
M  V30 22 N -2.966784 -2.709089 0.252458 0
M  V30 23 C -4.041630 -3.394986 0.684329 0
M  V30 24 N -4.285338 -3.457100 2.012195 0
M  V30 25 C -3.470436 -2.844939 2.898104 0
M  V30 26 N -0.411040 -0.805938 2.808590 0
M  V30 27 C 0.475057 -0.154441 3.583854 0
M  V30 28 N 1.530926 0.334801 0.731028 0
M  V30 29 C 2.275185 0.751455 -0.335160 0
M  V30 30 C -0.170977 0.119444 -1.660487 0
M  V30 31 C -1.349121 -0.519216 -2.049352 0
M  V30 32 H 0.043533 -2.558542 -4.387976 0
M  V30 33 H 2.080708 -1.356230 -3.617454 0
M  V30 34 H 3.072413 1.038247 -3.575109 0
M  V30 35 H 4.930345 2.354282 -2.608126 0
M  V30 36 H 5.060730 2.628645 -0.146540 0
M  V30 37 H 3.834441 1.989935 2.238968 0
M  V30 38 H 1.597930 0.813391 6.437575 0
M  V30 39 H -0.745987 -0.739083 6.635378 0
M  V30 40 H -2.396137 -1.950896 5.210684 0
M  V30 41 H -1.305746 -1.563662 0.710439 0
M  V30 42 H -4.692472 -3.885004 -0.037683 0
M  V30 43 H -3.684169 -2.907876 3.951295 0
M  V30 44 H -0.316853 0.861990 -0.885824 0
M  V30 45 H -2.302454 -0.281112 -1.608031 0
M  V30 END ATOM
M  V30 BEGIN BOND
M  V30 1 1 1 2
M  V30 2 2 2 3
M  V30 3 1 3 4
M  V30 4 2 4 5
M  V30 5 1 5 6
M  V30 6 2 6 7
M  V30 7 1 7 8
M  V30 8 2 8 9
M  V30 9 1 9 10
M  V30 10 1 10 11
M  V30 11 1 11 12
M  V30 12 1 12 13
M  V30 13 2 13 14
M  V30 14 1 14 15
M  V30 15 1 15 16
M  V30 16 2 16 17
M  V30 17 1 17 18
M  V30 18 2 18 19
M  V30 19 1 19 20
M  V30 20 2 20 21
M  V30 21 1 21 22
M  V30 22 2 22 23
M  V30 23 1 23 24
M  V30 24 2 24 25
M  V30 25 1 19 26
M  V30 26 2 26 27
M  V30 27 2 12 28
M  V30 28 1 28 29
M  V30 29 1 5 30
M  V30 30 2 30 31
M  V30 31 1 31 2
M  V30 32 1 29 6
M  V30 33 2 29 10
M  V30 34 1 27 13
M  V30 35 1 27 16
M  V30 36 1 25 20
M  V30 37 1 3 32
M  V30 38 1 4 33
M  V30 39 1 7 34
M  V30 40 1 8 35
M  V30 41 1 9 36
M  V30 42 1 11 37
M  V30 43 1 15 38
M  V30 44 1 17 39
M  V30 45 1 18 40
M  V30 46 1 21 41
M  V30 47 1 23 42
M  V30 48 1 25 43
M  V30 49 1 30 44
M  V30 50 1 31 45
M  V30 END BOND
M  V30 END CTAB
M  END
>  <Dataset>  (306) 
ChEMBL_Kinases

>  <Ligand_Instance>  (306) 
nan

>  <PDB_ID>  (306) 
nan

>  <Standardized_SMILES>  (306) 
Fc1ccc(-c2cccc3[nH]c(-c4n[nH]c5ccc(-c6cncnc6)nc45)nc23)cc1

>  <Name>  (306) 
nan

>  <Pocket>  (306) 
nan

>  <ATP_Site>  (306) 
nan

>  <Peripheral>  (306) 
nan

>  <Num_H_Atoms_ProtBoundConf>  (306) 
nan

>  <Num_Resolved_Atoms>  (306) 
nan

>  <Num_Not_Resolved_Atoms>  (306) 
nan

$$$$
CHEMBL4795146
     RDKit          3D

  0  0  0  0  0  0  0  0  0  0999 V3000
M  V30 BEGIN CTAB
M  V30 COUNTS 56 60 0 0 0
M  V30 BEGIN ATOM
M  V30 1 C 2.723568 -3.442703 -0.085229 0
M  V30 2 O 2.687246 -2.040440 0.111053 0
M  V30 3 C 2.818961 -1.574913 1.412461 0
M  V30 4 C 2.981392 -2.419168 2.502904 0
M  V30 5 C 3.112049 -1.954672 3.794902 0
M  V30 6 C 3.083115 -0.597237 4.038572 0
M  V30 7 C 2.923882 0.289632 2.991084 0
M  V30 8 F 2.888502 1.638351 3.176205 0
M  V30 9 C 2.793589 -0.207043 1.690521 0
M  V30 10 C 2.619916 0.671378 0.515910 0
M  V30 11 C 1.328904 1.001220 0.147513 0
M  V30 12 C 1.132885 1.826439 -0.954139 0
M  V30 13 C 2.207403 2.313788 -1.675341 0
M  V30 14 C 1.663582 3.093344 -2.694784 0
M  V30 15 N 0.332319 3.032724 -2.534067 0
M  V30 16 N -0.007867 2.282839 -1.502230 0
M  V30 17 C -1.314067 1.985493 -1.023735 0
M  V30 18 C -2.385452 2.853421 -0.983458 0
M  V30 19 C -3.616673 2.480371 -0.503105 0
M  V30 20 C -3.842034 1.189199 -0.027857 0
M  V30 21 C -2.746036 0.358733 -0.087248 0
M  V30 22 N -2.917000 -0.972725 0.384690 0
M  V30 23 C -4.197327 -1.419682 0.901626 0
M  V30 24 C -4.186498 -2.914016 1.100956 0
M  V30 25 N -3.560106 -3.646235 0.053853 0
M  V30 26 C -3.213508 -4.963354 0.561550 0
M  V30 27 C -2.375829 -3.073376 -0.505163 0
M  V30 28 C -1.856385 -1.965854 0.388401 0
M  V30 29 N -1.549481 0.742278 -0.560724 0
M  V30 30 C 3.492921 1.978134 -1.298770 0
M  V30 31 C 3.700466 1.153455 -0.198536 0
M  V30 32 C 5.025895 0.792414 0.209864 0
M  V30 33 N 6.107171 0.486426 0.542388 0
M  V30 34 H 1.919726 -3.895407 0.521782 0
M  V30 35 H 3.709864 -3.775931 0.285089 0
M  V30 36 H 2.532647 -3.717759 -1.142896 0
M  V30 37 H 2.997892 -3.490168 2.256294 0
M  V30 38 H 3.237260 -2.669803 4.612124 0
M  V30 39 H 3.184048 -0.195284 5.052282 0
M  V30 40 H 0.481307 0.608222 0.727969 0
M  V30 41 H 2.234843 3.621039 -3.440599 0
M  V30 42 H -2.198359 3.867994 -1.359819 0
M  V30 43 H -4.370177 3.262137 -0.529069 0
M  V30 44 H -4.820483 0.944917 0.337392 0
M  V30 45 H -4.322456 -0.954167 1.901186 0
M  V30 46 H -5.057570 -1.080369 0.291326 0
M  V30 47 H -5.262352 -3.250891 1.129248 0
M  V30 48 H -3.761338 -3.180881 2.094191 0
M  V30 49 H -4.033868 -5.400864 1.173031 0
M  V30 50 H -2.937943 -5.625038 -0.285415 0
M  V30 51 H -2.285267 -4.825586 1.169574 0
M  V30 52 H -1.564175 -3.834256 -0.653768 0
M  V30 53 H -2.537507 -2.576756 -1.505705 0
M  V30 54 H -1.812744 -2.419543 1.415962 0
M  V30 55 H -0.892213 -1.569120 0.064124 0
M  V30 56 H 4.326863 2.373430 -1.881525 0
M  V30 END ATOM
M  V30 BEGIN BOND
M  V30 1 1 1 2
M  V30 2 1 2 3
M  V30 3 2 3 4
M  V30 4 1 4 5
M  V30 5 2 5 6
M  V30 6 1 6 7
M  V30 7 1 7 8
M  V30 8 2 7 9
M  V30 9 1 9 10
M  V30 10 2 10 11
M  V30 11 1 11 12
M  V30 12 2 12 13
M  V30 13 1 13 14
M  V30 14 2 14 15
M  V30 15 1 15 16
M  V30 16 1 16 17
M  V30 17 2 17 18
M  V30 18 1 18 19
M  V30 19 2 19 20
M  V30 20 1 20 21
M  V30 21 1 21 22
M  V30 22 1 22 23
M  V30 23 1 23 24
M  V30 24 1 24 25
M  V30 25 1 25 26
M  V30 26 1 25 27
M  V30 27 1 27 28
M  V30 28 2 21 29
M  V30 29 1 13 30
M  V30 30 2 30 31
M  V30 31 1 31 32
M  V30 32 3 32 33
M  V30 33 1 9 3
M  V30 34 1 31 10
M  V30 35 1 16 12
M  V30 36 1 29 17
M  V30 37 1 28 22
M  V30 38 1 1 34
M  V30 39 1 1 35
M  V30 40 1 1 36
M  V30 41 1 4 37
M  V30 42 1 5 38
M  V30 43 1 6 39
M  V30 44 1 11 40
M  V30 45 1 14 41
M  V30 46 1 18 42
M  V30 47 1 19 43
M  V30 48 1 20 44
M  V30 49 1 23 45
M  V30 50 1 23 46
M  V30 51 1 24 47
M  V30 52 1 24 48
M  V30 53 1 26 49
M  V30 54 1 26 50
M  V30 55 1 26 51
M  V30 56 1 27 52
M  V30 57 1 27 53
M  V30 58 1 28 54
M  V30 59 1 28 55
M  V30 60 1 30 56
M  V30 END BOND
M  V30 END CTAB
M  END
>  <Dataset>  (307) 
ChEMBL_Kinases

>  <Ligand_Instance>  (307) 
nan

>  <PDB_ID>  (307) 
nan

>  <Standardized_SMILES>  (307) 
COc1cccc(F)c1-c1cc2c(cnn2-c2cccc(N3CCN(C)CC3)n2)cc1C#N

>  <Name>  (307) 
nan

>  <Pocket>  (307) 
nan

>  <ATP_Site>  (307) 
nan

>  <Peripheral>  (307) 
nan

>  <Num_H_Atoms_ProtBoundConf>  (307) 
nan

>  <Num_Resolved_Atoms>  (307) 
nan

>  <Num_Not_Resolved_Atoms>  (307) 
nan

$$$$
CHEMBL4795159
     RDKit          3D

  0  0  0  0  0  0  0  0  0  0999 V3000
M  V30 BEGIN CTAB
M  V30 COUNTS 62 66 0 0 0
M  V30 BEGIN ATOM
M  V30 1 C 4.654821 -2.892537 2.014080 0
M  V30 2 C 4.982444 -1.487939 1.712973 0
M  V30 3 O 5.973474 -1.184938 1.011962 0
M  V30 4 N 4.088386 -0.533641 2.280211 0
M  V30 5 C 3.867875 0.857081 2.358569 0
M  V30 6 C 4.429565 1.606152 3.370845 0
M  V30 7 C 4.253237 2.972930 3.504760 0
M  V30 8 C 3.458725 3.543008 2.532282 0
M  V30 9 C 2.851345 2.887196 1.481133 0
M  V30 10 C 2.029658 3.594812 0.508308 0
M  V30 11 C 2.361780 4.806623 -0.102269 0
M  V30 12 N 1.351047 5.135041 -0.937092 0
M  V30 13 C 0.377130 4.203103 -0.904358 0
M  V30 14 N -0.803947 4.076873 -1.537744 0
M  V30 15 C -1.613481 3.012648 -1.316018 0
M  V30 16 C -1.197026 2.047134 -0.415187 0
M  V30 17 C -2.057748 0.890281 -0.163304 0
M  V30 18 C -2.846831 0.436044 -1.227144 0
M  V30 19 C -3.664568 -0.666381 -0.979452 0
M  V30 20 C -3.749411 -1.333101 0.226847 0
M  V30 21 C -4.642062 -2.479236 0.375247 0
M  V30 22 N -4.100332 -3.757905 0.079037 0
M  V30 23 C -3.601082 -3.968484 -1.235778 0
M  V30 24 C -2.089647 -3.945997 -1.313425 0
M  V30 25 N -1.596207 -5.087059 -0.567927 0
M  V30 26 C -1.475070 -6.218554 -1.451928 0
M  V30 27 C -2.426707 -5.464733 0.532260 0
M  V30 28 C -3.263187 -4.332078 1.080652 0
M  V30 29 C -2.947897 -0.841843 1.244457 0
M  V30 30 C -2.117440 0.247255 1.057618 0
M  V30 31 C 0.016717 2.148892 0.254376 0
M  V30 32 C 0.801633 3.241628 -0.001404 0
M  V30 33 C 3.086389 1.527971 1.433256 0
M  V30 34 H 5.025457 -3.507827 1.165952 0
M  V30 35 H 5.264130 -3.190099 2.899288 0
M  V30 36 H 3.572376 -3.062293 2.174321 0
M  V30 37 H 3.260385 -0.790153 2.866443 0
M  V30 38 H 5.039934 1.078653 4.091974 0
M  V30 39 H 4.690642 3.566072 4.296253 0
M  V30 40 H 3.294875 4.621378 2.602579 0
M  V30 41 H 3.247878 5.396772 0.040823 0
M  V30 42 H 1.310759 5.982729 -1.529951 0
M  V30 43 H -2.553754 2.964204 -1.855336 0
M  V30 44 H -2.811847 0.924082 -2.180406 0
M  V30 45 H -4.252812 -0.966876 -1.854522 0
M  V30 46 H -4.927479 -2.508360 1.468785 0
M  V30 47 H -5.612985 -2.283812 -0.146433 0
M  V30 48 H -4.070929 -3.354702 -2.013185 0
M  V30 49 H -3.881466 -5.028185 -1.510467 0
M  V30 50 H -1.802956 -4.107948 -2.381142 0
M  V30 51 H -1.661197 -3.001251 -0.955065 0
M  V30 52 H -1.889185 -7.151498 -1.005039 0
M  V30 53 H -2.016951 -6.087024 -2.411904 0
M  V30 54 H -0.400477 -6.439419 -1.685691 0
M  V30 55 H -1.780792 -5.837117 1.353619 0
M  V30 56 H -3.118282 -6.313419 0.277464 0
M  V30 57 H -2.642331 -3.607840 1.620646 0
M  V30 58 H -3.955249 -4.821759 1.825480 0
M  V30 59 H -2.960341 -1.305688 2.205669 0
M  V30 60 H -1.475506 0.652071 1.847869 0
M  V30 61 H 0.285505 1.359378 0.948173 0
M  V30 62 H 2.629830 0.957446 0.621670 0
M  V30 END ATOM
M  V30 BEGIN BOND
M  V30 1 1 1 2
M  V30 2 2 2 3
M  V30 3 1 2 4
M  V30 4 1 4 5
M  V30 5 2 5 6
M  V30 6 1 6 7
M  V30 7 2 7 8
M  V30 8 1 8 9
M  V30 9 1 9 10
M  V30 10 2 10 11
M  V30 11 1 11 12
M  V30 12 1 12 13
M  V30 13 2 13 14
M  V30 14 1 14 15
M  V30 15 2 15 16
M  V30 16 1 16 17
M  V30 17 2 17 18
M  V30 18 1 18 19
M  V30 19 2 19 20
M  V30 20 1 20 21
M  V30 21 1 21 22
M  V30 22 1 22 23
M  V30 23 1 23 24
M  V30 24 1 24 25
M  V30 25 1 25 26
M  V30 26 1 25 27
M  V30 27 1 27 28
M  V30 28 1 20 29
M  V30 29 2 29 30
M  V30 30 1 16 31
M  V30 31 2 31 32
M  V30 32 2 9 33
M  V30 33 1 33 5
M  V30 34 1 32 10
M  V30 35 1 32 13
M  V30 36 1 30 17
M  V30 37 1 28 22
M  V30 38 1 1 34
M  V30 39 1 1 35
M  V30 40 1 1 36
M  V30 41 1 4 37
M  V30 42 1 6 38
M  V30 43 1 7 39
M  V30 44 1 8 40
M  V30 45 1 11 41
M  V30 46 1 12 42
M  V30 47 1 15 43
M  V30 48 1 18 44
M  V30 49 1 19 45
M  V30 50 1 21 46
M  V30 51 1 21 47
M  V30 52 1 23 48
M  V30 53 1 23 49
M  V30 54 1 24 50
M  V30 55 1 24 51
M  V30 56 1 26 52
M  V30 57 1 26 53
M  V30 58 1 26 54
M  V30 59 1 27 55
M  V30 60 1 27 56
M  V30 61 1 28 57
M  V30 62 1 28 58
M  V30 63 1 29 59
M  V30 64 1 30 60
M  V30 65 1 31 61
M  V30 66 1 33 62
M  V30 END BOND
M  V30 END CTAB
M  END
>  <Dataset>  (308) 
ChEMBL_Kinases

>  <Ligand_Instance>  (308) 
nan

>  <PDB_ID>  (308) 
nan

>  <Standardized_SMILES>  (308) 
CC(=O)Nc1cccc(-c2c[nH]c3ncc(-c4ccc(CN5CCN(C)CC5)cc4)cc23)c1

>  <Name>  (308) 
nan

>  <Pocket>  (308) 
nan

>  <ATP_Site>  (308) 
nan

>  <Peripheral>  (308) 
nan

>  <Num_H_Atoms_ProtBoundConf>  (308) 
nan

>  <Num_Resolved_Atoms>  (308) 
nan

>  <Num_Not_Resolved_Atoms>  (308) 
nan

$$$$
CHEMBL4795189
     RDKit          3D

  0  0  0  0  0  0  0  0  0  0999 V3000
M  V30 BEGIN CTAB
M  V30 COUNTS 35 37 0 0 0
M  V30 BEGIN ATOM
M  V30 1 C 0.024032 3.131060 1.865431 0
M  V30 2 S 1.589708 3.009931 1.020068 0
M  V30 3 O 2.653057 3.463620 1.942486 0
M  V30 4 O 1.587778 3.870634 -0.194096 0
M  V30 5 N 1.794798 1.370362 0.520519 0
M  V30 6 C 1.829139 0.459964 1.613754 0
M  V30 7 C 2.010918 -0.978249 1.215795 0
M  V30 8 N 0.948326 -1.424559 0.356791 0
M  V30 9 C -0.121687 -1.911217 1.025175 0
M  V30 10 O -0.197619 -1.965153 2.278838 0
M  V30 11 C -1.215022 -2.386305 0.328733 0
M  V30 12 C -2.314672 -2.885922 1.002558 0
M  V30 13 C -3.377692 -3.346612 0.260004 0
M  V30 14 F -4.429695 -3.825406 0.955438 0
M  V30 15 C -3.400091 -3.334473 -1.122864 0
M  V30 16 C -2.293819 -2.832107 -1.784738 0
M  V30 17 C -1.237944 -2.374579 -1.042810 0
M  V30 18 N -0.164935 -1.887650 -1.666100 0
M  V30 19 C 0.129969 -1.741747 -2.948304 0
M  V30 20 S -0.655399 -2.072260 -4.315616 0
M  V30 21 N 1.354378 -1.199299 -3.063312 0
M  V30 22 N 1.842382 -0.998373 -1.839667 0
M  V30 23 C 0.891989 -1.428560 -0.978225 0
M  V30 24 H -0.050217 2.379870 2.676607 0
M  V30 25 H -0.823139 2.867361 1.168119 0
M  V30 26 H -0.187367 4.134031 2.238536 0
M  V30 27 H 1.104705 1.111277 -0.223247 0
M  V30 28 H 2.714022 0.716279 2.249977 0
M  V30 29 H 0.941602 0.588797 2.264826 0
M  V30 30 H 2.976140 -1.056945 0.633381 0
M  V30 31 H 2.104136 -1.620837 2.113933 0
M  V30 32 H -2.337727 -2.913540 2.091122 0
M  V30 33 H -4.293322 -3.724092 -1.588482 0
M  V30 34 H -2.394483 -2.859813 -2.847755 0
M  V30 35 H 1.974931 -0.915252 -3.877178 0
M  V30 END ATOM
M  V30 BEGIN BOND
M  V30 1 1 1 2
M  V30 2 2 2 3
M  V30 3 2 2 4
M  V30 4 1 2 5
M  V30 5 1 5 6
M  V30 6 1 6 7
M  V30 7 1 7 8
M  V30 8 1 8 9
M  V30 9 2 9 10
M  V30 10 1 9 11
M  V30 11 2 11 12
M  V30 12 1 12 13
M  V30 13 1 13 14
M  V30 14 2 13 15
M  V30 15 1 15 16
M  V30 16 2 16 17
M  V30 17 1 17 18
M  V30 18 1 18 19
M  V30 19 2 19 20
M  V30 20 1 19 21
M  V30 21 1 21 22
M  V30 22 2 22 23
M  V30 23 1 23 8
M  V30 24 1 17 11
M  V30 25 1 23 18
M  V30 26 1 1 24
M  V30 27 1 1 25
M  V30 28 1 1 26
M  V30 29 1 5 27
M  V30 30 1 6 28
M  V30 31 1 6 29
M  V30 32 1 7 30
M  V30 33 1 7 31
M  V30 34 1 12 32
M  V30 35 1 15 33
M  V30 36 1 16 34
M  V30 37 1 21 35
M  V30 END BOND
M  V30 END CTAB
M  END
>  <Dataset>  (309) 
ChEMBL_Kinases

>  <Ligand_Instance>  (309) 
nan

>  <PDB_ID>  (309) 
nan

>  <Standardized_SMILES>  (309) 
CS(=O)(=O)NCCn1c(=O)c2cc(F)ccc2n2c(=S)[nH]nc12

>  <Name>  (309) 
nan

>  <Pocket>  (309) 
nan

>  <ATP_Site>  (309) 
nan

>  <Peripheral>  (309) 
nan

>  <Num_H_Atoms_ProtBoundConf>  (309) 
nan

>  <Num_Resolved_Atoms>  (309) 
nan

>  <Num_Not_Resolved_Atoms>  (309) 
nan

$$$$
CHEMBL4795273
     RDKit          3D

  0  0  0  0  0  0  0  0  0  0999 V3000
M  V30 BEGIN CTAB
M  V30 COUNTS 32 33 0 0 0
M  V30 BEGIN ATOM
M  V30 1 C -3.793253 -1.786575 4.389716 0
M  V30 2 O -2.756040 -2.667239 4.029569 0
M  V30 3 C -1.678620 -2.213488 3.275652 0
M  V30 4 C -0.654014 -3.083496 2.919898 0
M  V30 5 C 0.456133 -2.737813 2.176897 0
M  V30 6 C 0.540379 -1.407029 1.758463 0
M  V30 7 N 1.656603 -0.938606 0.977836 0
M  V30 8 C 1.510971 -1.035055 -0.434122 0
M  V30 9 O 0.459903 -1.505806 -0.969717 0
M  V30 10 C 2.623271 -0.569419 -1.261711 0 CFG=1
M  V30 11 S 2.171178 -0.626661 -3.040206 0
M  V30 12 C 0.754423 0.486662 -3.155347 0
M  V30 13 C 0.894304 1.730163 -2.379377 0
M  V30 14 N 1.910040 1.808637 -1.391306 0
M  V30 15 C 2.898547 0.890363 -1.005596 0
M  V30 16 O 3.957146 1.302292 -0.471594 0
M  V30 17 C -0.471084 -0.536350 2.106371 0
M  V30 18 C -1.579534 -0.889448 2.850438 0
M  V30 19 H -4.265508 -1.320923 3.483972 0
M  V30 20 H -3.392879 -0.969475 5.015083 0
M  V30 21 H -4.557486 -2.316559 4.979985 0
M  V30 22 H -0.767877 -4.105818 3.269990 0
M  V30 23 H 1.224834 -3.438814 1.923390 0
M  V30 24 H 2.504769 -0.557954 1.444130 0
M  V30 25 H 3.569194 -1.080746 -1.163579 0
M  V30 26 H 0.618885 0.746026 -4.244854 0
M  V30 27 H -0.140291 -0.102217 -2.859728 0
M  V30 28 H -0.078354 1.901449 -1.828781 0
M  V30 29 H 0.967925 2.654740 -3.023768 0
M  V30 30 H 1.894147 2.734641 -0.869918 0
M  V30 31 H -0.414535 0.494012 1.787457 0
M  V30 32 H -2.365294 -0.203790 3.118131 0
M  V30 END ATOM
M  V30 BEGIN BOND
M  V30 1 1 1 2
M  V30 2 1 2 3
M  V30 3 2 3 4
M  V30 4 1 4 5
M  V30 5 2 5 6
M  V30 6 1 6 7
M  V30 7 1 7 8
M  V30 8 2 8 9
M  V30 9 1 8 10
M  V30 10 1 10 11
M  V30 11 1 11 12
M  V30 12 1 12 13
M  V30 13 1 13 14
M  V30 14 1 14 15
M  V30 15 2 15 16
M  V30 16 1 6 17
M  V30 17 2 17 18
M  V30 18 1 18 3
M  V30 19 1 15 10
M  V30 20 1 1 19
M  V30 21 1 1 20
M  V30 22 1 1 21
M  V30 23 1 4 22
M  V30 24 1 5 23
M  V30 25 1 7 24
M  V30 26 1 10 25 CFG=3
M  V30 27 1 12 26
M  V30 28 1 12 27
M  V30 29 1 13 28
M  V30 30 1 13 29
M  V30 31 1 14 30
M  V30 32 1 17 31
M  V30 33 1 18 32
M  V30 END BOND
M  V30 END CTAB
M  END
>  <Dataset>  (310) 
ChEMBL_Kinases

>  <Ligand_Instance>  (310) 
nan

>  <PDB_ID>  (310) 
nan

>  <Standardized_SMILES>  (310) 
COc1ccc(NC(=O)[C@H]2SCCNC2=O)cc1

>  <Name>  (310) 
nan

>  <Pocket>  (310) 
nan

>  <ATP_Site>  (310) 
nan

>  <Peripheral>  (310) 
nan

>  <Num_H_Atoms_ProtBoundConf>  (310) 
nan

>  <Num_Resolved_Atoms>  (310) 
nan

>  <Num_Not_Resolved_Atoms>  (310) 
nan

$$$$
CHEMBL4795291
     RDKit          3D

  0  0  0  0  0  0  0  0  0  0999 V3000
M  V30 BEGIN CTAB
M  V30 COUNTS 47 50 0 0 0
M  V30 BEGIN ATOM
M  V30 1 O -1.141429 -3.045361 -0.045019 0
M  V30 2 C -1.957976 -2.916266 0.904196 0
M  V30 3 N -1.540144 -1.863572 1.755750 0
M  V30 4 C -0.319800 -1.300246 1.241099 0
M  V30 5 C 0.911829 -1.799164 1.637187 0
M  V30 6 C 2.111773 -1.278394 1.159564 0
M  V30 7 C 2.032955 -0.227333 0.260163 0
M  V30 8 O 3.214565 0.313121 -0.233868 0
M  V30 9 C 3.594197 1.635650 -0.069936 0
M  V30 10 C 3.753975 2.267104 -1.308344 0
M  V30 11 C 4.135626 3.609104 -1.360787 0
M  V30 12 C 4.353054 4.304202 -0.177462 0
M  V30 13 C 4.730554 5.631280 -0.223785 0
M  V30 14 C 4.933701 6.274393 0.992258 0
M  V30 15 C 4.773385 5.641458 2.223524 0
M  V30 16 C 4.395668 4.315418 2.238462 0
M  V30 17 C 4.189159 3.659451 1.040852 0
M  V30 18 C 3.811960 2.333073 1.093284 0
M  V30 19 Br 3.557455 1.348913 2.687566 0
M  V30 20 C 0.829755 0.300815 -0.161729 0
M  V30 21 Cl 0.725928 1.632052 -1.300783 0
M  V30 22 C -0.354246 -0.243304 0.335508 0
M  V30 23 C -3.116954 -3.780718 0.999155 0
M  V30 24 C -3.275121 -4.733753 0.013875 0
M  V30 25 C -4.341420 -5.606356 0.008814 0
M  V30 26 C -5.310263 -5.574644 0.989896 0
M  V30 27 C -6.460367 -6.515800 0.984465 0
M  V30 28 F -6.175163 -7.626201 1.740119 0
M  V30 29 F -6.733003 -6.956835 -0.317650 0
M  V30 30 F -7.588745 -5.856562 1.431137 0
M  V30 31 C -5.162009 -4.631130 1.973448 0
M  V30 32 C -4.099961 -3.778930 1.958257 0
M  V30 33 O -4.016965 -2.866445 2.968247 0
M  V30 34 H -2.141588 -1.661782 2.582451 0
M  V30 35 H 0.974358 -2.630991 2.348985 0
M  V30 36 H 3.079579 -1.675732 1.475347 0
M  V30 37 H 3.610107 1.818250 -2.284925 0
M  V30 38 H 4.271394 4.138420 -2.286350 0
M  V30 39 H 4.870421 6.175609 -1.160531 0
M  V30 40 H 5.233533 7.325766 1.002053 0
M  V30 41 H 4.946850 6.196931 3.151385 0
M  V30 42 H 4.259434 3.783068 3.188711 0
M  V30 43 H -1.322576 0.128418 0.041704 0
M  V30 44 H -2.544177 -4.820161 -0.800993 0
M  V30 45 H -4.408343 -6.330250 -0.791380 0
M  V30 46 H -5.907963 -4.594680 2.743209 0
M  V30 47 H -4.792913 -2.462156 3.474470 0
M  V30 END ATOM
M  V30 BEGIN BOND
M  V30 1 2 1 2
M  V30 2 1 2 3
M  V30 3 1 3 4
M  V30 4 2 4 5
M  V30 5 1 5 6
M  V30 6 2 6 7
M  V30 7 1 7 8
M  V30 8 1 8 9
M  V30 9 2 9 10
M  V30 10 1 10 11
M  V30 11 2 11 12
M  V30 12 1 12 13
M  V30 13 2 13 14
M  V30 14 1 14 15
M  V30 15 2 15 16
M  V30 16 1 16 17
M  V30 17 2 17 18
M  V30 18 1 18 19
M  V30 19 1 7 20
M  V30 20 1 20 21
M  V30 21 2 20 22
M  V30 22 1 2 23
M  V30 23 2 23 24
M  V30 24 1 24 25
M  V30 25 2 25 26
M  V30 26 1 26 27
M  V30 27 1 27 28
M  V30 28 1 27 29
M  V30 29 1 27 30
M  V30 30 1 26 31
M  V30 31 2 31 32
M  V30 32 1 32 33
M  V30 33 1 22 4
M  V30 34 1 32 23
M  V30 35 1 18 9
M  V30 36 1 17 12
M  V30 37 1 3 34
M  V30 38 1 5 35
M  V30 39 1 6 36
M  V30 40 1 10 37
M  V30 41 1 11 38
M  V30 42 1 13 39
M  V30 43 1 14 40
M  V30 44 1 15 41
M  V30 45 1 16 42
M  V30 46 1 22 43
M  V30 47 1 24 44
M  V30 48 1 25 45
M  V30 49 1 31 46
M  V30 50 1 33 47
M  V30 END BOND
M  V30 END CTAB
M  END
>  <Dataset>  (311) 
ChEMBL_Kinases

>  <Ligand_Instance>  (311) 
nan

>  <PDB_ID>  (311) 
nan

>  <Standardized_SMILES>  (311) 
O=C(Nc1ccc(Oc2ccc3ccccc3c2Br)c(Cl)c1)c1ccc(C(F)(F)F)cc1O

>  <Name>  (311) 
nan

>  <Pocket>  (311) 
nan

>  <ATP_Site>  (311) 
nan

>  <Peripheral>  (311) 
nan

>  <Num_H_Atoms_ProtBoundConf>  (311) 
nan

>  <Num_Resolved_Atoms>  (311) 
nan

>  <Num_Not_Resolved_Atoms>  (311) 
nan

$$$$
CHEMBL4795345
     RDKit          3D

  0  0  0  0  0  0  0  0  0  0999 V3000
M  V30 BEGIN CTAB
M  V30 COUNTS 48 51 0 0 0
M  V30 BEGIN ATOM
M  V30 1 O -1.866453 -2.652278 0.837158 0
M  V30 2 C -1.730957 -2.950251 2.024476 0
M  V30 3 N -0.619937 -2.452489 2.731539 0
M  V30 4 C 0.437181 -1.617925 2.294583 0
M  V30 5 C 1.426849 -1.281705 3.190704 0
M  V30 6 C 2.491810 -0.478893 2.853655 0
M  V30 7 C 2.603811 0.025647 1.578667 0
M  V30 8 N 3.728729 0.840343 1.289654 0
M  V30 9 C 4.114454 1.550044 0.122254 0
M  V30 10 N 4.821363 1.073334 -0.930385 0
M  V30 11 N 5.120464 1.846798 -1.956886 0
M  V30 12 C 4.749735 3.141276 -2.027031 0
M  V30 13 O 5.075235 3.825422 -3.049937 0
M  V30 14 C 4.018438 3.679461 -0.964988 0
M  V30 15 C 3.646744 5.013357 -1.052518 0
M  V30 16 C 2.930946 5.513546 0.007501 0
M  V30 17 C 2.582312 4.772979 1.107988 0
M  V30 18 C 2.972233 3.455322 1.151347 0
M  V30 19 C 3.698197 2.869869 0.123039 0
M  V30 20 C 1.640454 -0.279790 0.643496 0
M  V30 21 C 0.594146 -1.089046 1.034908 0
M  V30 22 N -2.737175 -3.789423 2.574551 0
M  V30 23 C -3.706368 -4.095635 1.548821 0
M  V30 24 C -3.349361 -5.230025 0.869534 0
M  V30 25 C -4.154435 -5.698596 -0.166187 0
M  V30 26 C -5.300399 -4.967673 -0.454509 0
M  V30 27 C -5.670203 -3.818364 0.227452 0
M  V30 28 C -6.896295 -3.042617 -0.087636 0
M  V30 29 F -7.207883 -2.243575 0.982508 0
M  V30 30 F -6.736682 -2.254501 -1.203429 0
M  V30 31 F -7.946889 -3.927015 -0.306243 0
M  V30 32 C -4.845998 -3.391271 1.243154 0
M  V30 33 H -0.624882 -2.782052 3.735696 0
M  V30 34 H 1.375587 -1.662740 4.219536 0
M  V30 35 H 3.221286 -0.262272 3.606357 0
M  V30 36 H 4.477053 1.026618 1.979834 0
M  V30 37 H 5.673481 1.425957 -2.753336 0
M  V30 38 H 3.892235 5.641791 -1.890119 0
M  V30 39 H 2.591303 6.555523 0.032850 0
M  V30 40 H 2.016605 5.198328 1.927398 0
M  V30 41 H 2.725634 2.821626 1.995003 0
M  V30 42 H 1.709043 0.105450 -0.361473 0
M  V30 43 H -0.124805 -1.299857 0.287898 0
M  V30 44 H -2.648125 -4.061586 3.598025 0
M  V30 45 H -2.471497 -5.858620 1.031741 0
M  V30 46 H -3.957832 -6.574702 -0.754077 0
M  V30 47 H -5.976117 -5.272007 -1.249026 0
M  V30 48 H -5.019012 -2.514994 1.851178 0
M  V30 END ATOM
M  V30 BEGIN BOND
M  V30 1 2 1 2
M  V30 2 1 2 3
M  V30 3 1 3 4
M  V30 4 2 4 5
M  V30 5 1 5 6
M  V30 6 2 6 7
M  V30 7 1 7 8
M  V30 8 1 8 9
M  V30 9 2 9 10
M  V30 10 1 10 11
M  V30 11 1 11 12
M  V30 12 2 12 13
M  V30 13 1 12 14
M  V30 14 2 14 15
M  V30 15 1 15 16
M  V30 16 2 16 17
M  V30 17 1 17 18
M  V30 18 2 18 19
M  V30 19 1 7 20
M  V30 20 2 20 21
M  V30 21 1 2 22
M  V30 22 1 22 23
M  V30 23 2 23 24
M  V30 24 1 24 25
M  V30 25 2 25 26
M  V30 26 1 26 27
M  V30 27 1 27 28
M  V30 28 1 28 29
M  V30 29 1 28 30
M  V30 30 1 28 31
M  V30 31 2 27 32
M  V30 32 1 21 4
M  V30 33 1 32 23
M  V30 34 1 19 9
M  V30 35 1 19 14
M  V30 36 1 3 33
M  V30 37 1 5 34
M  V30 38 1 6 35
M  V30 39 1 8 36
M  V30 40 1 11 37
M  V30 41 1 15 38
M  V30 42 1 16 39
M  V30 43 1 17 40
M  V30 44 1 18 41
M  V30 45 1 20 42
M  V30 46 1 21 43
M  V30 47 1 22 44
M  V30 48 1 24 45
M  V30 49 1 25 46
M  V30 50 1 26 47
M  V30 51 1 32 48
M  V30 END BOND
M  V30 END CTAB
M  END
>  <Dataset>  (312) 
ChEMBL_Kinases

>  <Ligand_Instance>  (312) 
nan

>  <PDB_ID>  (312) 
nan

>  <Standardized_SMILES>  (312) 
O=C(Nc1ccc(Nc2n[nH]c(=O)c3ccccc23)cc1)Nc1cccc(C(F)(F)F)c1

>  <Name>  (312) 
nan

>  <Pocket>  (312) 
nan

>  <ATP_Site>  (312) 
nan

>  <Peripheral>  (312) 
nan

>  <Num_H_Atoms_ProtBoundConf>  (312) 
nan

>  <Num_Resolved_Atoms>  (312) 
nan

>  <Num_Not_Resolved_Atoms>  (312) 
nan

$$$$
CHEMBL4795375
     RDKit          3D

  0  0  0  0  0  0  0  0  0  0999 V3000
M  V30 BEGIN CTAB
M  V30 COUNTS 70 74 0 0 0
M  V30 BEGIN ATOM
M  V30 1 C 7.794989 -2.132382 2.198467 0
M  V30 2 O 6.898808 -1.287659 2.888309 0
M  V30 3 C 6.147152 -0.284255 2.249788 0
M  V30 4 O 6.425976 -0.305318 1.033446 0
M  V30 5 C 5.294493 0.461485 3.149754 0
M  V30 6 S 5.065973 0.292296 4.910552 0
M  V30 7 C 3.867725 1.614202 5.058268 0
M  V30 8 C 3.712469 2.102602 3.773907 0
M  V30 9 C 4.462078 1.490057 2.800041 0
M  V30 10 N 4.327653 1.969075 1.452002 0
M  V30 11 C 3.469190 3.037254 1.067584 0
M  V30 12 N 2.198761 2.823241 0.709629 0
M  V30 13 C 1.309590 3.746582 0.333677 0
M  V30 14 N -0.036514 3.484566 -0.040168 0
M  V30 15 C -0.742406 2.254274 -0.110156 0
M  V30 16 C -0.160849 1.034370 0.196765 0
M  V30 17 C -0.825444 -0.172974 0.135452 0
M  V30 18 C -2.147434 -0.206119 -0.249947 0
M  V30 19 N -2.889694 -1.433071 -0.332479 0
M  V30 20 C -2.103442 -2.602872 0.007537 0
M  V30 21 C -3.009632 -3.806537 -0.125088 0
M  V30 22 C -3.819354 -3.619828 -1.379722 0
M  V30 23 N -4.261284 -4.841366 -1.990349 0
M  V30 24 C -3.113009 -5.625697 -2.343771 0
M  V30 25 C -3.124550 -6.900794 -1.576155 0
M  V30 26 C -4.276198 -6.790426 -0.609345 0
M  V30 27 C -5.098105 -5.639631 -1.134009 0
M  V30 28 C -4.919426 -2.648443 -1.051914 0
M  V30 29 C -4.291733 -1.316594 -0.736846 0
M  V30 30 C -2.731820 1.004029 -0.556537 0
M  V30 31 C -2.083566 2.214141 -0.500552 0
M  V30 32 O -2.726553 3.401217 -0.822030 0
M  V30 33 C -4.080059 3.341588 -1.213892 0
M  V30 34 N 1.738205 5.008762 0.315149 0
M  V30 35 C 2.991562 5.325665 0.655800 0
M  V30 36 C 3.877804 4.344601 1.037793 0
M  V30 37 N 5.211914 4.666263 1.402412 0 CHG=1 VAL=4
M  V30 38 O 5.435458 5.800179 1.868688 0
M  V30 39 O 6.356526 3.943021 1.340992 0 CHG=-1 VAL=1
M  V30 40 H 8.024284 -2.988960 2.862949 0
M  V30 41 H 7.294940 -2.551013 1.282517 0
M  V30 42 H 8.748571 -1.624452 1.966550 0
M  V30 43 H 3.429168 1.879824 6.007505 0
M  V30 44 H 3.009269 2.917436 3.700423 0
M  V30 45 H 4.873185 1.536800 0.678141 0
M  V30 46 H -0.626046 4.328488 -0.315041 0
M  V30 47 H 0.857076 0.955579 0.505145 0
M  V30 48 H -0.325666 -1.103080 0.386395 0
M  V30 49 H -1.660532 -2.524549 1.020697 0
M  V30 50 H -1.298976 -2.728468 -0.771476 0
M  V30 51 H -3.703830 -3.787554 0.765613 0
M  V30 52 H -2.394399 -4.726803 -0.111350 0
M  V30 53 H -3.180560 -3.102531 -2.155355 0
M  V30 54 H -3.078867 -5.790879 -3.450487 0
M  V30 55 H -2.169019 -5.088605 -2.110166 0
M  V30 56 H -3.248112 -7.751127 -2.298696 0
M  V30 57 H -2.163155 -7.098298 -1.054839 0
M  V30 58 H -4.797513 -7.753235 -0.584762 0
M  V30 59 H -3.911851 -6.539698 0.418071 0
M  V30 60 H -5.901391 -6.087384 -1.756191 0
M  V30 61 H -5.592707 -5.076918 -0.324836 0
M  V30 62 H -5.441010 -3.046803 -0.143816 0
M  V30 63 H -5.626511 -2.612658 -1.888188 0
M  V30 64 H -4.870085 -0.698395 -0.030634 0
M  V30 65 H -4.298226 -0.738159 -1.701466 0
M  V30 66 H -3.780910 1.047517 -0.869472 0
M  V30 67 H -4.520430 4.360930 -1.307740 0
M  V30 68 H -4.186549 2.802826 -2.166824 0
M  V30 69 H -4.622909 2.851058 -0.374499 0
M  V30 70 H 3.299282 6.359284 0.627285 0
M  V30 END ATOM
M  V30 BEGIN BOND
M  V30 1 1 1 2
M  V30 2 1 2 3
M  V30 3 2 3 4
M  V30 4 1 3 5
M  V30 5 1 5 6
M  V30 6 1 6 7
M  V30 7 2 7 8
M  V30 8 1 8 9
M  V30 9 1 9 10
M  V30 10 1 10 11
M  V30 11 2 11 12
M  V30 12 1 12 13
M  V30 13 1 13 14
M  V30 14 1 14 15
M  V30 15 2 15 16
M  V30 16 1 16 17
M  V30 17 2 17 18
M  V30 18 1 18 19
M  V30 19 1 19 20
M  V30 20 1 20 21
M  V30 21 1 21 22
M  V30 22 1 22 23
M  V30 23 1 23 24
M  V30 24 1 24 25
M  V30 25 1 25 26
M  V30 26 1 26 27
M  V30 27 1 22 28
M  V30 28 1 28 29
M  V30 29 1 18 30
M  V30 30 2 30 31
M  V30 31 1 31 32
M  V30 32 1 32 33
M  V30 33 2 13 34
M  V30 34 1 34 35
M  V30 35 2 35 36
M  V30 36 1 36 37
M  V30 37 2 37 38
M  V30 38 1 37 39
M  V30 39 2 9 5
M  V30 40 1 36 11
M  V30 41 1 31 15
M  V30 42 1 29 19
M  V30 43 1 27 23
M  V30 44 1 1 40
M  V30 45 1 1 41
M  V30 46 1 1 42
M  V30 47 1 7 43
M  V30 48 1 8 44
M  V30 49 1 10 45
M  V30 50 1 14 46
M  V30 51 1 16 47
M  V30 52 1 17 48
M  V30 53 1 20 49
M  V30 54 1 20 50
M  V30 55 1 21 51
M  V30 56 1 21 52
M  V30 57 1 22 53
M  V30 58 1 24 54
M  V30 59 1 24 55
M  V30 60 1 25 56
M  V30 61 1 25 57
M  V30 62 1 26 58
M  V30 63 1 26 59
M  V30 64 1 27 60
M  V30 65 1 27 61
M  V30 66 1 28 62
M  V30 67 1 28 63
M  V30 68 1 29 64
M  V30 69 1 29 65
M  V30 70 1 30 66
M  V30 71 1 33 67
M  V30 72 1 33 68
M  V30 73 1 33 69
M  V30 74 1 35 70
M  V30 END BOND
M  V30 END CTAB
M  END
>  <Dataset>  (313) 
ChEMBL_Kinases

>  <Ligand_Instance>  (313) 
nan

>  <PDB_ID>  (313) 
nan

>  <Standardized_SMILES>  (313) 
COC(=O)c1sccc1Nc1nc(Nc2ccc(N3CCC(N4CCCC4)CC3)cc2OC)ncc1[N+](=O)[O-]

>  <Name>  (313) 
nan

>  <Pocket>  (313) 
nan

>  <ATP_Site>  (313) 
nan

>  <Peripheral>  (313) 
nan

>  <Num_H_Atoms_ProtBoundConf>  (313) 
nan

>  <Num_Resolved_Atoms>  (313) 
nan

>  <Num_Not_Resolved_Atoms>  (313) 
nan

$$$$
CHEMBL4795383
     RDKit          3D

  0  0  0  0  0  0  0  0  0  0999 V3000
M  V30 BEGIN CTAB
M  V30 COUNTS 40 42 0 0 0
M  V30 BEGIN ATOM
M  V30 1 C 0.719649 -5.542627 -0.662746 0
M  V30 2 C 0.528115 -4.440551 0.389953 0
M  V30 3 C -0.406139 -5.009434 1.429963 0
M  V30 4 N 0.023799 -3.282953 -0.292966 0
M  V30 5 C 0.641887 -1.979663 -0.479683 0
M  V30 6 O 1.724872 -2.186369 0.129923 0
M  V30 7 C -0.321260 -1.175521 -1.255327 0
M  V30 8 C 0.069101 0.211167 -1.577338 0
M  V30 9 N 0.296347 0.997208 -0.390161 0
M  V30 10 C 1.445678 1.224447 0.258521 0
M  V30 11 O 2.474210 0.718989 -0.216597 0
M  V30 12 C 1.546761 1.972252 1.395125 0
M  V30 13 C 2.780104 2.144921 1.987124 0
M  V30 14 C 2.800653 2.905107 3.120165 0
M  V30 15 C 1.680928 3.494965 3.690032 0
M  V30 16 C 0.466499 3.279937 3.040363 0
M  V30 17 C 0.392589 2.523372 1.898155 0
M  V30 18 N -0.765969 2.313295 1.271035 0
M  V30 19 C -1.999157 2.738447 1.565055 0
M  V30 20 S -2.614105 3.655190 2.756207 0
M  V30 21 N -2.824455 2.263040 0.635445 0
M  V30 22 N -2.104563 1.558619 -0.212421 0
M  V30 23 C -0.791736 1.571328 0.164266 0
M  V30 24 H -0.221186 -6.081508 -0.813316 0
M  V30 25 H 1.546510 -6.218327 -0.331807 0
M  V30 26 H 0.976476 -5.035738 -1.616766 0
M  V30 27 H 1.514794 -4.245425 0.813107 0
M  V30 28 H 0.127010 -5.176930 2.395067 0
M  V30 29 H -1.270588 -4.353797 1.643153 0
M  V30 30 H -0.832783 -5.991782 1.138393 0
M  V30 31 H -0.929494 -3.652390 -0.620862 0
M  V30 32 H -0.568109 -1.699197 -2.212848 0
M  V30 33 H -1.282492 -1.114483 -0.657813 0
M  V30 34 H -0.687056 0.678954 -2.244696 0
M  V30 35 H 1.010082 0.165914 -2.179987 0
M  V30 36 H 3.685469 1.696645 1.568866 0
M  V30 37 H 3.766390 3.050292 3.598512 0
M  V30 38 H 1.820699 4.080475 4.596481 0
M  V30 39 H -0.349287 3.761846 3.532934 0
M  V30 40 H -3.866764 2.331843 0.453317 0
M  V30 END ATOM
M  V30 BEGIN BOND
M  V30 1 1 1 2
M  V30 2 1 2 3
M  V30 3 1 2 4
M  V30 4 1 4 5
M  V30 5 2 5 6
M  V30 6 1 5 7
M  V30 7 1 7 8
M  V30 8 1 8 9
M  V30 9 1 9 10
M  V30 10 2 10 11
M  V30 11 1 10 12
M  V30 12 2 12 13
M  V30 13 1 13 14
M  V30 14 2 14 15
M  V30 15 1 15 16
M  V30 16 2 16 17
M  V30 17 1 17 18
M  V30 18 1 18 19
M  V30 19 2 19 20
M  V30 20 1 19 21
M  V30 21 1 21 22
M  V30 22 2 22 23
M  V30 23 1 23 9
M  V30 24 1 17 12
M  V30 25 1 23 18
M  V30 26 1 1 24
M  V30 27 1 1 25
M  V30 28 1 1 26
M  V30 29 1 2 27
M  V30 30 1 3 28
M  V30 31 1 3 29
M  V30 32 1 3 30
M  V30 33 1 4 31
M  V30 34 1 7 32
M  V30 35 1 7 33
M  V30 36 1 8 34
M  V30 37 1 8 35
M  V30 38 1 13 36
M  V30 39 1 14 37
M  V30 40 1 15 38
M  V30 41 1 16 39
M  V30 42 1 21 40
M  V30 END BOND
M  V30 END CTAB
M  END
>  <Dataset>  (314) 
ChEMBL_Kinases

>  <Ligand_Instance>  (314) 
nan

>  <PDB_ID>  (314) 
nan

>  <Standardized_SMILES>  (314) 
CC(C)NC(=O)CCn1c(=O)c2ccccc2n2c(=S)[nH]nc12

>  <Name>  (314) 
nan

>  <Pocket>  (314) 
nan

>  <ATP_Site>  (314) 
nan

>  <Peripheral>  (314) 
nan

>  <Num_H_Atoms_ProtBoundConf>  (314) 
nan

>  <Num_Resolved_Atoms>  (314) 
nan

>  <Num_Not_Resolved_Atoms>  (314) 
nan

$$$$
CHEMBL4795392
     RDKit          3D

  0  0  0  0  0  0  0  0  0  0999 V3000
M  V30 BEGIN CTAB
M  V30 COUNTS 61 67 0 0 0
M  V30 BEGIN ATOM
M  V30 1 C -0.445625 -2.005656 3.813779 0
M  V30 2 C -0.651044 -2.884075 2.613731 0 CFG=1
M  V30 3 N 0.433027 -3.064608 1.731965 0
M  V30 4 C 1.621112 -3.636517 2.230856 0
M  V30 5 C 2.866903 -3.275130 1.496782 0
M  V30 6 N 2.497027 -2.635710 0.247683 0
M  V30 7 C 3.144871 -1.425005 -0.164396 0
M  V30 8 C 2.201168 -0.403609 -0.295809 0
M  V30 9 C 2.578819 0.873283 -0.685803 0
M  V30 10 C 3.923478 1.101346 -0.940574 0
M  V30 11 C 4.070194 2.422121 -1.308394 0
M  V30 12 N 2.844739 2.955235 -1.270613 0
M  V30 13 N 1.959388 2.046179 -0.903746 0
M  V30 14 C 0.561118 2.248832 -0.754021 0
M  V30 15 C 0.027520 3.070273 0.215778 0
M  V30 16 N -1.316582 3.049527 0.095579 0
M  V30 17 N -1.680418 2.264012 -0.893348 0
M  V30 18 C -2.922754 1.991204 -1.312852 0
M  V30 19 C -3.858945 2.829694 -2.096832 0
M  V30 20 C -4.600518 1.540923 -1.884470 0
M  V30 21 C -4.084231 1.585915 -0.475515 0
M  V30 22 C -3.298071 0.856942 -2.200799 0
M  V30 23 C -0.537566 1.752299 -1.440403 0
M  V30 24 C 4.839001 0.096655 -0.809481 0
M  V30 25 C 4.473946 -1.164938 -0.425322 0
M  V30 26 Cl 5.498762 -2.570487 -0.204898 0
M  V30 27 C 1.457184 -3.391772 -0.414597 0
M  V30 28 C 0.145228 -3.238642 0.357121 0
M  V30 29 C -1.167793 -4.243618 3.094351 0
M  V30 30 C -2.558141 -3.655033 2.975961 0
M  V30 31 C -1.973672 -2.654310 1.971674 0 CFG=1
M  V30 32 O -2.555635 -1.414868 2.185039 0
M  V30 33 H 0.084251 -2.552821 4.637592 0
M  V30 34 H 0.019516 -1.028563 3.575806 0
M  V30 35 H -1.449032 -1.760373 4.220960 0
M  V30 36 H 1.504738 -4.744207 2.208901 0
M  V30 37 H 1.709478 -3.371628 3.307829 0
M  V30 38 H 3.476807 -4.157929 1.305465 0
M  V30 39 H 3.490404 -2.591465 2.110569 0
M  V30 40 H 1.129718 -0.470906 -0.122909 0
M  V30 41 H 5.007178 2.872632 -1.562405 0
M  V30 42 H 0.566517 3.653857 0.969574 0
M  V30 43 H -4.325805 3.650673 -1.502703 0
M  V30 44 H -3.579888 3.097728 -3.119922 0
M  V30 45 H -5.527579 1.305294 -2.206913 0
M  V30 46 H -3.961030 0.601068 -0.008501 0
M  V30 47 H -4.451251 2.414201 0.156408 0
M  V30 48 H -3.048027 1.002223 -3.273360 0
M  V30 49 H -3.140153 -0.147846 -1.791877 0
M  V30 50 H -0.412740 1.062827 -2.277289 0
M  V30 51 H 5.900275 0.207809 -0.992417 0
M  V30 52 H 1.729785 -4.443719 -0.464392 0
M  V30 53 H 1.330266 -3.045399 -1.465521 0
M  V30 54 H -0.404326 -4.192585 0.216730 0
M  V30 55 H -0.477828 -2.436631 -0.087698 0
M  V30 56 H -1.025935 -5.030558 2.315020 0
M  V30 57 H -0.833749 -4.518730 4.100569 0
M  V30 58 H -2.858109 -3.209250 3.946791 0
M  V30 59 H -3.297065 -4.347146 2.512102 0
M  V30 60 H -2.122202 -3.049328 0.951812 0
M  V30 61 H -3.554520 -1.450305 2.226787 0
M  V30 END ATOM
M  V30 BEGIN BOND
M  V30 1 1 2 1 CFG=1
M  V30 2 1 2 3
M  V30 3 1 3 4
M  V30 4 1 4 5
M  V30 5 1 5 6
M  V30 6 1 6 7
M  V30 7 2 7 8
M  V30 8 1 8 9
M  V30 9 2 9 10
M  V30 10 1 10 11
M  V30 11 2 11 12
M  V30 12 1 12 13
M  V30 13 1 13 14
M  V30 14 1 14 15
M  V30 15 2 15 16
M  V30 16 1 16 17
M  V30 17 1 17 18
M  V30 18 1 18 19
M  V30 19 1 19 20
M  V30 20 1 20 21
M  V30 21 1 20 22
M  V30 22 1 17 23
M  V30 23 1 10 24
M  V30 24 2 24 25
M  V30 25 1 25 26
M  V30 26 1 6 27
M  V30 27 1 27 28
M  V30 28 1 2 29
M  V30 29 1 29 30
M  V30 30 1 30 31
M  V30 31 1 31 32
M  V30 32 1 31 2
M  V30 33 1 28 3
M  V30 34 1 25 7
M  V30 35 1 13 9
M  V30 36 2 23 14
M  V30 37 1 21 18
M  V30 38 1 22 18
M  V30 39 1 1 33
M  V30 40 1 1 34
M  V30 41 1 1 35
M  V30 42 1 4 36
M  V30 43 1 4 37
M  V30 44 1 5 38
M  V30 45 1 5 39
M  V30 46 1 8 40
M  V30 47 1 11 41
M  V30 48 1 15 42
M  V30 49 1 19 43
M  V30 50 1 19 44
M  V30 51 1 20 45
M  V30 52 1 21 46
M  V30 53 1 21 47
M  V30 54 1 22 48
M  V30 55 1 22 49
M  V30 56 1 23 50
M  V30 57 1 24 51
M  V30 58 1 27 52
M  V30 59 1 27 53
M  V30 60 1 28 54
M  V30 61 1 28 55
M  V30 62 1 29 56
M  V30 63 1 29 57
M  V30 64 1 30 58
M  V30 65 1 30 59
M  V30 66 1 31 60 CFG=3
M  V30 67 1 32 61
M  V30 END BOND
M  V30 END CTAB
M  END
>  <Dataset>  (315) 
ChEMBL_Kinases

>  <Ligand_Instance>  (315) 
nan

>  <PDB_ID>  (315) 
nan

>  <Standardized_SMILES>  (315) 
C[C@@]1(N2CCN(c3cc4c(cnn4-c4cnn(C56CC(C5)C6)c4)cc3Cl)CC2)CC[C@H]1O

>  <Name>  (315) 
nan

>  <Pocket>  (315) 
nan

>  <ATP_Site>  (315) 
nan

>  <Peripheral>  (315) 
nan

>  <Num_H_Atoms_ProtBoundConf>  (315) 
nan

>  <Num_Resolved_Atoms>  (315) 
nan

>  <Num_Not_Resolved_Atoms>  (315) 
nan

$$$$
CHEMBL4795459
     RDKit          3D

  0  0  0  0  0  0  0  0  0  0999 V3000
M  V30 BEGIN CTAB
M  V30 COUNTS 30 33 0 0 0
M  V30 BEGIN ATOM
M  V30 1 Cl -2.400005 -3.149043 3.176086 0
M  V30 2 C -0.671642 -3.434990 3.015362 0
M  V30 3 C -0.124835 -4.432673 3.810029 0
M  V30 4 C 1.242037 -4.705662 3.726587 0
M  V30 5 N 2.000512 -3.976245 2.859300 0
M  V30 6 C 1.470272 -3.008982 2.088889 0
M  V30 7 C 2.258221 -2.269122 1.204574 0
M  V30 8 C 1.674539 -1.284223 0.430927 0
M  V30 9 C 0.312455 -1.004024 0.506469 0
M  V30 10 C -0.357682 0.021248 -0.283444 0
M  V30 11 C -1.556830 -0.190969 -0.922612 0
M  V30 12 N -1.909507 0.955108 -1.567756 0
M  V30 13 C -0.942691 1.883672 -1.338965 0
M  V30 14 N -0.740992 3.175820 -1.706768 0
M  V30 15 C 0.338056 3.874475 -1.323678 0
M  V30 16 C 1.310339 3.307870 -0.526000 0
M  V30 17 C 1.162290 1.998240 -0.119395 0
M  V30 18 C 0.025245 1.315859 -0.543439 0
M  V30 19 C -0.500050 -1.723857 1.378189 0
M  V30 20 C 0.121714 -2.697846 2.132252 0
M  V30 21 H -0.752929 -5.007728 4.501227 0
M  V30 22 H 1.717533 -5.472834 4.324047 0
M  V30 23 H 3.323063 -2.465731 1.124607 0
M  V30 24 H 2.273410 -0.688233 -0.272568 0
M  V30 25 H -2.218437 -1.061325 -0.990314 0
M  V30 26 H -2.763489 1.163183 -2.158822 0
M  V30 27 H 0.413986 4.906633 -1.668585 0
M  V30 28 H 2.140117 3.952852 -0.272160 0
M  V30 29 H 1.930429 1.564324 0.505615 0
M  V30 30 H -1.572256 -1.562939 1.493250 0
M  V30 END ATOM
M  V30 BEGIN BOND
M  V30 1 1 1 2
M  V30 2 2 2 3
M  V30 3 1 3 4
M  V30 4 2 4 5
M  V30 5 1 5 6
M  V30 6 2 6 7
M  V30 7 1 7 8
M  V30 8 2 8 9
M  V30 9 1 9 10
M  V30 10 2 10 11
M  V30 11 1 11 12
M  V30 12 1 12 13
M  V30 13 2 13 14
M  V30 14 1 14 15
M  V30 15 2 15 16
M  V30 16 1 16 17
M  V30 17 2 17 18
M  V30 18 1 9 19
M  V30 19 2 19 20
M  V30 20 1 20 2
M  V30 21 1 20 6
M  V30 22 1 18 10
M  V30 23 1 18 13
M  V30 24 1 3 21
M  V30 25 1 4 22
M  V30 26 1 7 23
M  V30 27 1 8 24
M  V30 28 1 11 25
M  V30 29 1 12 26
M  V30 30 1 15 27
M  V30 31 1 16 28
M  V30 32 1 17 29
M  V30 33 1 19 30
M  V30 END BOND
M  V30 END CTAB
M  END
>  <Dataset>  (316) 
ChEMBL_Kinases

>  <Ligand_Instance>  (316) 
nan

>  <PDB_ID>  (316) 
nan

>  <Standardized_SMILES>  (316) 
Clc1ccnc2ccc(-c3c[nH]c4ncccc34)cc12

>  <Name>  (316) 
nan

>  <Pocket>  (316) 
nan

>  <ATP_Site>  (316) 
nan

>  <Peripheral>  (316) 
nan

>  <Num_H_Atoms_ProtBoundConf>  (316) 
nan

>  <Num_Resolved_Atoms>  (316) 
nan

>  <Num_Not_Resolved_Atoms>  (316) 
nan

$$$$
CHEMBL4795075
     RDKit          3D

  0  0  0  0  0  0  0  0  0  0999 V3000
M  V30 BEGIN CTAB
M  V30 COUNTS 53 57 0 0 0
M  V30 BEGIN ATOM
M  V30 1 C -2.816038 -4.805550 1.796293 0
M  V30 2 C -1.629709 -4.879472 2.736560 0
M  V30 3 O -0.559386 -5.568675 2.102895 0
M  V30 4 C 0.011854 -5.112677 0.922332 0
M  V30 5 N -0.405348 -3.998587 0.302715 0
M  V30 6 C 0.137766 -3.540326 -0.846650 0
M  V30 7 N -0.479520 -2.343481 -1.285366 0
M  V30 8 C 0.110394 -1.119385 -0.877494 0
M  V30 9 C 1.246890 -1.077340 -0.107238 0
M  V30 10 C 1.858644 0.081723 0.308812 0
M  V30 11 C 1.315368 1.293823 -0.057490 0
M  V30 12 C 1.779366 2.649702 0.262282 0
M  V30 13 O 2.731941 2.778848 -0.556726 0
M  V30 14 N 1.034431 3.295616 1.317345 0
M  V30 15 C -0.098389 2.987937 2.212407 0
M  V30 16 C -0.379888 4.439154 2.195140 0
M  V30 17 C -1.381591 5.001300 1.302596 0
M  V30 18 O -1.786560 5.871596 2.309021 0
M  V30 19 C -1.121653 5.090320 3.249645 0
M  V30 20 C 1.072811 4.608500 1.989132 0
M  V30 21 C 0.157534 1.283447 -0.842084 0
M  V30 22 C -0.449110 0.092063 -1.254798 0
M  V30 23 O -1.609735 0.134238 -2.041077 0
M  V30 24 C -2.170031 1.399463 -2.418656 0
M  V30 25 N 1.149508 -4.263392 -1.371796 0
M  V30 26 C 1.588894 -5.378797 -0.778103 0
M  V30 27 N 2.561596 -6.226618 -1.124525 0
M  V30 28 C 2.702062 -7.230963 -0.269636 0
M  V30 29 C 1.748359 -7.030205 0.716962 0
M  V30 30 C 1.055218 -5.881464 0.405017 0
M  V30 31 H -2.609085 -5.444151 0.915993 0
M  V30 32 H -3.714710 -5.231542 2.293442 0
M  V30 33 H -3.012557 -3.750405 1.484382 0
M  V30 34 H -1.911832 -5.419664 3.647021 0
M  V30 35 H -1.348814 -3.853200 3.009944 0
M  V30 36 H -1.323662 -2.354556 -1.876531 0
M  V30 37 H 1.699698 -2.007442 0.197870 0
M  V30 38 H 2.749404 0.172606 0.911422 0
M  V30 39 H 0.328019 2.607766 3.163500 0
M  V30 40 H -0.835947 2.304753 1.787823 0
M  V30 41 H -2.216747 4.260360 1.122052 0
M  V30 42 H -1.049396 5.500510 0.364918 0
M  V30 43 H -1.856106 4.454729 3.793440 0
M  V30 44 H -0.528481 5.681455 3.981575 0
M  V30 45 H 1.646346 4.501010 2.934554 0
M  V30 46 H 1.383997 5.445244 1.364224 0
M  V30 47 H -0.338158 2.186622 -1.176947 0
M  V30 48 H -2.341672 1.970265 -1.489716 0
M  V30 49 H -3.145506 1.225733 -2.894324 0
M  V30 50 H -1.470280 1.961956 -3.046903 0
M  V30 51 H 3.166970 -6.121786 -1.988318 0
M  V30 52 H 3.406673 -8.040294 -0.319589 0
M  V30 53 H 1.532235 -7.614745 1.590256 0
M  V30 END ATOM
M  V30 BEGIN BOND
M  V30 1 1 1 2
M  V30 2 1 2 3
M  V30 3 1 3 4
M  V30 4 2 4 5
M  V30 5 1 5 6
M  V30 6 1 6 7
M  V30 7 1 7 8
M  V30 8 2 8 9
M  V30 9 1 9 10
M  V30 10 2 10 11
M  V30 11 1 11 12
M  V30 12 2 12 13
M  V30 13 1 12 14
M  V30 14 1 14 15
M  V30 15 1 15 16
M  V30 16 1 16 17
M  V30 17 1 17 18
M  V30 18 1 18 19
M  V30 19 1 16 20
M  V30 20 1 11 21
M  V30 21 2 21 22
M  V30 22 1 22 23
M  V30 23 1 23 24
M  V30 24 2 6 25
M  V30 25 1 25 26
M  V30 26 1 26 27
M  V30 27 1 27 28
M  V30 28 2 28 29
M  V30 29 1 29 30
M  V30 30 1 30 4
M  V30 31 1 22 8
M  V30 32 2 30 26
M  V30 33 1 20 14
M  V30 34 1 19 16
M  V30 35 1 1 31
M  V30 36 1 1 32
M  V30 37 1 1 33
M  V30 38 1 2 34
M  V30 39 1 2 35
M  V30 40 1 7 36
M  V30 41 1 9 37
M  V30 42 1 10 38
M  V30 43 1 15 39
M  V30 44 1 15 40
M  V30 45 1 17 41
M  V30 46 1 17 42
M  V30 47 1 19 43
M  V30 48 1 19 44
M  V30 49 1 20 45
M  V30 50 1 20 46
M  V30 51 1 21 47
M  V30 52 1 24 48
M  V30 53 1 24 49
M  V30 54 1 24 50
M  V30 55 1 27 51
M  V30 56 1 28 52
M  V30 57 1 29 53
M  V30 END BOND
M  V30 END CTAB
M  END
>  <Dataset>  (317) 
ChEMBL_Kinases

>  <Ligand_Instance>  (317) 
nan

>  <PDB_ID>  (317) 
nan

>  <Standardized_SMILES>  (317) 
CCOc1nc(Nc2ccc(C(=O)N3CC4(COC4)C3)cc2OC)nc2[nH]ccc12

>  <Name>  (317) 
nan

>  <Pocket>  (317) 
nan

>  <ATP_Site>  (317) 
nan

>  <Peripheral>  (317) 
nan

>  <Num_H_Atoms_ProtBoundConf>  (317) 
nan

>  <Num_Resolved_Atoms>  (317) 
nan

>  <Num_Not_Resolved_Atoms>  (317) 
nan

$$$$
CHEMBL4794691
     RDKit          3D

  0  0  0  0  0  0  0  0  0  0999 V3000
M  V30 BEGIN CTAB
M  V30 COUNTS 81 85 0 0 0
M  V30 BEGIN ATOM
M  V30 1 N -0.154354 -5.847026 -6.869473 0
M  V30 2 C 0.742013 -5.468712 -5.825203 0
M  V30 3 C 0.539288 -4.269652 -5.130949 0
M  V30 4 C -0.429079 -3.198313 -5.192008 0
M  V30 5 O -1.536458 -3.432788 -5.733326 0
M  V30 6 N -0.041846 -1.951088 -4.629700 0
M  V30 7 C -0.804159 -0.732975 -4.517059 0
M  V30 8 C -1.544335 -0.664336 -3.230717 0
M  V30 9 C -0.743049 -0.000004 -2.270906 0
M  V30 10 C -1.110836 0.231241 -0.944301 0
M  V30 11 C -2.351190 -0.215694 -0.512623 0
M  V30 12 C -2.805774 -0.008120 0.846904 0
M  V30 13 O -3.669246 -0.555741 1.540587 0
M  V30 14 N -2.133659 1.046526 1.568474 0
M  V30 15 C -2.199826 1.602053 2.892511 0 CFG=1
M  V30 16 C -0.832569 1.936478 3.440391 0
M  V30 17 C 0.098587 0.779566 3.544771 0
M  V30 18 C 1.466542 1.177587 4.054080 0
M  V30 19 C 2.118208 2.192674 3.143673 0
M  V30 20 C 3.558845 2.341447 3.562035 0
M  V30 21 C 3.567885 2.954738 4.944213 0
M  V30 22 C 2.888235 1.981779 5.877186 0
M  V30 23 C 1.469955 1.651193 5.462589 0
M  V30 24 C -3.015323 2.880645 2.929476 0
M  V30 25 O -2.995820 3.334771 4.127369 0
M  V30 26 N -3.754802 3.635130 1.948898 0
M  V30 27 C -4.273669 4.737269 2.682301 0
M  V30 28 C -5.485345 4.685252 3.340118 0
M  V30 29 C -5.890432 5.813434 4.020161 0
M  V30 30 Cl -7.398752 5.899208 4.897680 0
M  V30 31 C -5.072135 6.917017 4.004616 0
M  V30 32 C -3.854423 7.006754 3.357757 0
M  V30 33 Cl -2.849250 8.441781 3.377484 0
M  V30 34 C -3.440855 5.860737 2.665073 0
M  V30 35 C -3.110895 -0.853361 -1.454965 0
M  V30 36 C -2.759976 -1.082926 -2.751041 0
M  V30 37 C 1.625925 -4.329558 -4.235921 0
M  V30 38 N 2.309981 -5.455295 -4.462279 0
M  V30 39 N 1.792864 -6.171152 -5.427092 0
M  V30 40 C 2.217430 -7.414910 -5.974432 0
M  V30 41 C 1.735680 -8.666343 -5.730114 0
M  V30 42 C 2.264693 -9.777182 -6.352232 0
M  V30 43 C 3.316142 -9.685165 -7.262391 0
M  V30 44 C 3.773319 -8.412646 -7.481715 0
M  V30 45 C 3.272080 -7.275116 -6.878730 0
M  V30 46 H -1.014261 -6.445342 -6.992190 0
M  V30 47 H 0.038077 -5.455803 -7.823997 0
M  V30 48 H 0.934812 -1.857337 -4.212005 0
M  V30 49 H -0.165432 0.125790 -4.637568 0
M  V30 50 H -1.550630 -0.659779 -5.371179 0
M  V30 51 H 0.267374 0.401350 -2.494587 0
M  V30 52 H -0.418150 0.740371 -0.288042 0
M  V30 53 H -1.405158 1.633095 1.104119 0
M  V30 54 H -2.784820 0.914678 3.530915 0
M  V30 55 H -0.418760 2.772656 2.820917 0
M  V30 56 H -0.990551 2.399691 4.440136 0
M  V30 57 H 0.172338 0.203399 2.607051 0
M  V30 58 H -0.304629 0.060849 4.295608 0
M  V30 59 H 2.110642 0.257058 3.987438 0
M  V30 60 H 1.658459 3.200860 3.207933 0
M  V30 61 H 2.121245 1.802848 2.095044 0
M  V30 62 H 4.145862 2.960545 2.842331 0
M  V30 63 H 4.011995 1.331774 3.639901 0
M  V30 64 H 3.136711 3.963690 4.957037 0
M  V30 65 H 4.617982 3.038705 5.293613 0
M  V30 66 H 3.526669 1.078897 5.940087 0
M  V30 67 H 2.854926 2.424402 6.897130 0
M  V30 68 H 0.856743 2.566388 5.582301 0
M  V30 69 H 1.142449 0.825457 6.130462 0
M  V30 70 H -3.655628 3.118471 1.049209 0
M  V30 71 H -6.088813 3.808788 3.328016 0
M  V30 72 H -5.340356 7.839555 4.527516 0
M  V30 73 H -2.495724 5.885040 2.144961 0
M  V30 74 H -4.084459 -1.209486 -1.147002 0
M  V30 75 H -3.299354 -1.562997 -3.525647 0
M  V30 76 H 1.928166 -3.640317 -3.474013 0
M  V30 77 H 0.922564 -8.705374 -5.020695 0
M  V30 78 H 1.858833 -10.751572 -6.133855 0
M  V30 79 H 3.764178 -10.511509 -7.770919 0
M  V30 80 H 4.599792 -8.260716 -8.184808 0
M  V30 81 H 3.716377 -6.305334 -7.130468 0
M  V30 END ATOM
M  V30 BEGIN BOND
M  V30 1 1 1 2
M  V30 2 2 2 3
M  V30 3 1 3 4
M  V30 4 2 4 5
M  V30 5 1 4 6
M  V30 6 1 6 7
M  V30 7 1 7 8
M  V30 8 2 8 9
M  V30 9 1 9 10
M  V30 10 2 10 11
M  V30 11 1 11 12
M  V30 12 2 12 13
M  V30 13 1 12 14
M  V30 14 1 14 15
M  V30 15 1 15 16
M  V30 16 1 16 17
M  V30 17 1 17 18
M  V30 18 1 18 19
M  V30 19 1 19 20
M  V30 20 1 20 21
M  V30 21 1 21 22
M  V30 22 1 22 23
M  V30 23 1 15 24
M  V30 24 2 24 25
M  V30 25 1 24 26
M  V30 26 1 26 27
M  V30 27 2 27 28
M  V30 28 1 28 29
M  V30 29 1 29 30
M  V30 30 2 29 31
M  V30 31 1 31 32
M  V30 32 1 32 33
M  V30 33 2 32 34
M  V30 34 1 11 35
M  V30 35 2 35 36
M  V30 36 1 3 37
M  V30 37 2 37 38
M  V30 38 1 38 39
M  V30 39 1 39 40
M  V30 40 2 40 41
M  V30 41 1 41 42
M  V30 42 2 42 43
M  V30 43 1 43 44
M  V30 44 2 44 45
M  V30 45 1 39 2
M  V30 46 1 45 40
M  V30 47 1 36 8
M  V30 48 1 23 18
M  V30 49 1 34 27
M  V30 50 1 1 46
M  V30 51 1 1 47
M  V30 52 1 6 48
M  V30 53 1 7 49
M  V30 54 1 7 50
M  V30 55 1 9 51
M  V30 56 1 10 52
M  V30 57 1 14 53
M  V30 58 1 15 54 CFG=1
M  V30 59 1 16 55
M  V30 60 1 16 56
M  V30 61 1 17 57
M  V30 62 1 17 58
M  V30 63 1 18 59
M  V30 64 1 19 60
M  V30 65 1 19 61
M  V30 66 1 20 62
M  V30 67 1 20 63
M  V30 68 1 21 64
M  V30 69 1 21 65
M  V30 70 1 22 66
M  V30 71 1 22 67
M  V30 72 1 23 68
M  V30 73 1 23 69
M  V30 74 1 26 70
M  V30 75 1 28 71
M  V30 76 1 31 72
M  V30 77 1 34 73
M  V30 78 1 35 74
M  V30 79 1 36 75
M  V30 80 1 37 76
M  V30 81 1 41 77
M  V30 82 1 42 78
M  V30 83 1 43 79
M  V30 84 1 44 80
M  V30 85 1 45 81
M  V30 END BOND
M  V30 END CTAB
M  END
>  <Dataset>  (318) 
ChEMBL_Kinases

>  <Ligand_Instance>  (318) 
nan

>  <PDB_ID>  (318) 
nan

>  <Standardized_SMILES>  (318) 
Nc1c(C(=O)NCc2ccc(C(=O)N[C@@H](CCC3CCCCC3)C(=O)Nc3cc(Cl)cc(Cl)c3)cc2)cnn1-c1ccccc1

>  <Name>  (318) 
nan

>  <Pocket>  (318) 
nan

>  <ATP_Site>  (318) 
nan

>  <Peripheral>  (318) 
nan

>  <Num_H_Atoms_ProtBoundConf>  (318) 
nan

>  <Num_Resolved_Atoms>  (318) 
nan

>  <Num_Not_Resolved_Atoms>  (318) 
nan

$$$$
CHEMBL4794701
     RDKit          3D

  0  0  0  0  0  0  0  0  0  0999 V3000
M  V30 BEGIN CTAB
M  V30 COUNTS 48 51 0 0 0
M  V30 BEGIN ATOM
M  V30 1 C 0.107893 -5.605884 2.318750 0
M  V30 2 O -0.664289 -5.028007 1.308087 0
M  V30 3 C -0.232918 -4.114410 0.377361 0
M  V30 4 C 1.067939 -3.660291 0.353428 0
M  V30 5 C 1.503027 -2.743436 -0.579741 0
M  V30 6 C 0.610646 -2.266516 -1.516875 0
M  V30 7 N 0.814325 -1.328209 -2.569429 0
M  V30 8 N 1.167646 -1.488531 -3.832029 0
M  V30 9 N 1.238648 -0.332072 -4.460250 0
M  V30 10 C 0.924897 0.654159 -3.604905 0
M  V30 11 C 0.812289 2.032816 -3.620773 0
M  V30 12 N 0.459301 2.690670 -2.516187 0
M  V30 13 C 0.193683 2.076560 -1.335553 0
M  V30 14 N -0.182302 2.791219 -0.163418 0
M  V30 15 C -0.442090 2.030352 1.041783 0 CFG=1
M  V30 16 C 0.735906 1.239855 1.498828 0
M  V30 17 C 0.731498 1.098060 2.983084 0
M  V30 18 C -0.638400 0.869118 3.575691 0 CFG=2
M  V30 19 C -1.126171 -0.514634 3.309731 0
M  V30 20 N -0.229946 -1.483057 3.882135 0
M  V30 21 O -2.030294 -1.181907 2.771492 0
M  V30 22 C -1.618251 1.927714 3.172658 0
M  V30 23 C -0.970686 2.872699 2.156438 0
M  V30 24 N 0.311273 0.738829 -1.351098 0
M  V30 25 C 0.662151 0.012964 -2.426408 0
M  V30 26 C -0.711850 -2.721115 -1.501095 0
M  V30 27 C -1.135320 -3.647850 -0.551289 0
M  V30 28 H 1.020953 -6.080189 1.922846 0
M  V30 29 H -0.503747 -6.396097 2.802252 0
M  V30 30 H 0.319090 -4.872842 3.151878 0
M  V30 31 H 1.806215 -3.999425 1.061682 0
M  V30 32 H 2.486606 -2.322374 -0.691834 0
M  V30 33 H 1.024969 2.526665 -4.566806 0
M  V30 34 H -0.249965 3.833297 -0.240300 0
M  V30 35 H -1.253217 1.300594 0.759513 0
M  V30 36 H 1.693945 1.727112 1.198838 0
M  V30 37 H 0.767656 0.218490 1.052629 0
M  V30 38 H 1.144870 2.010929 3.463301 0
M  V30 39 H 1.350970 0.222592 3.301348 0
M  V30 40 H -0.519035 0.945316 4.686193 0
M  V30 41 H 0.714276 -1.805209 3.618359 0
M  V30 42 H -0.418175 -2.053094 4.722228 0
M  V30 43 H -2.557913 1.498515 2.731093 0
M  V30 44 H -1.930221 2.571702 4.016791 0
M  V30 45 H -0.141250 3.385000 2.676302 0
M  V30 46 H -1.712732 3.627423 1.824149 0
M  V30 47 H -1.504568 -2.413208 -2.193569 0
M  V30 48 H -2.153308 -4.011505 -0.522586 0
M  V30 END ATOM
M  V30 BEGIN BOND
M  V30 1 1 1 2
M  V30 2 1 2 3
M  V30 3 2 3 4
M  V30 4 1 4 5
M  V30 5 2 5 6
M  V30 6 1 6 7
M  V30 7 1 7 8
M  V30 8 2 8 9
M  V30 9 1 9 10
M  V30 10 2 10 11
M  V30 11 1 11 12
M  V30 12 2 12 13
M  V30 13 1 13 14
M  V30 14 1 14 15
M  V30 15 1 15 16
M  V30 16 1 16 17
M  V30 17 1 17 18
M  V30 18 1 18 19
M  V30 19 1 19 20
M  V30 20 2 19 21
M  V30 21 1 18 22
M  V30 22 1 22 23
M  V30 23 1 13 24
M  V30 24 2 24 25
M  V30 25 1 6 26
M  V30 26 2 26 27
M  V30 27 1 27 3
M  V30 28 1 25 7
M  V30 29 1 25 10
M  V30 30 1 23 15
M  V30 31 1 1 28
M  V30 32 1 1 29
M  V30 33 1 1 30
M  V30 34 1 4 31
M  V30 35 1 5 32
M  V30 36 1 11 33
M  V30 37 1 14 34
M  V30 38 1 15 35 CFG=3
M  V30 39 1 16 36
M  V30 40 1 16 37
M  V30 41 1 17 38
M  V30 42 1 17 39
M  V30 43 1 18 40 CFG=1
M  V30 44 1 20 41
M  V30 45 1 20 42
M  V30 46 1 22 43
M  V30 47 1 22 44
M  V30 48 1 23 45
M  V30 49 1 23 46
M  V30 50 1 26 47
M  V30 51 1 27 48
M  V30 END BOND
M  V30 END CTAB
M  END
>  <Dataset>  (319) 
ChEMBL_Kinases

>  <Ligand_Instance>  (319) 
nan

>  <PDB_ID>  (319) 
nan

>  <Standardized_SMILES>  (319) 
COc1ccc(-n2nnc3cnc(N[C@H]4CC[C@H](C(N)=O)CC4)nc32)cc1

>  <Name>  (319) 
nan

>  <Pocket>  (319) 
nan

>  <ATP_Site>  (319) 
nan

>  <Peripheral>  (319) 
nan

>  <Num_H_Atoms_ProtBoundConf>  (319) 
nan

>  <Num_Resolved_Atoms>  (319) 
nan

>  <Num_Not_Resolved_Atoms>  (319) 
nan

$$$$
CHEMBL4103716
     RDKit          3D

  0  0  0  0  0  0  0  0  0  0999 V3000
M  V30 BEGIN CTAB
M  V30 COUNTS 35 38 0 0 0
M  V30 BEGIN ATOM
M  V30 1 C -0.336886 -6.160115 3.816280 0
M  V30 2 C 0.028456 -4.883177 3.164858 0
M  V30 3 N 1.187405 -4.210532 3.241548 0
M  V30 4 N 1.059282 -3.138453 2.505892 0
M  V30 5 C -0.167964 -3.114566 1.957768 0
M  V30 6 C -0.684233 -2.076758 1.075283 0
M  V30 7 C 0.103350 -0.996515 0.732165 0
M  V30 8 C -0.441940 -0.029948 -0.117701 0
M  V30 9 C 0.475167 1.082703 -0.425845 0
M  V30 10 C 1.838454 0.889508 -0.496008 0
M  V30 11 C 2.643415 1.991829 -0.793389 0
M  V30 12 C 1.999663 3.194550 -0.994089 0
M  V30 13 N 2.571991 4.384938 -1.291295 0
M  V30 14 C 1.626054 5.322130 -1.411710 0
M  V30 15 C 0.373454 4.744157 -1.188140 0
M  V30 16 C 0.637319 3.400168 -0.926583 0
M  V30 17 C -0.157646 2.288175 -0.628019 0
M  V30 18 C -1.723316 -0.099835 -0.629844 0
M  V30 19 N -2.472362 -1.172281 -0.274974 0
M  V30 20 C -1.956277 -2.107051 0.542069 0
M  V30 21 N -2.828853 -3.174252 0.840441 0
M  V30 22 O -0.775584 -4.189578 2.375715 0
M  V30 23 H -0.603126 -6.879917 3.021874 0
M  V30 24 H -1.231876 -6.037924 4.461720 0
M  V30 25 H 0.501411 -6.513412 4.422673 0
M  V30 26 H 1.105665 -0.929564 1.124862 0
M  V30 27 H 2.277418 -0.093934 -0.324486 0
M  V30 28 H 3.718101 1.902177 -0.861762 0
M  V30 29 H 3.572557 4.689592 -1.437119 0
M  V30 30 H 1.596457 6.388001 -1.633770 0
M  V30 31 H -0.643667 5.148803 -1.190560 0
M  V30 32 H -1.207510 2.456561 -0.578112 0
M  V30 33 H -2.066871 0.706705 -1.290712 0
M  V30 34 H -3.066022 -3.829510 1.616636 0
M  V30 35 H -3.057324 -3.824130 1.623625 0
M  V30 END ATOM
M  V30 BEGIN BOND
M  V30 1 1 1 2
M  V30 2 2 2 3
M  V30 3 1 3 4
M  V30 4 2 4 5
M  V30 5 1 5 6
M  V30 6 2 6 7
M  V30 7 1 7 8
M  V30 8 1 8 9
M  V30 9 2 9 10
M  V30 10 1 10 11
M  V30 11 2 11 12
M  V30 12 1 12 13
M  V30 13 1 13 14
M  V30 14 2 14 15
M  V30 15 1 15 16
M  V30 16 2 16 17
M  V30 17 2 8 18
M  V30 18 1 18 19
M  V30 19 2 19 20
M  V30 20 1 20 21
M  V30 21 1 5 22
M  V30 22 1 22 2
M  V30 23 1 20 6
M  V30 24 1 17 9
M  V30 25 1 16 12
M  V30 26 1 1 23
M  V30 27 1 1 24
M  V30 28 1 1 25
M  V30 29 1 7 26
M  V30 30 1 10 27
M  V30 31 1 11 28
M  V30 32 1 13 29
M  V30 33 1 14 30
M  V30 34 1 15 31
M  V30 35 1 17 32
M  V30 36 1 18 33
M  V30 37 1 21 34
M  V30 38 1 21 35
M  V30 END BOND
M  V30 END CTAB
M  END
>  <Dataset>  (320) 
ChEMBL_Kinases

>  <Ligand_Instance>  (320) 
nan

>  <PDB_ID>  (320) 
nan

>  <Standardized_SMILES>  (320) 
Cc1nnc(-c2cc(-c3ccc4[nH]ccc4c3)cnc2N)o1

>  <Name>  (320) 
nan

>  <Pocket>  (320) 
nan

>  <ATP_Site>  (320) 
nan

>  <Peripheral>  (320) 
nan

>  <Num_H_Atoms_ProtBoundConf>  (320) 
nan

>  <Num_Resolved_Atoms>  (320) 
nan

>  <Num_Not_Resolved_Atoms>  (320) 
nan

$$$$
CHEMBL4103678
     RDKit          3D

  0  0  0  0  0  0  0  0  0  0999 V3000
M  V30 BEGIN CTAB
M  V30 COUNTS 53 58 0 0 0
M  V30 BEGIN ATOM
M  V30 1 Cl -1.259424 0.542352 6.455189 0
M  V30 2 C -0.519593 0.391405 4.884371 0
M  V30 3 C 0.847106 0.573718 4.681145 0
M  V30 4 C 1.331368 0.432251 3.403180 0
M  V30 5 C 0.557168 0.124970 2.324362 0
M  V30 6 C 1.011476 -0.023615 1.030016 0
M  V30 7 N 2.410811 0.165969 0.844959 0
M  V30 8 C 2.773965 1.516452 0.578833 0
M  V30 9 C 1.822812 2.531115 0.518932 0
M  V30 10 C 2.155578 3.861092 0.260979 0
M  V30 11 C 3.479282 4.189511 0.056087 0
M  V30 12 N 4.023631 5.390772 -0.204544 0
M  V30 13 N 5.351286 5.227731 -0.328461 0
M  V30 14 C 5.612865 3.906187 -0.139549 0
M  V30 15 C 4.443570 3.216013 0.107578 0
M  V30 16 C 4.072965 1.922727 0.363857 0
M  V30 17 N 0.157703 -0.328658 0.036766 0
M  V30 18 C -1.176905 -0.500339 0.272962 0
M  V30 19 N -2.069829 -0.827995 -0.809666 0
M  V30 20 C -3.462264 -0.993173 -0.509674 0
M  V30 21 C -3.804745 -2.208423 0.304122 0
M  V30 22 C -3.479177 -3.470327 -0.361137 0
M  V30 23 C -4.481861 -4.149383 -1.070480 0
M  V30 24 N -4.040039 -5.263128 -1.654570 0
M  V30 25 C -2.741654 -5.385982 -1.371341 0
M  V30 26 C -1.735199 -6.287005 -1.654731 0
M  V30 27 C -0.441830 -6.098614 -1.165460 0
M  V30 28 C -0.140572 -4.998270 -0.381484 0
M  V30 29 C -1.141600 -4.096471 -0.096436 0
M  V30 30 C -2.410632 -4.299924 -0.589557 0
M  V30 31 N -1.628079 -0.357276 1.531760 0
M  V30 32 C -0.790841 -0.052255 2.540370 0
M  V30 33 C -1.327406 0.079105 3.807880 0
M  V30 34 H 1.480279 0.817952 5.523175 0
M  V30 35 H 2.398875 0.574847 3.245914 0
M  V30 36 H 3.188374 -0.522299 0.875043 0
M  V30 37 H 0.779356 2.311635 0.673917 0
M  V30 38 H 1.349285 4.609607 0.229056 0
M  V30 39 H 3.500045 6.295667 -0.294647 0
M  V30 40 H 6.600876 3.449879 -0.176508 0
M  V30 41 H 4.857986 1.200066 0.394305 0
M  V30 42 H -1.658053 -0.929685 -1.762560 0
M  V30 43 H -4.060028 -1.070165 -1.459669 0
M  V30 44 H -3.769152 -0.076459 0.050898 0
M  V30 45 H -4.903275 -2.132880 0.528550 0
M  V30 46 H -3.321986 -2.169917 1.315196 0
M  V30 47 H -5.541745 -3.885340 -1.197213 0
M  V30 48 H -4.528422 -5.961188 -2.232976 0
M  V30 49 H -2.029734 -7.136328 -2.277390 0
M  V30 50 H 0.238636 -6.882102 -1.468123 0
M  V30 51 H 0.877907 -4.910203 -0.033862 0
M  V30 52 H -0.879130 -3.260136 0.524809 0
M  V30 53 H -2.393961 -0.067466 3.943426 0
M  V30 END ATOM
M  V30 BEGIN BOND
M  V30 1 1 1 2
M  V30 2 2 2 3
M  V30 3 1 3 4
M  V30 4 2 4 5
M  V30 5 1 5 6
M  V30 6 1 6 7
M  V30 7 1 7 8
M  V30 8 2 8 9
M  V30 9 1 9 10
M  V30 10 2 10 11
M  V30 11 1 11 12
M  V30 12 1 12 13
M  V30 13 2 13 14
M  V30 14 1 14 15
M  V30 15 2 15 16
M  V30 16 2 6 17
M  V30 17 1 17 18
M  V30 18 1 18 19
M  V30 19 1 19 20
M  V30 20 1 20 21
M  V30 21 1 21 22
M  V30 22 2 22 23
M  V30 23 1 23 24
M  V30 24 1 24 25
M  V30 25 2 25 26
M  V30 26 1 26 27
M  V30 27 2 27 28
M  V30 28 1 28 29
M  V30 29 2 29 30
M  V30 30 2 18 31
M  V30 31 1 31 32
M  V30 32 2 32 33
M  V30 33 1 33 2
M  V30 34 1 32 5
M  V30 35 1 16 8
M  V30 36 1 30 22
M  V30 37 1 15 11
M  V30 38 1 30 25
M  V30 39 1 3 34
M  V30 40 1 4 35
M  V30 41 1 7 36
M  V30 42 1 9 37
M  V30 43 1 10 38
M  V30 44 1 12 39
M  V30 45 1 14 40
M  V30 46 1 16 41
M  V30 47 1 19 42
M  V30 48 1 20 43
M  V30 49 1 20 44
M  V30 50 1 21 45
M  V30 51 1 21 46
M  V30 52 1 23 47
M  V30 53 1 24 48
M  V30 54 1 26 49
M  V30 55 1 27 50
M  V30 56 1 28 51
M  V30 57 1 29 52
M  V30 58 1 33 53
M  V30 END BOND
M  V30 END CTAB
M  END
>  <Dataset>  (321) 
ChEMBL_Kinases

>  <Ligand_Instance>  (321) 
nan

>  <PDB_ID>  (321) 
nan

>  <Standardized_SMILES>  (321) 
Clc1ccc2c(Nc3ccc4[nH]ncc4c3)nc(NCCc3c[nH]c4ccccc34)nc2c1

>  <Name>  (321) 
nan

>  <Pocket>  (321) 
nan

>  <ATP_Site>  (321) 
nan

>  <Peripheral>  (321) 
nan

>  <Num_H_Atoms_ProtBoundConf>  (321) 
nan

>  <Num_Resolved_Atoms>  (321) 
nan

>  <Num_Not_Resolved_Atoms>  (321) 
nan

$$$$
CHEMBL4103654
     RDKit          3D

  0  0  0  0  0  0  0  0  0  0999 V3000
M  V30 BEGIN CTAB
M  V30 COUNTS 36 38 0 0 0
M  V30 BEGIN ATOM
M  V30 1 C 1.485957 -5.593226 4.410988 0
M  V30 2 O 2.095248 -5.774843 3.126229 0
M  V30 3 C 2.089743 -4.717574 2.195300 0
M  V30 4 C 2.703858 -5.010425 0.997598 0
M  V30 5 C 2.709567 -3.987679 0.071997 0
M  V30 6 C 2.109593 -2.779492 0.419463 0
M  V30 7 S 1.929304 -1.240113 -0.525530 0
M  V30 8 C 1.073967 -0.373468 0.733234 0
M  V30 9 C 0.595151 1.030502 0.615834 0
M  V30 10 O 0.004250 1.519776 1.583347 0
M  V30 11 N 0.833444 1.732602 -0.579631 0
M  V30 12 C 0.428407 3.094570 -0.841547 0
M  V30 13 C -1.026695 3.083128 -1.136989 0
M  V30 14 C -1.446046 2.885803 -2.440099 0
M  V30 15 C -2.753337 2.850272 -2.891568 0
M  V30 16 C -3.688961 3.038252 -1.885440 0
M  V30 17 C -3.388696 3.242815 -0.557960 0
M  V30 18 C -2.050030 3.257173 -0.233368 0
M  V30 19 C 0.972443 -1.234789 1.742691 0
M  V30 20 C 1.497052 -2.483723 1.610694 0
M  V30 21 C 1.499493 -3.527438 2.535607 0
M  V30 22 H 2.016109 -4.711997 4.847216 0
M  V30 23 H 0.413962 -5.293870 4.297832 0
M  V30 24 H 1.605216 -6.486391 5.025866 0
M  V30 25 H 3.163710 -5.945926 0.739080 0
M  V30 26 H 3.153176 -4.065795 -0.911345 0
M  V30 27 H 1.346710 1.214789 -1.334472 0
M  V30 28 H 0.997938 3.462049 -1.708115 0
M  V30 29 H 0.672402 3.774926 0.002617 0
M  V30 30 H -0.670862 2.740037 -3.207201 0
M  V30 31 H -2.991171 2.690464 -3.929462 0
M  V30 32 H -4.751841 3.023092 -2.167976 0
M  V30 33 H -4.145662 3.385968 0.199825 0
M  V30 34 H -1.780481 3.419838 0.799361 0
M  V30 35 H 0.458212 -0.888101 2.655106 0
M  V30 36 H 1.052533 -3.458078 3.535801 0
M  V30 END ATOM
M  V30 BEGIN BOND
M  V30 1 1 1 2
M  V30 2 1 2 3
M  V30 3 2 3 4
M  V30 4 1 4 5
M  V30 5 2 5 6
M  V30 6 1 6 7
M  V30 7 1 7 8
M  V30 8 1 8 9
M  V30 9 2 9 10
M  V30 10 1 9 11
M  V30 11 1 11 12
M  V30 12 1 12 13
M  V30 13 2 13 14
M  V30 14 1 14 15
M  V30 15 2 15 16
M  V30 16 1 16 17
M  V30 17 2 17 18
M  V30 18 2 8 19
M  V30 19 1 19 20
M  V30 20 2 20 21
M  V30 21 1 21 3
M  V30 22 1 20 6
M  V30 23 1 18 13
M  V30 24 1 1 22
M  V30 25 1 1 23
M  V30 26 1 1 24
M  V30 27 1 4 25
M  V30 28 1 5 26
M  V30 29 1 11 27
M  V30 30 1 12 28
M  V30 31 1 12 29
M  V30 32 1 14 30
M  V30 33 1 15 31
M  V30 34 1 16 32
M  V30 35 1 17 33
M  V30 36 1 18 34
M  V30 37 1 19 35
M  V30 38 1 21 36
M  V30 END BOND
M  V30 END CTAB
M  END
>  <Dataset>  (322) 
ChEMBL_Kinases

>  <Ligand_Instance>  (322) 
nan

>  <PDB_ID>  (322) 
nan

>  <Standardized_SMILES>  (322) 
COc1ccc2sc(C(=O)NCc3ccccc3)cc2c1

>  <Name>  (322) 
nan

>  <Pocket>  (322) 
nan

>  <ATP_Site>  (322) 
nan

>  <Peripheral>  (322) 
nan

>  <Num_H_Atoms_ProtBoundConf>  (322) 
nan

>  <Num_Resolved_Atoms>  (322) 
nan

>  <Num_Not_Resolved_Atoms>  (322) 
nan

$$$$
CHEMBL4103618
     RDKit          3D

  0  0  0  0  0  0  0  0  0  0999 V3000
M  V30 BEGIN CTAB
M  V30 COUNTS 33 35 0 0 0
M  V30 BEGIN ATOM
M  V30 1 F -1.122704 -2.434562 0.545653 0
M  V30 2 C 0.221948 -2.711127 0.531553 0
M  V30 3 C 0.698505 -2.869443 1.813577 0
M  V30 4 C 2.039508 -3.194081 1.987211 0
M  V30 5 C 2.843618 -3.345084 0.858366 0
M  V30 6 C 2.311698 -3.172853 -0.398740 0
M  V30 7 Cl 3.340480 -3.368352 -1.801679 0
M  V30 8 C 0.991275 -2.851543 -0.619069 0
M  V30 9 C 0.358339 -2.619583 -1.936714 0
M  V30 10 N 0.302534 -1.246309 -2.358648 0
M  V30 11 C -0.113433 -0.033950 -1.748289 0
M  V30 12 N -0.515999 0.274668 -0.515287 0
M  V30 13 C -0.833358 1.555233 -0.333304 0
M  V30 14 C -1.237206 1.645159 1.092697 0
M  V30 15 C -0.254972 2.139812 1.930960 0
M  V30 16 C -0.514313 2.252520 3.281543 0
M  V30 17 C -1.760082 1.853784 3.692620 0
M  V30 18 C -2.764532 1.357286 2.892139 0
M  V30 19 C -2.481454 1.251827 1.532260 0
M  V30 20 N -0.609002 2.067453 -1.545084 0
M  V30 21 N -0.189010 1.146796 -2.377699 0
M  V30 22 H 0.136876 -2.766815 2.717643 0
M  V30 23 H 2.452099 -3.327425 2.984052 0
M  V30 24 H 3.874959 -3.598502 1.037801 0
M  V30 25 H -0.718606 -2.955242 -1.827886 0
M  V30 26 H 0.827024 -3.255912 -2.708845 0
M  V30 27 H 0.653581 -1.140505 -3.360606 0
M  V30 28 H 0.735655 2.459541 1.625082 0
M  V30 29 H 0.158416 2.617824 4.034048 0
M  V30 30 H -2.022273 1.917466 4.749965 0
M  V30 31 H -3.738960 1.047295 3.237530 0
M  V30 32 H -3.148760 0.889110 0.789536 0
M  V30 33 H 0.019129 1.433445 -3.367280 0
M  V30 END ATOM
M  V30 BEGIN BOND
M  V30 1 1 1 2
M  V30 2 2 2 3
M  V30 3 1 3 4
M  V30 4 2 4 5
M  V30 5 1 5 6
M  V30 6 1 6 7
M  V30 7 2 6 8
M  V30 8 1 8 9
M  V30 9 1 9 10
M  V30 10 1 10 11
M  V30 11 2 11 12
M  V30 12 1 12 13
M  V30 13 1 13 14
M  V30 14 2 14 15
M  V30 15 1 15 16
M  V30 16 2 16 17
M  V30 17 1 17 18
M  V30 18 2 18 19
M  V30 19 2 13 20
M  V30 20 1 20 21
M  V30 21 1 8 2
M  V30 22 1 21 11
M  V30 23 1 19 14
M  V30 24 1 3 22
M  V30 25 1 4 23
M  V30 26 1 5 24
M  V30 27 1 9 25
M  V30 28 1 9 26
M  V30 29 1 10 27
M  V30 30 1 15 28
M  V30 31 1 16 29
M  V30 32 1 17 30
M  V30 33 1 18 31
M  V30 34 1 19 32
M  V30 35 1 21 33
M  V30 END BOND
M  V30 END CTAB
M  END
>  <Dataset>  (323) 
ChEMBL_Kinases

>  <Ligand_Instance>  (323) 
nan

>  <PDB_ID>  (323) 
nan

>  <Standardized_SMILES>  (323) 
Fc1cccc(Cl)c1CNc1nc(-c2ccccc2)n[nH]1

>  <Name>  (323) 
nan

>  <Pocket>  (323) 
nan

>  <ATP_Site>  (323) 
nan

>  <Peripheral>  (323) 
nan

>  <Num_H_Atoms_ProtBoundConf>  (323) 
nan

>  <Num_Resolved_Atoms>  (323) 
nan

>  <Num_Not_Resolved_Atoms>  (323) 
nan

$$$$
CHEMBL4103539
     RDKit          3D

  0  0  0  0  0  0  0  0  0  0999 V3000
M  V30 BEGIN CTAB
M  V30 COUNTS 74 79 0 0 0
M  V30 BEGIN ATOM
M  V30 1 O 3.988930 -4.486510 -2.122467 0
M  V30 2 C 2.885944 -4.212585 -1.610642 0
M  V30 3 N 2.202870 -5.265735 -0.938026 0
M  V30 4 C 2.783205 -6.564372 -0.870147 0
M  V30 5 C 3.045923 -7.252786 -2.159564 0
M  V30 6 N 1.888129 -7.523350 -2.972775 0
M  V30 7 C 2.418958 -8.229855 -4.156502 0
M  V30 8 C 1.356596 -8.449147 -5.202572 0
M  V30 9 O 0.968717 -7.169814 -5.636705 0
M  V30 10 C 0.305642 -6.585774 -4.581818 0
M  V30 11 C 1.320095 -6.304718 -3.473161 0
M  V30 12 C 2.394025 -2.845858 -1.744142 0
M  V30 13 C 3.174150 -1.958276 -2.434464 0
M  V30 14 C 2.763170 -0.631826 -2.594778 0
M  V30 15 C 1.565062 -0.162539 -2.069902 0
M  V30 16 C 0.846087 -1.124685 -1.391940 0
M  V30 17 C 1.176166 -2.449829 -1.187066 0
M  V30 18 C -0.462745 -0.928888 -0.722220 0
M  V30 19 O -1.145685 -1.910969 -0.271527 0
M  V30 20 C -1.118119 0.369524 -0.498919 0
M  V30 21 C -1.970267 0.346195 0.604764 0
M  V30 22 C -2.614838 1.531257 0.876164 0
M  V30 23 C -2.504968 2.712735 0.182977 0
M  V30 24 N -3.148036 3.918147 0.491804 0
M  V30 25 C -3.495341 4.573805 1.694948 0
M  V30 26 C -3.209715 4.139196 2.969112 0
M  V30 27 C -3.561553 4.773906 4.134425 0
M  V30 28 N -3.201786 4.217692 5.416851 0
M  V30 29 C -1.955889 4.629394 5.936380 0
M  V30 30 O -1.244664 5.425323 5.291284 0
M  V30 31 C -1.565356 4.107954 7.190013 0
M  V30 32 C -0.363971 4.348648 7.947547 0
M  V30 33 C -0.200818 3.725505 9.148251 0
M  V30 34 C -1.253745 2.844046 9.606497 0
M  V30 35 S -2.516619 2.936386 8.232816 0
M  V30 36 C -4.264486 5.954735 4.028667 0
M  V30 37 C -4.571702 6.427822 2.772100 0
M  V30 38 C -4.189197 5.742883 1.664399 0
M  V30 39 F -4.550002 6.308737 0.486604 0
M  V30 40 C -1.626873 2.632488 -0.906730 0
M  V30 41 C -0.928305 1.506285 -1.275619 0
M  V30 42 C -0.081542 1.704262 -2.459140 0
M  V30 43 C 1.321000 1.244149 -2.342963 0
M  V30 44 H 1.267662 -5.035186 -0.499999 0
M  V30 45 H 3.709499 -6.511669 -0.232458 0
M  V30 46 H 2.122046 -7.264657 -0.269151 0
M  V30 47 H 3.509050 -8.246155 -1.903136 0
M  V30 48 H 3.763092 -6.703936 -2.815314 0
M  V30 49 H 2.882000 -9.156963 -3.783095 0
M  V30 50 H 3.169054 -7.514188 -4.568504 0
M  V30 51 H 0.465664 -8.960154 -4.790646 0
M  V30 52 H 1.827507 -9.026668 -6.010165 0
M  V30 53 H -0.522600 -7.211022 -4.173629 0
M  V30 54 H -0.107591 -5.622100 -4.928760 0
M  V30 55 H 2.113907 -5.712648 -3.954919 0
M  V30 56 H 0.729795 -5.755642 -2.707478 0
M  V30 57 H 4.138682 -2.227647 -2.888049 0
M  V30 58 H 3.393757 0.078536 -3.151099 0
M  V30 59 H 0.566975 -3.130533 -0.651980 0
M  V30 60 H -2.071173 -0.555339 1.156501 0
M  V30 61 H -3.272111 1.463111 1.725777 0
M  V30 62 H -3.422664 4.420419 -0.406383 0
M  V30 63 H -2.650610 3.225533 3.100684 0
M  V30 64 H -3.841998 3.542575 5.925394 0
M  V30 65 H 0.339515 5.026823 7.494581 0
M  V30 66 H 0.688947 3.891721 9.728466 0
M  V30 67 H -1.118598 2.323501 10.607241 0
M  V30 68 H -4.545577 6.462220 4.949012 0
M  V30 69 H -5.124469 7.358286 2.730196 0
M  V30 70 H -1.466652 3.499365 -1.519958 0
M  V30 71 H -0.578509 1.266615 -3.373922 0
M  V30 72 H -0.050602 2.793912 -2.671237 0
M  V30 73 H 1.805939 1.464439 -3.337384 0
M  V30 74 H 1.857825 1.938687 -1.640936 0
M  V30 END ATOM
M  V30 BEGIN BOND
M  V30 1 2 1 2
M  V30 2 1 2 3
M  V30 3 1 3 4
M  V30 4 1 4 5
M  V30 5 1 5 6
M  V30 6 1 6 7
M  V30 7 1 7 8
M  V30 8 1 8 9
M  V30 9 1 9 10
M  V30 10 1 10 11
M  V30 11 1 2 12
M  V30 12 2 12 13
M  V30 13 1 13 14
M  V30 14 2 14 15
M  V30 15 1 15 16
M  V30 16 2 16 17
M  V30 17 1 16 18
M  V30 18 2 18 19
M  V30 19 1 18 20
M  V30 20 2 20 21
M  V30 21 1 21 22
M  V30 22 2 22 23
M  V30 23 1 23 24
M  V30 24 1 24 25
M  V30 25 2 25 26
M  V30 26 1 26 27
M  V30 27 1 27 28
M  V30 28 1 28 29
M  V30 29 2 29 30
M  V30 30 1 29 31
M  V30 31 2 31 32
M  V30 32 1 32 33
M  V30 33 2 33 34
M  V30 34 1 34 35
M  V30 35 2 27 36
M  V30 36 1 36 37
M  V30 37 2 37 38
M  V30 38 1 38 39
M  V30 39 1 23 40
M  V30 40 2 40 41
M  V30 41 1 41 42
M  V30 42 1 42 43
M  V30 43 1 11 6
M  V30 44 1 17 12
M  V30 45 1 41 20
M  V30 46 1 43 15
M  V30 47 1 38 25
M  V30 48 1 35 31
M  V30 49 1 3 44
M  V30 50 1 4 45
M  V30 51 1 4 46
M  V30 52 1 5 47
M  V30 53 1 5 48
M  V30 54 1 7 49
M  V30 55 1 7 50
M  V30 56 1 8 51
M  V30 57 1 8 52
M  V30 58 1 10 53
M  V30 59 1 10 54
M  V30 60 1 11 55
M  V30 61 1 11 56
M  V30 62 1 13 57
M  V30 63 1 14 58
M  V30 64 1 17 59
M  V30 65 1 21 60
M  V30 66 1 22 61
M  V30 67 1 24 62
M  V30 68 1 26 63
M  V30 69 1 28 64
M  V30 70 1 32 65
M  V30 71 1 33 66
M  V30 72 1 34 67
M  V30 73 1 36 68
M  V30 74 1 37 69
M  V30 75 1 40 70
M  V30 76 1 42 71
M  V30 77 1 42 72
M  V30 78 1 43 73
M  V30 79 1 43 74
M  V30 END BOND
M  V30 END CTAB
M  END
>  <Dataset>  (324) 
ChEMBL_Kinases

>  <Ligand_Instance>  (324) 
nan

>  <PDB_ID>  (324) 
nan

>  <Standardized_SMILES>  (324) 
O=C(NCCN1CCOCC1)c1ccc2c(c1)C(=O)c1ccc(Nc3cc(NC(=O)c4cccs4)ccc3F)cc1CC2

>  <Name>  (324) 
nan

>  <Pocket>  (324) 
nan

>  <ATP_Site>  (324) 
nan

>  <Peripheral>  (324) 
nan

>  <Num_H_Atoms_ProtBoundConf>  (324) 
nan

>  <Num_Resolved_Atoms>  (324) 
nan

>  <Num_Not_Resolved_Atoms>  (324) 
nan

$$$$
CHEMBL4103486
     RDKit          3D

  0  0  0  0  0  0  0  0  0  0999 V3000
M  V30 BEGIN CTAB
M  V30 COUNTS 61 65 0 0 0
M  V30 BEGIN ATOM
M  V30 1 C 8.377199 -1.224016 5.160066 0
M  V30 2 N 7.244526 -1.021289 4.310146 0
M  V30 3 C 7.380283 -0.042603 3.290684 0
M  V30 4 O 8.473755 0.538104 3.242530 0
M  V30 5 C 6.336920 0.301561 2.332614 0
M  V30 6 C 6.637943 1.275700 1.404733 0
M  V30 7 C 5.734171 1.695475 0.438148 0
M  V30 8 C 4.469489 1.095505 0.417710 0
M  V30 9 C 4.168351 0.106445 1.362243 0
M  V30 10 C 5.097060 -0.294410 2.321370 0
M  V30 11 C 2.924264 -0.642291 1.520559 0
M  V30 12 O 2.868211 -1.567702 2.384179 0
M  V30 13 C 1.689856 -0.410722 0.741436 0
M  V30 14 C 0.813407 -1.482319 0.854716 0
M  V30 15 C -0.392524 -1.425664 0.184877 0
M  V30 16 C -0.723127 -0.329229 -0.582044 0
M  V30 17 N -1.952570 -0.241925 -1.287965 0
M  V30 18 C -2.919539 -1.270904 -1.396681 0
M  V30 19 C -4.204311 -1.138734 -0.937133 0
M  V30 20 C -5.168121 -2.113006 -1.028514 0
M  V30 21 N -6.503698 -2.030503 -0.574839 0
M  V30 22 C -7.164351 -0.962874 0.058153 0
M  V30 23 O -6.545489 0.104276 0.287227 0
M  V30 24 C -8.577605 -0.978943 0.497432 0
M  V30 25 C -9.221263 -2.239077 0.937741 0
M  V30 26 C -9.509636 -1.744482 -0.432009 0
M  V30 27 C -4.758111 -3.278828 -1.631716 0
M  V30 28 C -3.474170 -3.442636 -2.104074 0
M  V30 29 C -2.530087 -2.448112 -1.998354 0
M  V30 30 C -1.181384 -2.740504 -2.550136 0
M  V30 31 C 0.169482 0.716080 -0.672413 0
M  V30 32 C 1.385561 0.705058 -0.021571 0
M  V30 33 C 2.196476 1.919366 -0.246019 0
M  V30 34 C 3.614958 1.631133 -0.653096 0
M  V30 35 H 8.586749 -0.260565 5.707955 0
M  V30 36 H 8.183662 -1.967158 5.973371 0
M  V30 37 H 9.287621 -1.469104 4.603216 0
M  V30 38 H 6.332320 -1.537282 4.385689 0
M  V30 39 H 7.607360 1.773022 1.378769 0
M  V30 40 H 5.998676 2.467883 -0.283880 0
M  V30 41 H 4.860974 -1.051834 3.041428 0
M  V30 42 H 1.086588 -2.340559 1.462794 0
M  V30 43 H -1.057293 -2.266228 0.289535 0
M  V30 44 H -2.224488 0.625335 -1.788376 0
M  V30 45 H -4.435597 -0.209417 -0.486590 0
M  V30 46 H -7.141915 -2.840097 -0.695545 0
M  V30 47 H -8.936374 -0.040532 0.979871 0
M  V30 48 H -10.058377 -2.146329 1.657201 0
M  V30 49 H -8.606321 -3.151608 1.096921 0
M  V30 50 H -10.486656 -1.247061 -0.623279 0
M  V30 51 H -9.093568 -2.272084 -1.293567 0
M  V30 52 H -5.474388 -4.107800 -1.742022 0
M  V30 53 H -3.242749 -4.392605 -2.563255 0
M  V30 54 H -0.590432 -3.436917 -1.894025 0
M  V30 55 H -0.569180 -1.831343 -2.679539 0
M  V30 56 H -1.265836 -3.170170 -3.589460 0
M  V30 57 H -0.077102 1.574168 -1.266114 0
M  V30 58 H 2.153650 2.521595 0.693158 0
M  V30 59 H 1.751107 2.558148 -1.031906 0
M  V30 60 H 4.059516 2.594156 -0.994690 0
M  V30 61 H 3.568314 0.945836 -1.532226 0
M  V30 END ATOM
M  V30 BEGIN BOND
M  V30 1 1 1 2
M  V30 2 1 2 3
M  V30 3 2 3 4
M  V30 4 1 3 5
M  V30 5 2 5 6
M  V30 6 1 6 7
M  V30 7 2 7 8
M  V30 8 1 8 9
M  V30 9 2 9 10
M  V30 10 1 9 11
M  V30 11 2 11 12
M  V30 12 1 11 13
M  V30 13 2 13 14
M  V30 14 1 14 15
M  V30 15 2 15 16
M  V30 16 1 16 17
M  V30 17 1 17 18
M  V30 18 2 18 19
M  V30 19 1 19 20
M  V30 20 1 20 21
M  V30 21 1 21 22
M  V30 22 2 22 23
M  V30 23 1 22 24
M  V30 24 1 24 25
M  V30 25 1 25 26
M  V30 26 2 20 27
M  V30 27 1 27 28
M  V30 28 2 28 29
M  V30 29 1 29 30
M  V30 30 1 16 31
M  V30 31 2 31 32
M  V30 32 1 32 33
M  V30 33 1 33 34
M  V30 34 1 10 5
M  V30 35 1 32 13
M  V30 36 1 34 8
M  V30 37 1 29 18
M  V30 38 1 26 24
M  V30 39 1 1 35
M  V30 40 1 1 36
M  V30 41 1 1 37
M  V30 42 1 2 38
M  V30 43 1 6 39
M  V30 44 1 7 40
M  V30 45 1 10 41
M  V30 46 1 14 42
M  V30 47 1 15 43
M  V30 48 1 17 44
M  V30 49 1 19 45
M  V30 50 1 21 46
M  V30 51 1 24 47
M  V30 52 1 25 48
M  V30 53 1 25 49
M  V30 54 1 26 50
M  V30 55 1 26 51
M  V30 56 1 27 52
M  V30 57 1 28 53
M  V30 58 1 30 54
M  V30 59 1 30 55
M  V30 60 1 30 56
M  V30 61 1 31 57
M  V30 62 1 33 58
M  V30 63 1 33 59
M  V30 64 1 34 60
M  V30 65 1 34 61
M  V30 END BOND
M  V30 END CTAB
M  END
>  <Dataset>  (325) 
ChEMBL_Kinases

>  <Ligand_Instance>  (325) 
nan

>  <PDB_ID>  (325) 
nan

>  <Standardized_SMILES>  (325) 
CNC(=O)c1ccc2c(c1)C(=O)c1ccc(Nc3cc(NC(=O)C4CC4)ccc3C)cc1CC2

>  <Name>  (325) 
nan

>  <Pocket>  (325) 
nan

>  <ATP_Site>  (325) 
nan

>  <Peripheral>  (325) 
nan

>  <Num_H_Atoms_ProtBoundConf>  (325) 
nan

>  <Num_Resolved_Atoms>  (325) 
nan

>  <Num_Not_Resolved_Atoms>  (325) 
nan

$$$$
CHEMBL4103448
     RDKit          3D

  0  0  0  0  0  0  0  0  0  0999 V3000
M  V30 BEGIN CTAB
M  V30 COUNTS 54 55 0 0 0
M  V30 BEGIN ATOM
M  V30 1 C 1.319377 1.168663 5.439468 0
M  V30 2 C 2.262455 0.428268 6.333717 0
M  V30 3 C 3.703269 0.550997 6.014107 0
M  V30 4 C 4.183366 0.035570 4.718922 0
M  V30 5 C 3.612641 0.618266 3.465562 0
M  V30 6 C 4.337882 -0.076165 2.308209 0
M  V30 7 C 3.828713 0.448698 0.974814 0
M  V30 8 C 2.374640 0.203848 0.817378 0
M  V30 9 O 1.371186 -0.306823 1.419700 0
M  V30 10 N 1.852740 0.687899 -0.429138 0
M  V30 11 N 0.468709 0.499354 -0.671825 0
M  V30 12 C 0.028990 -0.666903 -1.307235 0
M  V30 13 O 1.055635 -1.389520 -1.562542 0
M  V30 14 C -1.317952 -1.073363 -1.655848 0
M  V30 15 C -2.524193 -0.436014 -1.462152 0
M  V30 16 O -2.438942 0.783747 -0.836610 0
M  V30 17 C -3.737117 -0.955582 -1.853885 0
M  V30 18 C -4.848417 -0.183943 -1.584286 0
M  V30 19 C -6.064428 -0.710154 -1.982061 0
M  V30 20 Br -7.628904 0.334934 -1.623230 0
M  V30 21 C -6.169484 -1.938830 -2.614580 0
M  V30 22 C -5.013711 -2.653458 -2.850477 0
M  V30 23 C -3.775490 -2.182262 -2.477824 0
M  V30 24 N -2.608334 -2.816214 -2.673668 0
M  V30 25 C -2.632212 -4.113039 -3.322322 0
M  V30 26 C -2.524831 -3.873176 -4.813460 0
M  V30 27 C -1.420770 -2.316455 -2.294855 0
M  V30 28 O -0.374303 -3.012178 -2.535083 0
M  V30 29 H 0.547397 1.710535 6.085134 0
M  V30 30 H 1.850911 1.949882 4.870321 0
M  V30 31 H 0.746811 0.502719 4.788767 0
M  V30 32 H 1.920042 -0.654795 6.309934 0
M  V30 33 H 2.038710 0.748743 7.397574 0
M  V30 34 H 4.003183 1.622195 6.169395 0
M  V30 35 H 4.265565 0.024344 6.853322 0
M  V30 36 H 4.034282 -1.084220 4.742185 0
M  V30 37 H 5.298141 0.161716 4.636599 0
M  V30 38 H 2.540379 0.351404 3.331209 0
M  V30 39 H 3.829463 1.692856 3.388064 0
M  V30 40 H 4.045002 -1.144569 2.367301 0
M  V30 41 H 5.417201 -0.004555 2.405957 0
M  V30 42 H 4.336529 -0.098265 0.172939 0
M  V30 43 H 3.970909 1.553354 0.898203 0
M  V30 44 H 2.342959 1.182526 -1.233126 0
M  V30 45 H -0.255526 1.197893 -0.396524 0
M  V30 46 H -2.757060 1.611570 -1.342678 0
M  V30 47 H -4.787333 0.770319 -1.095367 0
M  V30 48 H -7.142389 -2.314477 -2.909969 0
M  V30 49 H -5.074025 -3.593883 -3.335322 0
M  V30 50 H -1.711633 -4.688909 -2.991258 0
M  V30 51 H -3.468831 -4.749898 -3.052849 0
M  V30 52 H -2.987680 -4.653312 -5.419340 0
M  V30 53 H -2.981158 -2.879800 -5.091237 0
M  V30 54 H -1.451404 -3.792993 -5.081329 0
M  V30 END ATOM
M  V30 BEGIN BOND
M  V30 1 1 1 2
M  V30 2 1 2 3
M  V30 3 1 3 4
M  V30 4 1 4 5
M  V30 5 1 5 6
M  V30 6 1 6 7
M  V30 7 1 7 8
M  V30 8 2 8 9
M  V30 9 1 8 10
M  V30 10 1 10 11
M  V30 11 1 11 12
M  V30 12 2 12 13
M  V30 13 1 12 14
M  V30 14 2 14 15
M  V30 15 1 15 16
M  V30 16 1 15 17
M  V30 17 2 17 18
M  V30 18 1 18 19
M  V30 19 1 19 20
M  V30 20 2 19 21
M  V30 21 1 21 22
M  V30 22 2 22 23
M  V30 23 1 23 24
M  V30 24 1 24 25
M  V30 25 1 25 26
M  V30 26 1 24 27
M  V30 27 2 27 28
M  V30 28 1 27 14
M  V30 29 1 23 17
M  V30 30 1 1 29
M  V30 31 1 1 30
M  V30 32 1 1 31
M  V30 33 1 2 32
M  V30 34 1 2 33
M  V30 35 1 3 34
M  V30 36 1 3 35
M  V30 37 1 4 36
M  V30 38 1 4 37
M  V30 39 1 5 38
M  V30 40 1 5 39
M  V30 41 1 6 40
M  V30 42 1 6 41
M  V30 43 1 7 42
M  V30 44 1 7 43
M  V30 45 1 10 44
M  V30 46 1 11 45
M  V30 47 1 16 46
M  V30 48 1 18 47
M  V30 49 1 21 48
M  V30 50 1 22 49
M  V30 51 1 25 50
M  V30 52 1 25 51
M  V30 53 1 26 52
M  V30 54 1 26 53
M  V30 55 1 26 54
M  V30 END BOND
M  V30 END CTAB
M  END
>  <Dataset>  (326) 
ChEMBL_Kinases

>  <Ligand_Instance>  (326) 
nan

>  <PDB_ID>  (326) 
nan

>  <Standardized_SMILES>  (326) 
CCCCCCCC(=O)NNC(=O)c1c(O)c2cc(Br)ccc2n(CC)c1=O

>  <Name>  (326) 
nan

>  <Pocket>  (326) 
nan

>  <ATP_Site>  (326) 
nan

>  <Peripheral>  (326) 
nan

>  <Num_H_Atoms_ProtBoundConf>  (326) 
nan

>  <Num_Resolved_Atoms>  (326) 
nan

>  <Num_Not_Resolved_Atoms>  (326) 
nan

$$$$
CHEMBL4103371
     RDKit          3D

  0  0  0  0  0  0  0  0  0  0999 V3000
M  V30 BEGIN CTAB
M  V30 COUNTS 27 29 0 0 0
M  V30 BEGIN ATOM
M  V30 1 N -1.103172 -2.850576 3.058864 0
M  V30 2 C -0.101484 -2.447617 2.635343 0
M  V30 3 C 1.145889 -1.971253 2.120698 0
M  V30 4 C 2.356690 -2.479964 2.543687 0
M  V30 5 N 3.345088 -1.858085 1.875626 0
M  V30 6 C 2.815605 -0.957494 1.028139 0
M  V30 7 N 3.306775 -0.077742 0.119791 0
M  V30 8 C 2.438675 0.680961 -0.584890 0
M  V30 9 N 3.049411 1.571777 -1.512858 0
M  V30 10 N 1.111747 0.609723 -0.431824 0
M  V30 11 C 0.567789 -0.259203 0.470382 0
M  V30 12 C -0.882437 -0.216691 0.510359 0
M  V30 13 C -1.494671 -0.358437 -0.740744 0
M  V30 14 C -2.856493 -0.324172 -0.959450 0
M  V30 15 C -3.684852 -0.137051 0.127008 0
M  V30 16 C -3.126175 0.007614 1.377609 0
M  V30 17 F -3.862477 0.196559 2.508572 0
M  V30 18 C -1.763991 -0.032417 1.551354 0
M  V30 19 C 1.449655 -1.025730 1.179801 0
M  V30 20 H 2.529647 -3.248573 3.284080 0
M  V30 21 H 4.383102 -1.974320 1.925676 0
M  V30 22 H 2.926814 2.551120 -1.174381 0
M  V30 23 H 3.555233 1.408057 -2.399893 0
M  V30 24 H -0.917571 -0.509775 -1.651590 0
M  V30 25 H -3.292612 -0.437676 -1.942387 0
M  V30 26 H -4.762878 -0.097570 0.046882 0
M  V30 27 H -1.287649 0.094174 2.512379 0
M  V30 END ATOM
M  V30 BEGIN BOND
M  V30 1 3 1 2
M  V30 2 1 2 3
M  V30 3 2 3 4
M  V30 4 1 4 5
M  V30 5 1 5 6
M  V30 6 2 6 7
M  V30 7 1 7 8
M  V30 8 1 8 9
M  V30 9 2 8 10
M  V30 10 1 10 11
M  V30 11 1 11 12
M  V30 12 2 12 13
M  V30 13 1 13 14
M  V30 14 2 14 15
M  V30 15 1 15 16
M  V30 16 1 16 17
M  V30 17 2 16 18
M  V30 18 2 11 19
M  V30 19 1 19 3
M  V30 20 1 19 6
M  V30 21 1 18 12
M  V30 22 1 4 20
M  V30 23 1 5 21
M  V30 24 1 9 22
M  V30 25 1 9 23
M  V30 26 1 13 24
M  V30 27 1 14 25
M  V30 28 1 15 26
M  V30 29 1 18 27
M  V30 END BOND
M  V30 END CTAB
M  END
>  <Dataset>  (327) 
ChEMBL_Kinases

>  <Ligand_Instance>  (327) 
nan

>  <PDB_ID>  (327) 
nan

>  <Standardized_SMILES>  (327) 
N#Cc1c[nH]c2nc(N)nc(-c3cccc(F)c3)c12

>  <Name>  (327) 
nan

>  <Pocket>  (327) 
nan

>  <ATP_Site>  (327) 
nan

>  <Peripheral>  (327) 
nan

>  <Num_H_Atoms_ProtBoundConf>  (327) 
nan

>  <Num_Resolved_Atoms>  (327) 
nan

>  <Num_Not_Resolved_Atoms>  (327) 
nan

$$$$
CHEMBL4103352
     RDKit          3D

  0  0  0  0  0  0  0  0  0  0999 V3000
M  V30 BEGIN CTAB
M  V30 COUNTS 46 49 0 0 0
M  V30 BEGIN ATOM
M  V30 1 C 1.661906 -4.260660 2.657171 0
M  V30 2 C 1.000207 -3.789425 1.358588 0
M  V30 3 C -0.077731 -4.789658 0.982692 0
M  V30 4 O 1.924700 -3.650982 0.324086 0
M  V30 5 C 2.270235 -2.469755 -0.313388 0
M  V30 6 C 3.230395 -2.739719 -1.295948 0
M  V30 7 C 3.749281 -1.711111 -2.087754 0
M  V30 8 C 3.314801 -0.410654 -1.904794 0
M  V30 9 N 3.556046 0.810597 -2.437926 0
M  V30 10 N 2.814471 1.731165 -1.837178 0
M  V30 11 C 2.039756 1.177902 -0.873158 0
M  V30 12 C 1.099565 1.873399 -0.006767 0
M  V30 13 C 1.459273 3.066948 0.601646 0
M  V30 14 C 0.606605 3.784474 1.443241 0
M  V30 15 N -0.619573 3.273124 1.659821 0
M  V30 16 C -1.026105 2.113835 1.094313 0
M  V30 17 N -2.328738 1.592555 1.338573 0
M  V30 18 C -2.964221 0.383216 0.842678 0
M  V30 19 C -3.395980 -0.223469 2.185282 0 CFG=1
M  V30 20 F -2.312584 -0.940509 2.669104 0
M  V30 21 C -3.587790 0.972077 3.117858 0 CFG=2
M  V30 22 F -4.798958 0.988869 3.734940 0
M  V30 23 C -3.376435 2.162505 2.172134 0
M  V30 24 C -0.187861 1.401467 0.262458 0
M  V30 25 C 2.368165 -0.179135 -0.928381 0
M  V30 26 C 1.856604 -1.185950 -0.149366 0
M  V30 27 H 1.803033 -5.372392 2.638946 0
M  V30 28 H 2.581138 -3.712929 2.872816 0
M  V30 29 H 0.914326 -4.025378 3.463415 0
M  V30 30 H 0.573871 -2.798729 1.601503 0
M  V30 31 H -0.143003 -4.943286 -0.111570 0
M  V30 32 H 0.141955 -5.749053 1.495972 0
M  V30 33 H -1.078020 -4.443235 1.335549 0
M  V30 34 H 3.669713 -3.710898 -1.557280 0
M  V30 35 H 4.491374 -1.869161 -2.858406 0
M  V30 36 H 4.243840 0.949365 -3.215518 0
M  V30 37 H 2.423818 3.516395 0.461677 0
M  V30 38 H 0.911606 4.712083 1.904762 0
M  V30 39 H -3.854573 0.727009 0.257173 0
M  V30 40 H -2.307870 -0.284791 0.290568 0
M  V30 41 H -4.280716 -0.850135 2.086671 0
M  V30 42 H -2.729817 1.063483 3.844402 0
M  V30 43 H -3.057450 3.058959 2.707338 0
M  V30 44 H -4.323673 2.310072 1.618337 0
M  V30 45 H -0.483863 0.490434 -0.192424 0
M  V30 46 H 1.116571 -1.095389 0.634045 0
M  V30 END ATOM
M  V30 BEGIN BOND
M  V30 1 1 1 2
M  V30 2 1 2 3
M  V30 3 1 2 4
M  V30 4 1 4 5
M  V30 5 2 5 6
M  V30 6 1 6 7
M  V30 7 2 7 8
M  V30 8 1 8 9
M  V30 9 1 9 10
M  V30 10 2 10 11
M  V30 11 1 11 12
M  V30 12 2 12 13
M  V30 13 1 13 14
M  V30 14 2 14 15
M  V30 15 1 15 16
M  V30 16 1 16 17
M  V30 17 1 17 18
M  V30 18 1 18 19
M  V30 19 1 19 20
M  V30 20 1 19 21
M  V30 21 1 21 22
M  V30 22 1 21 23
M  V30 23 2 16 24
M  V30 24 1 11 25
M  V30 25 2 25 26
M  V30 26 1 26 5
M  V30 27 1 25 8
M  V30 28 1 24 12
M  V30 29 1 23 17
M  V30 30 1 1 27
M  V30 31 1 1 28
M  V30 32 1 1 29
M  V30 33 1 2 30
M  V30 34 1 3 31
M  V30 35 1 3 32
M  V30 36 1 3 33
M  V30 37 1 6 34
M  V30 38 1 7 35
M  V30 39 1 9 36
M  V30 40 1 13 37
M  V30 41 1 14 38
M  V30 42 1 18 39
M  V30 43 1 18 40
M  V30 44 1 19 41 CFG=3
M  V30 45 1 21 42 CFG=1
M  V30 46 1 23 43
M  V30 47 1 23 44
M  V30 48 1 24 45
M  V30 49 1 26 46
M  V30 END BOND
M  V30 END CTAB
M  END
>  <Dataset>  (328) 
ChEMBL_Kinases

>  <Ligand_Instance>  (328) 
nan

>  <PDB_ID>  (328) 
nan

>  <Standardized_SMILES>  (328) 
CC(C)Oc1ccc2[nH]nc(-c3ccnc(N4C[C@@H](F)[C@H](F)C4)c3)c2c1

>  <Name>  (328) 
nan

>  <Pocket>  (328) 
nan

>  <ATP_Site>  (328) 
nan

>  <Peripheral>  (328) 
nan

>  <Num_H_Atoms_ProtBoundConf>  (328) 
nan

>  <Num_Resolved_Atoms>  (328) 
nan

>  <Num_Not_Resolved_Atoms>  (328) 
nan

$$$$
CHEMBL4103188
     RDKit          3D

  0  0  0  0  0  0  0  0  0  0999 V3000
M  V30 BEGIN CTAB
M  V30 COUNTS 51 54 0 0 0
M  V30 BEGIN ATOM
M  V30 1 C -0.861608 -0.619867 3.526454 0
M  V30 2 N 0.314924 -0.048873 2.947243 0
M  V30 3 C 1.288467 -1.033652 2.641544 0
M  V30 4 O 1.067098 -2.271155 2.874952 0
M  V30 5 C 2.644744 -0.958017 2.057655 0
M  V30 6 N 2.963352 0.415323 1.737727 0
M  V30 7 N 3.430384 1.232854 2.672813 0
M  V30 8 C 3.649760 2.466150 2.184239 0
M  V30 9 C 3.294190 2.406948 0.852521 0
M  V30 10 N 3.338638 3.318470 -0.121504 0
M  V30 11 C 2.984865 3.053073 -1.380946 0
M  V30 12 C 2.566842 1.756949 -1.595628 0
M  V30 13 C 2.481226 0.726025 -0.642318 0
M  V30 14 N 2.070273 -0.542862 -1.051983 0
M  V30 15 C 1.006075 -1.457983 -0.964557 0
M  V30 16 C -0.205596 -1.202493 -0.361886 0
M  V30 17 C -1.240813 -2.105631 -0.282892 0
M  V30 18 C -2.529635 -1.832536 0.333688 0
M  V30 19 C -2.942970 -0.656349 0.895902 0
M  V30 20 C -4.150907 -0.410377 1.469691 0
M  V30 21 C -4.498737 0.915476 2.054939 0
M  V30 22 C -5.053988 -1.453927 1.487330 0
M  V30 23 C -4.723816 -2.693004 0.937746 0
M  V30 24 C -3.475008 -2.845195 0.378848 0
M  V30 25 F -3.222909 -4.081305 -0.138069 0
M  V30 26 N -1.002238 -3.291296 -0.840537 0
M  V30 27 C 0.156551 -3.599700 -1.440966 0
M  V30 28 C 1.196815 -2.703342 -1.526213 0
M  V30 29 C 2.460661 -3.075567 -2.196036 0
M  V30 30 C 2.874187 1.126470 0.611684 0
M  V30 31 H -1.158670 -1.536246 2.990807 0
M  V30 32 H -1.703775 0.110679 3.397491 0
M  V30 33 H -0.749768 -0.778772 4.619113 0
M  V30 34 H 0.665887 0.887612 2.683151 0
M  V30 35 H 3.366591 -1.333196 2.849775 0
M  V30 36 H 2.813393 -1.650067 1.205790 0
M  V30 37 H 4.024845 3.341124 2.699702 0
M  V30 38 H 2.998152 3.741254 -2.213374 0
M  V30 39 H 2.266685 1.497177 -2.623372 0
M  V30 40 H 2.934101 -0.825807 -1.608205 0
M  V30 41 H -0.355542 -0.212850 0.085033 0
M  V30 42 H -2.232535 0.161200 0.880855 0
M  V30 43 H -5.184464 1.510184 1.443351 0
M  V30 44 H -4.871186 0.783175 3.109442 0
M  V30 45 H -3.539105 1.484205 2.182141 0
M  V30 46 H -6.022961 -1.297542 1.933852 0
M  V30 47 H -5.446226 -3.501018 0.960934 0
M  V30 48 H 0.279524 -4.595422 -1.877183 0
M  V30 49 H 3.313710 -3.072838 -1.484233 0
M  V30 50 H 2.631303 -2.295199 -2.988244 0
M  V30 51 H 2.336917 -4.078968 -2.643608 0
M  V30 END ATOM
M  V30 BEGIN BOND
M  V30 1 1 1 2
M  V30 2 1 2 3
M  V30 3 2 3 4
M  V30 4 1 3 5
M  V30 5 1 5 6
M  V30 6 1 6 7
M  V30 7 2 7 8
M  V30 8 1 8 9
M  V30 9 2 9 10
M  V30 10 1 10 11
M  V30 11 2 11 12
M  V30 12 1 12 13
M  V30 13 1 13 14
M  V30 14 1 14 15
M  V30 15 2 15 16
M  V30 16 1 16 17
M  V30 17 1 17 18
M  V30 18 2 18 19
M  V30 19 1 19 20
M  V30 20 1 20 21
M  V30 21 2 20 22
M  V30 22 1 22 23
M  V30 23 2 23 24
M  V30 24 1 24 25
M  V30 25 2 17 26
M  V30 26 1 26 27
M  V30 27 2 27 28
M  V30 28 1 28 29
M  V30 29 2 13 30
M  V30 30 1 30 6
M  V30 31 1 30 9
M  V30 32 1 28 15
M  V30 33 1 24 18
M  V30 34 1 1 31
M  V30 35 1 1 32
M  V30 36 1 1 33
M  V30 37 1 2 34
M  V30 38 1 5 35
M  V30 39 1 5 36
M  V30 40 1 8 37
M  V30 41 1 11 38
M  V30 42 1 12 39
M  V30 43 1 14 40
M  V30 44 1 16 41
M  V30 45 1 19 42
M  V30 46 1 21 43
M  V30 47 1 21 44
M  V30 48 1 21 45
M  V30 49 1 22 46
M  V30 50 1 23 47
M  V30 51 1 27 48
M  V30 52 1 29 49
M  V30 53 1 29 50
M  V30 54 1 29 51
M  V30 END BOND
M  V30 END CTAB
M  END
>  <Dataset>  (329) 
ChEMBL_Kinases

>  <Ligand_Instance>  (329) 
nan

>  <PDB_ID>  (329) 
nan

>  <Standardized_SMILES>  (329) 
CNC(=O)Cn1ncc2nccc(Nc3cc(-c4cc(C)ccc4F)ncc3C)c21

>  <Name>  (329) 
nan

>  <Pocket>  (329) 
nan

>  <ATP_Site>  (329) 
nan

>  <Peripheral>  (329) 
nan

>  <Num_H_Atoms_ProtBoundConf>  (329) 
nan

>  <Num_Resolved_Atoms>  (329) 
nan

>  <Num_Not_Resolved_Atoms>  (329) 
nan

$$$$
CHEMBL4103247
     RDKit          3D

  0  0  0  0  0  0  0  0  0  0999 V3000
M  V30 BEGIN CTAB
M  V30 COUNTS 24 26 0 0 0
M  V30 BEGIN ATOM
M  V30 1 C 1.726736 -0.844520 4.045879 0
M  V30 2 C 1.210938 -2.067828 4.423742 0
M  V30 3 N 0.578767 -2.920802 3.567726 0
M  V30 4 C 0.436242 -2.565113 2.256334 0
M  V30 5 C 0.948004 -1.341854 1.861995 0
M  V30 6 C 0.756411 -1.033451 0.445574 0
M  V30 7 N 0.952025 -1.838867 -0.639482 0
M  V30 8 N 0.664751 -1.180572 -1.752350 0
M  V30 9 C 0.269274 0.078989 -1.461400 0
M  V30 10 C -0.133890 1.150324 -2.262273 0
M  V30 11 C -0.483677 2.329510 -1.668788 0
M  V30 12 C -0.442621 2.469869 -0.300100 0
M  V30 13 C -0.036979 1.380197 0.445064 0
M  V30 14 C 0.327604 0.168459 -0.084123 0
M  V30 15 C 1.592306 -0.459070 2.706999 0
M  V30 16 H 2.217389 -0.215064 4.776721 0
M  V30 17 H 1.332495 -2.340543 5.479660 0
M  V30 18 H -0.064491 -3.238258 1.573263 0
M  V30 19 H 0.728353 -1.565210 -2.738480 0
M  V30 20 H -0.164526 1.034979 -3.338371 0
M  V30 21 H -0.803155 3.186424 -2.262444 0
M  V30 22 H -0.719785 3.410024 0.200098 0
M  V30 23 H -0.014013 1.517433 1.513716 0
M  V30 24 H 1.973982 0.476689 2.365048 0
M  V30 END ATOM
M  V30 BEGIN BOND
M  V30 1 2 1 2
M  V30 2 1 2 3
M  V30 3 2 3 4
M  V30 4 1 4 5
M  V30 5 1 5 6
M  V30 6 2 6 7
M  V30 7 1 7 8
M  V30 8 1 8 9
M  V30 9 2 9 10
M  V30 10 1 10 11
M  V30 11 2 11 12
M  V30 12 1 12 13
M  V30 13 2 13 14
M  V30 14 2 5 15
M  V30 15 1 15 1
M  V30 16 1 14 6
M  V30 17 1 14 9
M  V30 18 1 1 16
M  V30 19 1 2 17
M  V30 20 1 4 18
M  V30 21 1 8 19
M  V30 22 1 10 20
M  V30 23 1 11 21
M  V30 24 1 12 22
M  V30 25 1 13 23
M  V30 26 1 15 24
M  V30 END BOND
M  V30 END CTAB
M  END
>  <Dataset>  (330) 
ChEMBL_Kinases

>  <Ligand_Instance>  (330) 
nan

>  <PDB_ID>  (330) 
nan

>  <Standardized_SMILES>  (330) 
c1cncc(-c2n[nH]c3ccccc23)c1

>  <Name>  (330) 
nan

>  <Pocket>  (330) 
nan

>  <ATP_Site>  (330) 
nan

>  <Peripheral>  (330) 
nan

>  <Num_H_Atoms_ProtBoundConf>  (330) 
nan

>  <Num_Resolved_Atoms>  (330) 
nan

>  <Num_Not_Resolved_Atoms>  (330) 
nan

$$$$
CHEMBL4794713
     RDKit          3D

  0  0  0  0  0  0  0  0  0  0999 V3000
M  V30 BEGIN CTAB
M  V30 COUNTS 78 83 0 0 0
M  V30 BEGIN ATOM
M  V30 1 C 3.264826 3.139131 0.919985 0
M  V30 2 C 3.572862 3.349472 -0.524200 0
M  V30 3 C 4.077301 2.071250 -1.230368 0 CFG=2
M  V30 4 C 4.298440 2.574679 -2.644340 0
M  V30 5 N 5.386509 3.186008 -3.143084 0
M  V30 6 N 5.116443 3.591176 -4.384508 0
M  V30 7 C 3.832752 3.231355 -4.688511 0
M  V30 8 C 3.223774 3.533136 -6.003505 0
M  V30 9 N 3.366853 2.606506 -3.594073 0
M  V30 10 C 2.155705 1.910084 -3.378352 0
M  V30 11 C 1.170877 1.967310 -4.329557 0
M  V30 12 N 0.040114 1.307781 -4.079870 0
M  V30 13 C -0.192622 0.600420 -2.971333 0
M  V30 14 N -1.441714 -0.058852 -2.819698 0
M  V30 15 C -1.888378 -0.878749 -1.773599 0
M  V30 16 C -1.165052 -1.236701 -0.658709 0
M  V30 17 C -1.609590 -2.046027 0.355549 0
M  V30 18 C -2.877204 -2.568577 0.299965 0
M  V30 19 C -3.511192 -3.441766 1.266933 0
M  V30 20 O -4.706660 -3.863544 1.172818 0
M  V30 21 N -2.845561 -3.917322 2.429978 0
M  V30 22 N -3.113024 -4.715401 3.506602 0
M  V30 23 C -4.408951 -5.294999 3.594607 0
M  V30 24 C -5.406654 -4.462763 4.358996 0
M  V30 25 N -5.030475 -3.076312 4.198692 0
M  V30 26 C -6.041802 -2.183304 4.763686 0
M  V30 27 C -3.808270 -2.871822 4.945453 0
M  V30 28 C -2.829258 -3.994411 4.725009 0
M  V30 29 C -3.646371 -2.240255 -0.798094 0
M  V30 30 C -3.177933 -1.426992 -1.801603 0
M  V30 31 O -4.014818 -1.140915 -2.878454 0
M  V30 32 C -5.326980 -1.664454 -2.962289 0
M  V30 33 N 0.790674 0.568828 -2.068193 0
M  V30 34 C 1.963680 1.181376 -2.194627 0
M  V30 35 N 3.017496 1.132444 -1.202850 0
M  V30 36 C 2.808732 0.015544 -0.304947 0
M  V30 37 C 3.860213 -0.258648 0.652512 0
M  V30 38 C 4.097679 0.056246 1.972761 0
M  V30 39 C 5.204898 -0.307268 2.697584 0
M  V30 40 C 6.190986 -1.054353 2.088759 0
M  V30 41 F 7.268334 -1.393797 2.832890 0
M  V30 42 C 6.025305 -1.409374 0.767526 0
M  V30 43 C 4.894114 -1.019610 0.080883 0
M  V30 44 H 4.192894 2.880497 1.461423 0
M  V30 45 H 2.878324 4.107161 1.317403 0
M  V30 46 H 2.430000 2.423606 1.059007 0
M  V30 47 H 4.279835 4.185297 -0.641175 0
M  V30 48 H 2.605186 3.611113 -1.044190 0
M  V30 49 H 5.002739 1.787653 -0.748770 0
M  V30 50 H 2.404486 4.262774 -5.977622 0
M  V30 51 H 3.001234 2.610467 -6.610224 0
M  V30 52 H 4.021720 4.030256 -6.644327 0
M  V30 53 H 1.166047 2.469385 -5.251549 0
M  V30 54 H -2.141643 0.086196 -3.607797 0
M  V30 55 H -0.168321 -0.876880 -0.531302 0
M  V30 56 H -1.021018 -2.301083 1.203246 0
M  V30 57 H -1.839046 -3.585155 2.542189 0
M  V30 58 H -4.283918 -6.238910 4.207944 0
M  V30 59 H -4.796939 -5.677076 2.620594 0
M  V30 60 H -6.442366 -4.674546 4.103835 0
M  V30 61 H -5.299601 -4.662028 5.465847 0
M  V30 62 H -6.582530 -2.713034 5.565796 0
M  V30 63 H -6.805173 -1.889112 4.020900 0
M  V30 64 H -5.527242 -1.268068 5.115177 0
M  V30 65 H -3.365120 -1.897251 4.655265 0
M  V30 66 H -4.120476 -2.841345 6.031347 0
M  V30 67 H -2.766114 -4.679053 5.596901 0
M  V30 68 H -1.810047 -3.524501 4.643818 0
M  V30 69 H -4.673354 -2.624561 -0.906008 0
M  V30 70 H -5.857147 -1.203668 -3.814236 0
M  V30 71 H -5.846023 -1.312078 -2.031676 0
M  V30 72 H -5.317210 -2.759473 -3.029642 0
M  V30 73 H 1.834330 0.248917 0.224516 0
M  V30 74 H 2.569662 -0.923639 -0.866477 0
M  V30 75 H 3.262680 0.642510 2.376926 0
M  V30 76 H 5.208621 0.037361 3.724464 0
M  V30 77 H 6.831280 -1.993785 0.350966 0
M  V30 78 H 4.923044 -1.384948 -0.957075 0
M  V30 END ATOM
M  V30 BEGIN BOND
M  V30 1 1 1 2
M  V30 2 1 2 3
M  V30 3 1 3 4
M  V30 4 2 4 5
M  V30 5 1 5 6
M  V30 6 2 6 7
M  V30 7 1 7 8
M  V30 8 1 7 9
M  V30 9 1 9 10
M  V30 10 2 10 11
M  V30 11 1 11 12
M  V30 12 2 12 13
M  V30 13 1 13 14
M  V30 14 1 14 15
M  V30 15 2 15 16
M  V30 16 1 16 17
M  V30 17 2 17 18
M  V30 18 1 18 19
M  V30 19 2 19 20
M  V30 20 1 19 21
M  V30 21 1 21 22
M  V30 22 1 22 23
M  V30 23 1 23 24
M  V30 24 1 24 25
M  V30 25 1 25 26
M  V30 26 1 25 27
M  V30 27 1 27 28
M  V30 28 1 18 29
M  V30 29 2 29 30
M  V30 30 1 30 31
M  V30 31 1 31 32
M  V30 32 1 13 33
M  V30 33 2 33 34
M  V30 34 1 34 35
M  V30 35 1 35 36
M  V30 36 1 36 37
M  V30 37 2 37 38
M  V30 38 1 38 39
M  V30 39 2 39 40
M  V30 40 1 40 41
M  V30 41 1 40 42
M  V30 42 2 42 43
M  V30 43 1 35 3
M  V30 44 1 43 37
M  V30 45 1 9 4
M  V30 46 1 34 10
M  V30 47 1 30 15
M  V30 48 1 28 22
M  V30 49 1 1 44
M  V30 50 1 1 45
M  V30 51 1 1 46
M  V30 52 1 2 47
M  V30 53 1 2 48
M  V30 54 1 3 49 CFG=1
M  V30 55 1 8 50
M  V30 56 1 8 51
M  V30 57 1 8 52
M  V30 58 1 11 53
M  V30 59 1 14 54
M  V30 60 1 16 55
M  V30 61 1 17 56
M  V30 62 1 21 57
M  V30 63 1 23 58
M  V30 64 1 23 59
M  V30 65 1 24 60
M  V30 66 1 24 61
M  V30 67 1 26 62
M  V30 68 1 26 63
M  V30 69 1 26 64
M  V30 70 1 27 65
M  V30 71 1 27 66
M  V30 72 1 28 67
M  V30 73 1 28 68
M  V30 74 1 29 69
M  V30 75 1 32 70
M  V30 76 1 32 71
M  V30 77 1 32 72
M  V30 78 1 36 73
M  V30 79 1 36 74
M  V30 80 1 38 75
M  V30 81 1 39 76
M  V30 82 1 42 77
M  V30 83 1 43 78
M  V30 END BOND
M  V30 END CTAB
M  END
>  <Dataset>  (331) 
ChEMBL_Kinases

>  <Ligand_Instance>  (331) 
nan

>  <PDB_ID>  (331) 
nan

>  <Standardized_SMILES>  (331) 
CC[C@@H]1c2nnc(C)n2-c2cnc(Nc3ccc(C(=O)NN4CCN(C)CC4)cc3OC)nc2N1Cc1ccc(F)cc1

>  <Name>  (331) 
nan

>  <Pocket>  (331) 
nan

>  <ATP_Site>  (331) 
nan

>  <Peripheral>  (331) 
nan

>  <Num_H_Atoms_ProtBoundConf>  (331) 
nan

>  <Num_Resolved_Atoms>  (331) 
nan

>  <Num_Not_Resolved_Atoms>  (331) 
nan

$$$$
CHEMBL4794742
     RDKit          3D

  0  0  0  0  0  0  0  0  0  0999 V3000
M  V30 BEGIN CTAB
M  V30 COUNTS 54 57 0 0 0
M  V30 BEGIN ATOM
M  V30 1 O -2.157310 -1.328060 4.047392 0
M  V30 2 C -1.647748 -1.159496 2.910653 0
M  V30 3 N -0.778263 -0.163822 2.506035 0
M  V30 4 C -0.365899 -0.152995 1.314954 0
M  V30 5 N 0.530159 0.818007 0.782332 0
M  V30 6 C 0.425679 2.206599 1.022647 0
M  V30 7 C 0.670184 2.728137 2.387949 0
M  V30 8 C 2.024859 2.443559 2.955161 0
M  V30 9 C 3.170788 3.041878 2.196703 0
M  V30 10 N 2.741261 4.097269 1.336828 0
M  V30 11 C 3.793791 4.837134 0.719292 0
M  V30 12 C 4.506203 3.951161 -0.275536 0
M  V30 13 O 5.539105 4.665367 -0.890851 0
M  V30 14 C 1.805381 4.956143 2.003543 0
M  V30 15 C 0.518399 4.260104 2.262562 0
M  V30 16 S -1.076554 -1.545892 0.397386 0
M  V30 17 C -1.992798 -2.114845 1.859026 0
M  V30 18 C -2.733622 -3.203494 1.751402 0
M  V30 19 C -2.903242 -3.981410 0.531220 0
M  V30 20 C -3.121774 -3.072317 -0.596619 0
M  V30 21 S -3.290594 -4.274456 -2.051725 0
M  V30 22 C -3.047393 -5.691081 -0.916876 0
M  V30 23 C -3.048624 -7.109531 -1.423905 0
M  V30 24 C -2.883588 -8.178135 -0.579649 0
M  V30 25 C -2.894928 -9.427886 -1.166896 0
M  V30 26 C -3.058277 -9.650902 -2.516929 0
M  V30 27 C -3.225743 -8.553461 -3.368629 0
M  V30 28 C -3.215113 -7.305410 -2.786191 0
M  V30 29 O -3.385888 -6.264029 -3.690013 0
M  V30 30 N -2.906640 -5.216119 0.135100 0
M  V30 31 H 1.316234 0.432464 0.164174 0
M  V30 32 H -0.578470 2.635104 0.706029 0
M  V30 33 H 1.129652 2.732100 0.325028 0
M  V30 34 H -0.076552 2.445044 3.156354 0
M  V30 35 H 2.138603 1.322075 3.004259 0
M  V30 36 H 2.060646 2.778113 4.001907 0
M  V30 37 H 3.704653 2.269155 1.621582 0
M  V30 38 H 3.900064 3.506368 2.920386 0
M  V30 39 H 4.490503 5.325233 1.430605 0
M  V30 40 H 3.317259 5.660148 0.108813 0
M  V30 41 H 3.773885 3.630751 -1.046552 0
M  V30 42 H 4.897535 3.042612 0.213527 0
M  V30 43 H 5.107940 5.356068 -1.440879 0
M  V30 44 H 1.585353 5.818214 1.311441 0
M  V30 45 H 2.269191 5.405711 2.909782 0
M  V30 46 H -0.277102 4.474259 1.493047 0
M  V30 47 H 0.104418 4.694884 3.216547 0
M  V30 48 H -3.219786 -3.483785 2.664580 0
M  V30 49 H -3.226460 -1.868537 -0.854849 0
M  V30 50 H -2.764715 -7.925044 0.458140 0
M  V30 51 H -2.761505 -10.264244 -0.472317 0
M  V30 52 H -3.057213 -10.656600 -2.915004 0
M  V30 53 H -3.351187 -8.728143 -4.414443 0
M  V30 54 H -2.583798 -5.737421 -4.009824 0
M  V30 END ATOM
M  V30 BEGIN BOND
M  V30 1 2 1 2
M  V30 2 1 2 3
M  V30 3 2 3 4
M  V30 4 1 4 5
M  V30 5 1 5 6
M  V30 6 1 6 7
M  V30 7 1 7 8
M  V30 8 1 8 9
M  V30 9 1 9 10
M  V30 10 1 10 11
M  V30 11 1 11 12
M  V30 12 1 12 13
M  V30 13 1 10 14
M  V30 14 1 14 15
M  V30 15 1 4 16
M  V30 16 1 16 17
M  V30 17 2 17 18
M  V30 18 1 18 19
M  V30 19 2 19 20
M  V30 20 1 20 21
M  V30 21 1 21 22
M  V30 22 1 22 23
M  V30 23 2 23 24
M  V30 24 1 24 25
M  V30 25 2 25 26
M  V30 26 1 26 27
M  V30 27 2 27 28
M  V30 28 1 28 29
M  V30 29 2 22 30
M  V30 30 1 17 2
M  V30 31 1 30 19
M  V30 32 1 15 7
M  V30 33 1 28 23
M  V30 34 1 5 31
M  V30 35 1 6 32
M  V30 36 1 6 33
M  V30 37 1 7 34
M  V30 38 1 8 35
M  V30 39 1 8 36
M  V30 40 1 9 37
M  V30 41 1 9 38
M  V30 42 1 11 39
M  V30 43 1 11 40
M  V30 44 1 12 41
M  V30 45 1 12 42
M  V30 46 1 13 43
M  V30 47 1 14 44
M  V30 48 1 14 45
M  V30 49 1 15 46
M  V30 50 1 15 47
M  V30 51 1 18 48
M  V30 52 1 20 49
M  V30 53 1 24 50
M  V30 54 1 25 51
M  V30 55 1 26 52
M  V30 56 1 27 53
M  V30 57 1 29 54
M  V30 END BOND
M  V30 END CTAB
M  END
>  <Dataset>  (332) 
ChEMBL_Kinases

>  <Ligand_Instance>  (332) 
nan

>  <PDB_ID>  (332) 
nan

>  <Standardized_SMILES>  (332) 
O=C1N=C(NCC2CCN(CCO)CC2)S/C1=C\c1csc(-c2ccccc2O)n1

>  <Name>  (332) 
nan

>  <Pocket>  (332) 
nan

>  <ATP_Site>  (332) 
nan

>  <Peripheral>  (332) 
nan

>  <Num_H_Atoms_ProtBoundConf>  (332) 
nan

>  <Num_Resolved_Atoms>  (332) 
nan

>  <Num_Not_Resolved_Atoms>  (332) 
nan

$$$$
CHEMBL4794773
     RDKit          3D

  0  0  0  0  0  0  0  0  0  0999 V3000
M  V30 BEGIN CTAB
M  V30 COUNTS 34 36 0 0 0
M  V30 BEGIN ATOM
M  V30 1 O -2.319799 -0.357295 3.958772 0
M  V30 2 C -1.302017 -0.609888 3.270024 0
M  V30 3 N -0.285601 -1.291504 3.824790 0
M  V30 4 C 0.843393 -1.611185 3.174330 0
M  V30 5 C 1.065268 -1.263589 1.857829 0
M  V30 6 N 2.266738 -1.588440 1.174948 0
M  V30 7 C 2.571838 -1.714978 -0.203685 0
M  V30 8 C 1.672870 -1.960737 -1.218419 0
M  V30 9 C 1.986758 -2.061460 -2.552304 0
M  V30 10 C 3.302688 -1.904846 -2.900627 0
M  V30 11 C 4.242104 -1.658817 -1.933160 0
M  V30 12 C 3.880083 -1.566107 -0.609166 0
M  V30 13 C 0.016187 -0.564408 1.299452 0
M  V30 14 C -1.150279 -0.228164 1.953634 0
M  V30 15 C -2.227411 0.516185 1.302117 0
M  V30 16 C -3.268629 -0.083089 0.618896 0
M  V30 17 C -4.279750 0.630270 0.007867 0
M  V30 18 C -4.208583 2.023218 0.109302 0
M  V30 19 C -3.175242 2.663972 0.789219 0
M  V30 20 C -2.173788 1.912767 1.392599 0
M  V30 21 Br -0.755559 2.770813 2.324890 0
M  V30 22 H -0.373172 -1.597769 4.833893 0
M  V30 23 H 1.623915 -2.172220 3.709421 0
M  V30 24 H 3.068877 -1.764700 1.845384 0
M  V30 25 H 0.635794 -2.099123 -0.973403 0
M  V30 26 H 1.238976 -2.254894 -3.300432 0
M  V30 27 H 3.580009 -1.978549 -3.940892 0
M  V30 28 H 5.268013 -1.542827 -2.258259 0
M  V30 29 H 4.703660 -1.367349 0.086141 0
M  V30 30 H 0.056588 -0.218118 0.278841 0
M  V30 31 H -3.285791 -1.161633 0.564370 0
M  V30 32 H -5.090865 0.153452 -0.524772 0
M  V30 33 H -4.963595 2.663462 -0.342607 0
M  V30 34 H -3.165286 3.744068 0.839249 0
M  V30 END ATOM
M  V30 BEGIN BOND
M  V30 1 2 1 2
M  V30 2 1 2 3
M  V30 3 1 3 4
M  V30 4 2 4 5
M  V30 5 1 5 6
M  V30 6 1 6 7
M  V30 7 2 7 8
M  V30 8 1 8 9
M  V30 9 2 9 10
M  V30 10 1 10 11
M  V30 11 2 11 12
M  V30 12 1 5 13
M  V30 13 2 13 14
M  V30 14 1 14 15
M  V30 15 2 15 16
M  V30 16 1 16 17
M  V30 17 2 17 18
M  V30 18 1 18 19
M  V30 19 2 19 20
M  V30 20 1 20 21
M  V30 21 1 14 2
M  V30 22 1 20 15
M  V30 23 1 12 7
M  V30 24 1 3 22
M  V30 25 1 4 23
M  V30 26 1 6 24
M  V30 27 1 8 25
M  V30 28 1 9 26
M  V30 29 1 10 27
M  V30 30 1 11 28
M  V30 31 1 12 29
M  V30 32 1 13 30
M  V30 33 1 16 31
M  V30 34 1 17 32
M  V30 35 1 18 33
M  V30 36 1 19 34
M  V30 END BOND
M  V30 END CTAB
M  END
>  <Dataset>  (333) 
ChEMBL_Kinases

>  <Ligand_Instance>  (333) 
nan

>  <PDB_ID>  (333) 
nan

>  <Standardized_SMILES>  (333) 
O=c1[nH]cc(Nc2ccccc2)cc1-c1ccccc1Br

>  <Name>  (333) 
nan

>  <Pocket>  (333) 
nan

>  <ATP_Site>  (333) 
nan

>  <Peripheral>  (333) 
nan

>  <Num_H_Atoms_ProtBoundConf>  (333) 
nan

>  <Num_Resolved_Atoms>  (333) 
nan

>  <Num_Not_Resolved_Atoms>  (333) 
nan

$$$$
CHEMBL4794784
     RDKit          3D

  0  0  0  0  0  0  0  0  0  0999 V3000
M  V30 BEGIN CTAB
M  V30 COUNTS 50 53 0 0 0
M  V30 BEGIN ATOM
M  V30 1 C 0.497665 -2.168807 1.984585 0
M  V30 2 N 1.712528 -2.681560 2.533277 0
M  V30 3 C 1.921395 -2.483054 3.921965 0
M  V30 4 C 2.843170 -1.395589 4.333758 0
M  V30 5 C 3.964127 -1.101426 3.342627 0
M  V30 6 C 3.321310 -1.013254 2.000495 0
M  V30 7 C 4.227039 -0.667227 0.857742 0
M  V30 8 N 3.444577 -0.619255 -0.360321 0
M  V30 9 C 2.494543 0.383272 -0.731789 0
M  V30 10 N 2.892040 1.613145 -0.706828 0
M  V30 11 C 1.966797 2.569124 -1.079291 0
M  V30 12 O 2.227778 3.812779 -1.093038 0
M  V30 13 C 0.632036 2.074514 -1.467654 0
M  V30 14 C -0.410293 2.713454 -1.915218 0
M  V30 15 C -1.675136 2.016927 -2.246505 0
M  V30 16 C -2.611138 1.963807 -3.231886 0
M  V30 17 C -3.556986 1.042759 -2.836680 0
M  V30 18 C -3.157425 0.563944 -1.609925 0
M  V30 19 C -3.863668 -0.426530 -0.816630 0
M  V30 20 C -3.278235 -0.681260 0.432343 0
M  V30 21 C -3.889499 -1.627492 1.263255 0
M  V30 22 C -5.052748 -2.297544 0.853924 0
M  V30 23 C -5.630712 -2.036404 -0.395375 0
M  V30 24 Cl -7.080391 -2.869012 -0.930528 0
M  V30 25 C -4.996688 -1.103115 -1.173667 0
M  V30 26 O -2.058382 1.155602 -1.303313 0
M  V30 27 S 0.774447 0.281423 -1.228645 0
M  V30 28 C 2.861727 -2.465397 1.711261 0
M  V30 29 H 0.417462 -1.044286 2.092266 0
M  V30 30 H -0.406591 -2.599137 2.407406 0
M  V30 31 H 0.572817 -2.333223 0.870842 0
M  V30 32 H 2.294268 -3.459961 4.348100 0
M  V30 33 H 0.910453 -2.278068 4.375734 0
M  V30 34 H 3.262276 -1.694726 5.334565 0
M  V30 35 H 2.245884 -0.440574 4.414904 0
M  V30 36 H 4.501212 -0.199938 3.681853 0
M  V30 37 H 4.619855 -2.007788 3.353251 0
M  V30 38 H 2.475737 -0.319162 2.000653 0
M  V30 39 H 4.643659 0.368144 1.012321 0
M  V30 40 H 5.094741 -1.326395 0.737715 0
M  V30 41 H 3.500389 -1.381822 -1.115069 0
M  V30 42 H -0.356386 3.786430 -2.051887 0
M  V30 43 H -2.444550 2.609208 -4.079992 0
M  V30 44 H -4.410869 0.824659 -3.459389 0
M  V30 45 H -2.383230 -0.205896 0.816441 0
M  V30 46 H -3.513951 -1.894351 2.247951 0
M  V30 47 H -5.513812 -3.034117 1.521696 0
M  V30 48 H -5.397791 -0.856617 -2.157278 0
M  V30 49 H 2.589752 -2.595863 0.654325 0
M  V30 50 H 3.680320 -3.111778 2.054915 0
M  V30 END ATOM
M  V30 BEGIN BOND
M  V30 1 1 1 2
M  V30 2 1 2 3
M  V30 3 1 3 4
M  V30 4 1 4 5
M  V30 5 1 5 6
M  V30 6 1 6 7
M  V30 7 1 7 8
M  V30 8 1 8 9
M  V30 9 2 9 10
M  V30 10 1 10 11
M  V30 11 2 11 12
M  V30 12 1 11 13
M  V30 13 2 13 14
M  V30 14 1 14 15
M  V30 15 2 15 16
M  V30 16 1 16 17
M  V30 17 2 17 18
M  V30 18 1 18 19
M  V30 19 2 19 20
M  V30 20 1 20 21
M  V30 21 2 21 22
M  V30 22 1 22 23
M  V30 23 1 23 24
M  V30 24 2 23 25
M  V30 25 1 18 26
M  V30 26 1 13 27
M  V30 27 1 6 28
M  V30 28 1 28 2
M  V30 29 1 27 9
M  V30 30 1 26 15
M  V30 31 1 25 19
M  V30 32 1 1 29
M  V30 33 1 1 30
M  V30 34 1 1 31
M  V30 35 1 3 32
M  V30 36 1 3 33
M  V30 37 1 4 34
M  V30 38 1 4 35
M  V30 39 1 5 36
M  V30 40 1 5 37
M  V30 41 1 6 38
M  V30 42 1 7 39
M  V30 43 1 7 40
M  V30 44 1 8 41
M  V30 45 1 14 42
M  V30 46 1 16 43
M  V30 47 1 17 44
M  V30 48 1 20 45
M  V30 49 1 21 46
M  V30 50 1 22 47
M  V30 51 1 25 48
M  V30 52 1 28 49
M  V30 53 1 28 50
M  V30 END BOND
M  V30 END CTAB
M  END
>  <Dataset>  (334) 
ChEMBL_Kinases

>  <Ligand_Instance>  (334) 
nan

>  <PDB_ID>  (334) 
nan

>  <Standardized_SMILES>  (334) 
CN1CCCC(CNC2=NC(=O)/C(=C/c3ccc(-c4cccc(Cl)c4)o3)S2)C1

>  <Name>  (334) 
nan

>  <Pocket>  (334) 
nan

>  <ATP_Site>  (334) 
nan

>  <Peripheral>  (334) 
nan

>  <Num_H_Atoms_ProtBoundConf>  (334) 
nan

>  <Num_Resolved_Atoms>  (334) 
nan

>  <Num_Not_Resolved_Atoms>  (334) 
nan

$$$$
CHEMBL4794799
     RDKit          3D

  0  0  0  0  0  0  0  0  0  0999 V3000
M  V30 BEGIN CTAB
M  V30 COUNTS 65 72 0 0 0
M  V30 BEGIN ATOM
M  V30 1 C -0.503345 -1.188569 -2.838359 0
M  V30 2 O -0.286503 -1.267582 -1.471668 0
M  V30 3 C 1.047904 -1.442631 -1.149285 0 CFG=2
M  V30 4 C 1.329529 -2.766869 -0.500980 0 CFG=2
M  V30 5 N 0.916389 -3.925187 -1.217468 0
M  V30 6 C -0.248444 -4.584040 -1.750952 0
M  V30 7 C 2.126291 -4.661403 -1.469706 0
M  V30 8 N 2.258438 -5.896496 -2.154724 0
M  V30 9 O 3.303882 -4.367014 -1.139586 0
M  V30 10 C 0.623774 -2.801274 0.855294 0
M  V30 11 C 1.075240 -1.642486 1.671064 0 CFG=1
M  V30 12 O 1.876631 -0.767140 1.042085 0
M  V30 13 C 1.614356 -0.364580 -0.253207 0 CFG=1
M  V30 14 C 2.912914 0.083935 -0.905368 0
M  V30 15 N 0.623937 0.686648 -0.149727 0
M  V30 16 C 0.402658 1.727927 -0.967004 0
M  V30 17 C 0.993813 2.120906 -2.146902 0
M  V30 18 C 0.664389 3.212854 -2.891248 0
M  V30 19 C -0.371528 4.024100 -2.428875 0
M  V30 20 C -0.999730 3.676308 -1.251386 0
M  V30 21 C -0.611002 2.569531 -0.567085 0
M  V30 22 C -1.083587 2.022215 0.605026 0
M  V30 23 C -2.078724 2.358036 1.498153 0
M  V30 24 C -2.324930 1.584402 2.605857 0
M  V30 25 C -1.572962 0.473820 2.816994 0
M  V30 26 C -1.630844 -0.433175 3.809426 0
M  V30 27 C -2.318563 -0.701741 4.935006 0
M  V30 28 C -2.116076 -1.775408 5.773263 0
M  V30 29 C -1.109298 -2.693963 5.456472 0
M  V30 30 C -0.375541 -2.461983 4.310931 0
M  V30 31 C -0.648094 -1.358003 3.528829 0
M  V30 32 N -0.025765 -1.001586 2.395597 0
M  V30 33 C -0.594473 0.138427 1.945250 0
M  V30 34 C -0.320440 0.900396 0.817338 0
M  V30 35 C -3.402146 2.233421 3.278220 0
M  V30 36 O -4.035433 1.993083 4.317080 0
M  V30 37 N -3.821759 3.401708 2.592768 0
M  V30 38 C -2.997230 3.550938 1.408617 0
M  V30 39 H -0.144374 -2.151142 -3.307597 0
M  V30 40 H 0.016552 -0.332521 -3.306802 0
M  V30 41 H -1.558904 -1.116523 -3.110322 0
M  V30 42 H 1.572734 -1.463187 -2.126720 0
M  V30 43 H 2.427181 -2.830367 -0.382623 0
M  V30 44 H -1.194541 -4.196807 -1.272476 0
M  V30 45 H -0.203245 -5.665223 -1.445248 0
M  V30 46 H -0.342715 -4.560331 -2.843087 0
M  V30 47 H 2.203177 -6.937544 -2.062752 0
M  V30 48 H 2.480801 -6.294869 -3.097567 0
M  V30 49 H 0.910865 -3.750191 1.338294 0
M  V30 50 H -0.467844 -2.836358 0.690934 0
M  V30 51 H 1.702397 -2.061951 2.523713 0
M  V30 52 H 3.767889 -0.413198 -0.320350 0
M  V30 53 H 3.082291 -0.281619 -1.906869 0
M  V30 54 H 3.114431 1.146348 -0.690176 0
M  V30 55 H 1.787273 1.518631 -2.551606 0
M  V30 56 H 1.152838 3.481902 -3.805673 0
M  V30 57 H -0.704665 4.909166 -2.947019 0
M  V30 58 H -1.800390 4.303479 -0.894728 0
M  V30 59 H -3.105655 -0.076271 5.276752 0
M  V30 60 H -2.674860 -1.987925 6.682033 0
M  V30 61 H -0.864761 -3.563408 6.035349 0
M  V30 62 H 0.408536 -3.155418 4.041959 0
M  V30 63 H -4.549872 4.128003 2.750078 0
M  V30 64 H -3.603715 3.457070 0.497087 0
M  V30 65 H -2.386212 4.464924 1.430465 0
M  V30 END ATOM
M  V30 BEGIN BOND
M  V30 1 1 1 2
M  V30 2 1 2 3
M  V30 3 1 3 4
M  V30 4 1 4 5
M  V30 5 1 5 6
M  V30 6 1 5 7
M  V30 7 1 7 8
M  V30 8 2 7 9
M  V30 9 1 4 10
M  V30 10 1 10 11
M  V30 11 1 11 12
M  V30 12 1 12 13
M  V30 13 1 13 14 CFG=3
M  V30 14 1 13 15
M  V30 15 1 15 16
M  V30 16 2 16 17
M  V30 17 1 17 18
M  V30 18 2 18 19
M  V30 19 1 19 20
M  V30 20 2 20 21
M  V30 21 1 21 22
M  V30 22 2 22 23
M  V30 23 1 23 24
M  V30 24 2 24 25
M  V30 25 1 25 26
M  V30 26 2 26 27
M  V30 27 1 27 28
M  V30 28 2 28 29
M  V30 29 1 29 30
M  V30 30 2 30 31
M  V30 31 1 31 32
M  V30 32 1 32 33
M  V30 33 2 33 34
M  V30 34 1 24 35
M  V30 35 2 35 36
M  V30 36 1 35 37
M  V30 37 1 37 38
M  V30 38 1 13 3
M  V30 39 1 34 15
M  V30 40 1 32 11
M  V30 41 1 21 16
M  V30 42 1 34 22
M  V30 43 1 38 23
M  V30 44 1 33 25
M  V30 45 1 31 26
M  V30 46 1 1 39
M  V30 47 1 1 40
M  V30 48 1 1 41
M  V30 49 1 3 42 CFG=3
M  V30 50 1 4 43 CFG=1
M  V30 51 1 6 44
M  V30 52 1 6 45
M  V30 53 1 6 46
M  V30 54 1 8 47
M  V30 55 1 8 48
M  V30 56 1 10 49
M  V30 57 1 10 50
M  V30 58 1 11 51 CFG=1
M  V30 59 1 14 52
M  V30 60 1 14 53
M  V30 61 1 14 54
M  V30 62 1 17 55
M  V30 63 1 18 56
M  V30 64 1 19 57
M  V30 65 1 20 58
M  V30 66 1 27 59
M  V30 67 1 28 60
M  V30 68 1 29 61
M  V30 69 1 30 62
M  V30 70 1 37 63
M  V30 71 1 38 64
M  V30 72 1 38 65
M  V30 END BOND
M  V30 END CTAB
M  END
>  <Dataset>  (335) 
ChEMBL_Kinases

>  <Ligand_Instance>  (335) 
nan

>  <PDB_ID>  (335) 
nan

>  <Standardized_SMILES>  (335) 
CO[C@@H]1[C@H](N(C)C(N)=O)C[C@H]2O[C@]1(C)n1c3ccccc3c3c4c(c5c6ccccc6n2c5c31)C(=O)NC4

>  <Name>  (335) 
nan

>  <Pocket>  (335) 
nan

>  <ATP_Site>  (335) 
nan

>  <Peripheral>  (335) 
nan

>  <Num_H_Atoms_ProtBoundConf>  (335) 
nan

>  <Num_Resolved_Atoms>  (335) 
nan

>  <Num_Not_Resolved_Atoms>  (335) 
nan

$$$$
CHEMBL4794823
     RDKit          3D

  0  0  0  0  0  0  0  0  0  0999 V3000
M  V30 BEGIN CTAB
M  V30 COUNTS 70 74 0 0 0
M  V30 BEGIN ATOM
M  V30 1 N -1.494184 -4.453436 6.505316 0
M  V30 2 C -0.209845 -3.894727 6.758011 0
M  V30 3 O 0.497034 -4.088910 7.775810 0
M  V30 4 C 0.311761 -3.045040 5.767693 0
M  V30 5 S 1.889701 -2.216722 5.832956 0
M  V30 6 C 1.661406 -1.382137 4.147610 0
M  V30 7 C 2.755454 -0.520836 3.689518 0
M  V30 8 C 3.892950 -0.311514 4.412956 0
M  V30 9 C 4.845110 0.522435 3.869636 0
M  V30 10 N 4.648643 1.097322 2.679141 0
M  V30 11 C 3.529529 0.878965 1.989337 0
M  V30 12 N 3.349115 1.517101 0.707978 0
M  V30 13 C 2.727068 2.748302 0.953539 0
M  V30 14 O 2.263249 3.517115 1.858178 0
M  V30 15 C 2.317448 3.794410 -0.028738 0
M  V30 16 C 3.080453 4.025325 -1.272332 0
M  V30 17 C 1.766011 3.306952 -1.357183 0
M  V30 18 C 2.510167 0.049342 2.460645 0
M  V30 19 N 0.517058 -1.785872 3.754467 0
M  V30 20 C -0.168634 -2.601459 4.526076 0
M  V30 21 O -1.414115 -3.070987 4.150905 0
M  V30 22 C -2.102349 -2.782735 2.978043 0
M  V30 23 C -1.292990 -3.235981 1.779353 0
M  V30 24 C -2.085045 -2.900541 0.545385 0
M  V30 25 C -1.405241 -3.293854 -0.728120 0
M  V30 26 C -0.074301 -2.638249 -0.938924 0
M  V30 27 C -0.188664 -1.131342 -1.027286 0
M  V30 28 N -1.104419 -0.773809 -2.034461 0
M  V30 29 C -1.297601 0.584687 -2.344551 0
M  V30 30 C -2.285927 0.845049 -3.422333 0
M  V30 31 C -3.649729 1.047005 -3.263042 0
M  V30 32 C -4.450656 1.281564 -4.354909 0
M  V30 33 C -3.934540 1.325497 -5.647823 0
M  V30 34 C -2.582222 1.126452 -5.819446 0
M  V30 35 C -1.765917 0.889067 -4.722179 0
M  V30 36 C -1.847135 -1.762229 -2.689927 0
M  V30 37 C -2.310575 -2.909066 -1.875817 0
M  V30 38 H -1.793316 -5.275126 5.909317 0
M  V30 39 H -2.526069 -4.344210 6.734863 0
M  V30 40 H 4.036635 -0.777498 5.362014 0
M  V30 41 H 5.746355 0.682391 4.453358 0
M  V30 42 H 3.533556 1.344543 -0.295070 0
M  V30 43 H 1.840694 4.691264 0.432464 0
M  V30 44 H 4.013316 3.423440 -1.416477 0
M  V30 45 H 3.139850 5.025587 -1.720638 0
M  V30 46 H 1.766185 2.216064 -1.519605 0
M  V30 47 H 0.874912 3.828943 -1.764405 0
M  V30 48 H 1.621554 -0.114589 1.894209 0
M  V30 49 H -2.351248 -1.687251 2.901301 0
M  V30 50 H -3.089332 -3.290362 3.021230 0
M  V30 51 H -0.287314 -2.826242 1.786860 0
M  V30 52 H -1.183083 -4.338547 1.875481 0
M  V30 53 H -2.339885 -1.827544 0.511545 0
M  V30 54 H -3.038814 -3.463055 0.592535 0
M  V30 55 H -1.212799 -4.396821 -0.752301 0
M  V30 56 H 0.703914 -2.934722 -0.219556 0
M  V30 57 H 0.292795 -2.969701 -1.935392 0
M  V30 58 H 0.818327 -0.738723 -1.279147 0
M  V30 59 H -0.465514 -0.675766 -0.055769 0
M  V30 60 H -1.592307 1.106875 -1.390950 0
M  V30 61 H -0.324706 1.057359 -2.628858 0
M  V30 62 H -3.981464 0.999965 -2.238975 0
M  V30 63 H -5.523412 1.435958 -4.187688 0
M  V30 64 H -4.576622 1.509834 -6.491335 0
M  V30 65 H -2.182223 1.161892 -6.830436 0
M  V30 66 H -0.703684 0.742898 -4.969205 0
M  V30 67 H -1.272945 -2.168826 -3.575019 0
M  V30 68 H -2.756851 -1.264438 -3.133215 0
M  V30 69 H -3.365590 -2.720819 -1.518195 0
M  V30 70 H -2.437211 -3.804245 -2.549918 0
M  V30 END ATOM
M  V30 BEGIN BOND
M  V30 1 1 1 2
M  V30 2 2 2 3
M  V30 3 1 2 4
M  V30 4 1 4 5
M  V30 5 1 5 6
M  V30 6 1 6 7
M  V30 7 2 7 8
M  V30 8 1 8 9
M  V30 9 2 9 10
M  V30 10 1 10 11
M  V30 11 1 11 12
M  V30 12 1 12 13
M  V30 13 2 13 14
M  V30 14 1 13 15
M  V30 15 1 15 16
M  V30 16 1 16 17
M  V30 17 2 11 18
M  V30 18 2 6 19
M  V30 19 1 19 20
M  V30 20 1 20 21
M  V30 21 1 21 22
M  V30 22 1 22 23
M  V30 23 1 23 24
M  V30 24 1 24 25
M  V30 25 1 25 26
M  V30 26 1 26 27
M  V30 27 1 27 28
M  V30 28 1 28 29
M  V30 29 1 29 30
M  V30 30 2 30 31
M  V30 31 1 31 32
M  V30 32 2 32 33
M  V30 33 1 33 34
M  V30 34 2 34 35
M  V30 35 1 28 36
M  V30 36 1 36 37
M  V30 37 2 20 4
M  V30 38 1 37 25
M  V30 39 1 18 7
M  V30 40 1 35 30
M  V30 41 1 17 15
M  V30 42 1 1 38
M  V30 43 1 1 39
M  V30 44 1 8 40
M  V30 45 1 9 41
M  V30 46 1 12 42
M  V30 47 1 15 43
M  V30 48 1 16 44
M  V30 49 1 16 45
M  V30 50 1 17 46
M  V30 51 1 17 47
M  V30 52 1 18 48
M  V30 53 1 22 49
M  V30 54 1 22 50
M  V30 55 1 23 51
M  V30 56 1 23 52
M  V30 57 1 24 53
M  V30 58 1 24 54
M  V30 59 1 25 55
M  V30 60 1 26 56
M  V30 61 1 26 57
M  V30 62 1 27 58
M  V30 63 1 27 59
M  V30 64 1 29 60
M  V30 65 1 29 61
M  V30 66 1 31 62
M  V30 67 1 32 63
M  V30 68 1 33 64
M  V30 69 1 34 65
M  V30 70 1 35 66
M  V30 71 1 36 67
M  V30 72 1 36 68
M  V30 73 1 37 69
M  V30 74 1 37 70
M  V30 END BOND
M  V30 END CTAB
M  END
>  <Dataset>  (336) 
ChEMBL_Kinases

>  <Ligand_Instance>  (336) 
nan

>  <PDB_ID>  (336) 
nan

>  <Standardized_SMILES>  (336) 
NC(=O)c1sc(-c2ccnc(NC(=O)C3CC3)c2)nc1OCCCC1CCN(Cc2ccccc2)CC1

>  <Name>  (336) 
nan

>  <Pocket>  (336) 
nan

>  <ATP_Site>  (336) 
nan

>  <Peripheral>  (336) 
nan

>  <Num_H_Atoms_ProtBoundConf>  (336) 
nan

>  <Num_Resolved_Atoms>  (336) 
nan

>  <Num_Not_Resolved_Atoms>  (336) 
nan

$$$$
CHEMBL4103220
     RDKit          3D

  0  0  0  0  0  0  0  0  0  0999 V3000
M  V30 BEGIN CTAB
M  V30 COUNTS 38 40 0 0 0
M  V30 BEGIN ATOM
M  V30 1 C 0.720662 -7.110118 2.565500 0
M  V30 2 C 0.888828 -5.589450 2.499378 0
M  V30 3 O -0.298874 -4.991639 2.092851 0
M  V30 4 C -0.534563 -3.639069 1.914111 0
M  V30 5 C 0.322307 -2.579228 2.091511 0
M  V30 6 C -0.107219 -1.289367 1.858357 0
M  V30 7 C 0.816855 -0.181115 2.060009 0
M  V30 8 C 0.733645 0.796838 1.157832 0
M  V30 9 O -0.071602 0.948217 0.064307 0
M  V30 10 C 0.173829 2.135052 -0.613968 0
M  V30 11 C -0.456715 2.607039 -1.760665 0
M  V30 12 C -0.078672 3.819038 -2.299638 0
M  V30 13 C 0.933788 4.527621 -1.661405 0
M  V30 14 C 1.387156 5.851787 -2.201599 0
M  V30 15 C 1.555607 4.056833 -0.526887 0
M  V30 16 C 1.183200 2.835296 0.027170 0
M  V30 17 C 1.568836 1.992585 1.182608 0
M  V30 18 O 2.485272 2.357513 1.986905 0
M  V30 19 C -1.407821 -1.109635 1.447299 0
M  V30 20 C -2.313840 -2.134735 1.252301 0
M  V30 21 C -1.851455 -3.410143 1.494434 0
M  V30 22 O -2.814139 -4.416499 1.280643 0
M  V30 23 H 1.679746 -7.608413 2.796121 0
M  V30 24 H 0.430286 -7.424563 1.522764 0
M  V30 25 H -0.068520 -7.347744 3.284596 0
M  V30 26 H 1.167869 -5.218260 3.511414 0
M  V30 27 H 1.725203 -5.380308 1.785446 0
M  V30 28 H 1.315815 -2.854834 2.416517 0
M  V30 29 H 1.548660 -0.098302 2.873079 0
M  V30 30 H -1.241307 2.021960 -2.226566 0
M  V30 31 H -0.556411 4.210288 -3.195995 0
M  V30 32 H 0.533396 6.455491 -2.588989 0
M  V30 33 H 1.819727 6.461916 -1.370453 0
M  V30 34 H 2.192177 5.750861 -2.950221 0
M  V30 35 H 2.355931 4.593233 -0.003696 0
M  V30 36 H -1.782168 -0.091496 1.254316 0
M  V30 37 H -3.316860 -1.905769 0.929337 0
M  V30 38 H -3.163908 -4.862014 2.133456 0
M  V30 END ATOM
M  V30 BEGIN BOND
M  V30 1 1 1 2
M  V30 2 1 2 3
M  V30 3 1 3 4
M  V30 4 2 4 5
M  V30 5 1 5 6
M  V30 6 1 6 7
M  V30 7 2 7 8
M  V30 8 1 8 9
M  V30 9 1 9 10
M  V30 10 2 10 11
M  V30 11 1 11 12
M  V30 12 2 12 13
M  V30 13 1 13 14
M  V30 14 1 13 15
M  V30 15 2 15 16
M  V30 16 1 16 17
M  V30 17 2 17 18
M  V30 18 2 6 19
M  V30 19 1 19 20
M  V30 20 2 20 21
M  V30 21 1 21 22
M  V30 22 1 21 4
M  V30 23 1 17 8
M  V30 24 1 16 10
M  V30 25 1 1 23
M  V30 26 1 1 24
M  V30 27 1 1 25
M  V30 28 1 2 26
M  V30 29 1 2 27
M  V30 30 1 5 28
M  V30 31 1 7 29
M  V30 32 1 11 30
M  V30 33 1 12 31
M  V30 34 1 14 32
M  V30 35 1 14 33
M  V30 36 1 14 34
M  V30 37 1 15 35
M  V30 38 1 19 36
M  V30 39 1 20 37
M  V30 40 1 22 38
M  V30 END BOND
M  V30 END CTAB
M  END
>  <Dataset>  (337) 
ChEMBL_Kinases

>  <Ligand_Instance>  (337) 
nan

>  <PDB_ID>  (337) 
nan

>  <Standardized_SMILES>  (337) 
CCOc1cc(/C=C2\Oc3ccc(C)cc3C2=O)ccc1O

>  <Name>  (337) 
nan

>  <Pocket>  (337) 
nan

>  <ATP_Site>  (337) 
nan

>  <Peripheral>  (337) 
nan

>  <Num_H_Atoms_ProtBoundConf>  (337) 
nan

>  <Num_Resolved_Atoms>  (337) 
nan

>  <Num_Not_Resolved_Atoms>  (337) 
nan

$$$$
CHEMBL4103214
     RDKit          3D

  0  0  0  0  0  0  0  0  0  0999 V3000
M  V30 BEGIN CTAB
M  V30 COUNTS 43 46 0 0 0
M  V30 BEGIN ATOM
M  V30 1 C -1.810713 -5.605449 3.043913 0
M  V30 2 C -0.394799 -5.761312 2.653333 0
M  V30 3 N 0.438215 -6.783172 2.924861 0
M  V30 4 N 1.639434 -6.577218 2.411234 0
M  V30 5 C 1.685750 -5.384192 1.752719 0
M  V30 6 C 0.403270 -4.903958 1.923760 0
M  V30 7 C -0.015930 -3.610362 1.367098 0
M  V30 8 C 0.574867 -2.667809 0.661094 0
M  V30 9 C -0.125388 -1.551766 0.294349 0
M  V30 10 N 0.305300 -0.491667 -0.421288 0
M  V30 11 C -0.524524 0.528765 -0.693057 0
M  V30 12 C 0.048494 1.642932 -1.488535 0
M  V30 13 N 0.664035 2.679280 -0.754838 0
M  V30 14 C -0.135829 3.400645 0.173188 0
M  V30 15 C 0.335085 3.020698 1.561238 0
M  V30 16 C 1.664479 2.337420 1.377027 0
M  V30 17 C 1.896323 2.322370 -0.103004 0 CFG=2
M  V30 18 C 2.872857 3.466195 -0.406109 0
M  V30 19 O 4.109782 3.233583 0.175998 0
M  V30 20 N -1.813819 0.628812 -0.314902 0
M  V30 21 C -2.289604 -0.403339 0.400842 0
M  V30 22 O -3.444429 -0.501079 0.840598 0
M  V30 23 C -1.430731 -1.468431 0.686984 0
M  V30 24 S -1.690421 -3.021418 1.610984 0
M  V30 25 H -1.852544 -4.737202 3.739398 0
M  V30 26 H -2.439003 -5.468951 2.142797 0
M  V30 27 H -2.112965 -6.515650 3.608641 0
M  V30 28 H 2.468807 -7.232217 2.486261 0
M  V30 29 H 2.499516 -4.907559 1.223077 0
M  V30 30 H 1.612123 -2.860030 0.416999 0
M  V30 31 H 0.773644 1.251594 -2.222007 0
M  V30 32 H -0.771832 2.092123 -2.097788 0
M  V30 33 H 0.157000 4.486292 0.060745 0
M  V30 34 H -1.215663 3.362489 0.037008 0
M  V30 35 H 0.477202 3.924892 2.221002 0
M  V30 36 H -0.385093 2.374105 2.090169 0
M  V30 37 H 2.463608 2.901598 1.913331 0
M  V30 38 H 1.611581 1.333769 1.843053 0
M  V30 39 H 2.355693 1.417739 -0.498702 0
M  V30 40 H 2.994883 3.546909 -1.504755 0
M  V30 41 H 2.507727 4.427803 -0.029414 0
M  V30 42 H 4.329197 2.294018 0.296389 0
M  V30 43 H -2.460622 1.399367 -0.514900 0
M  V30 END ATOM
M  V30 BEGIN BOND
M  V30 1 1 1 2
M  V30 2 2 2 3
M  V30 3 1 3 4
M  V30 4 1 4 5
M  V30 5 2 5 6
M  V30 6 1 6 7
M  V30 7 2 7 8
M  V30 8 1 8 9
M  V30 9 1 9 10
M  V30 10 2 10 11
M  V30 11 1 11 12
M  V30 12 1 12 13
M  V30 13 1 13 14
M  V30 14 1 14 15
M  V30 15 1 15 16
M  V30 16 1 16 17
M  V30 17 1 17 18
M  V30 18 1 18 19
M  V30 19 1 11 20
M  V30 20 1 20 21
M  V30 21 2 21 22
M  V30 22 1 21 23
M  V30 23 1 23 24
M  V30 24 1 6 2
M  V30 25 1 24 7
M  V30 26 2 23 9
M  V30 27 1 17 13
M  V30 28 1 1 25
M  V30 29 1 1 26
M  V30 30 1 1 27
M  V30 31 1 4 28
M  V30 32 1 5 29
M  V30 33 1 8 30
M  V30 34 1 12 31
M  V30 35 1 12 32
M  V30 36 1 14 33
M  V30 37 1 14 34
M  V30 38 1 15 35
M  V30 39 1 15 36
M  V30 40 1 16 37
M  V30 41 1 16 38
M  V30 42 1 17 39 CFG=3
M  V30 43 1 18 40
M  V30 44 1 18 41
M  V30 45 1 19 42
M  V30 46 1 20 43
M  V30 END BOND
M  V30 END CTAB
M  END
>  <Dataset>  (338) 
ChEMBL_Kinases

>  <Ligand_Instance>  (338) 
nan

>  <PDB_ID>  (338) 
nan

>  <Standardized_SMILES>  (338) 
Cc1n[nH]cc1-c1cc2nc(CN3CCC[C@@H]3CO)[nH]c(=O)c2s1

>  <Name>  (338) 
nan

>  <Pocket>  (338) 
nan

>  <ATP_Site>  (338) 
nan

>  <Peripheral>  (338) 
nan

>  <Num_H_Atoms_ProtBoundConf>  (338) 
nan

>  <Num_Resolved_Atoms>  (338) 
nan

>  <Num_Not_Resolved_Atoms>  (338) 
nan

$$$$
CHEMBL4794846
     RDKit          3D

  0  0  0  0  0  0  0  0  0  0999 V3000
M  V30 BEGIN CTAB
M  V30 COUNTS 40 43 0 0 0
M  V30 BEGIN ATOM
M  V30 1 C 0.527917 -7.258674 3.341509 0
M  V30 2 N 0.838300 -5.926631 2.870657 0
M  V30 3 C -0.055882 -5.024149 2.403511 0
M  V30 4 C 0.619301 -3.874567 2.053322 0
M  V30 5 C 0.031195 -2.643273 1.498706 0
M  V30 6 C 0.802703 -1.904397 0.641679 0
M  V30 7 C 0.392224 -0.715804 0.024459 0
M  V30 8 C -0.906832 -0.314009 0.351246 0
M  V30 9 C -1.416387 0.841969 -0.206731 0
M  V30 10 N -0.555548 1.559206 -1.080026 0
M  V30 11 C 0.232736 2.673671 -0.776608 0
M  V30 12 C 0.166782 3.276738 0.476279 0
M  V30 13 C 0.964877 4.389301 0.750731 0
M  V30 14 C 1.807507 4.853057 -0.264277 0
M  V30 15 C 1.869424 4.251271 -1.505669 0
M  V30 16 N 2.744016 4.776589 -2.475963 0
M  V30 17 C 1.079549 3.153935 -1.770174 0
M  V30 18 N -2.681980 1.258120 0.086524 0
M  V30 19 C -3.448441 0.520579 0.942221 0
M  V30 20 N -2.974128 -0.609409 1.498966 0
M  V30 21 C -1.705378 -1.032891 1.207888 0
M  V30 22 C -1.242406 -2.203708 1.788629 0
M  V30 23 C 1.951108 -4.120120 2.327464 0
M  V30 24 N 2.041079 -5.369011 2.819068 0
M  V30 25 H -0.048541 -7.248191 4.291377 0
M  V30 26 H -0.019511 -7.779529 2.543105 0
M  V30 27 H 1.443490 -7.819097 3.556338 0
M  V30 28 H -1.130425 -5.178206 2.317294 0
M  V30 29 H 1.804949 -2.202517 0.381358 0
M  V30 30 H 1.018562 -0.156438 -0.644167 0
M  V30 31 H -0.591193 1.124346 -2.026639 0
M  V30 32 H -0.502259 2.901757 1.266941 0
M  V30 33 H 0.926297 4.878156 1.729761 0
M  V30 34 H 2.400001 5.728630 0.030323 0
M  V30 35 H 3.545183 5.405691 -2.262002 0
M  V30 36 H 2.693225 4.599511 -3.517100 0
M  V30 37 H 1.097653 2.640959 -2.741347 0
M  V30 38 H -4.458869 0.909210 1.139114 0
M  V30 39 H -1.848833 -2.785555 2.463967 0
M  V30 40 H 2.792016 -3.424966 2.174094 0
M  V30 END ATOM
M  V30 BEGIN BOND
M  V30 1 1 1 2
M  V30 2 1 2 3
M  V30 3 2 3 4
M  V30 4 1 4 5
M  V30 5 2 5 6
M  V30 6 1 6 7
M  V30 7 2 7 8
M  V30 8 1 8 9
M  V30 9 1 9 10
M  V30 10 1 10 11
M  V30 11 2 11 12
M  V30 12 1 12 13
M  V30 13 2 13 14
M  V30 14 1 14 15
M  V30 15 1 15 16
M  V30 16 2 15 17
M  V30 17 2 9 18
M  V30 18 1 18 19
M  V30 19 2 19 20
M  V30 20 1 20 21
M  V30 21 2 21 22
M  V30 22 1 4 23
M  V30 23 2 23 24
M  V30 24 1 24 2
M  V30 25 1 22 5
M  V30 26 1 21 8
M  V30 27 1 17 11
M  V30 28 1 1 25
M  V30 29 1 1 26
M  V30 30 1 1 27
M  V30 31 1 3 28
M  V30 32 1 6 29
M  V30 33 1 7 30
M  V30 34 1 10 31
M  V30 35 1 12 32
M  V30 36 1 13 33
M  V30 37 1 14 34
M  V30 38 1 16 35
M  V30 39 1 16 36
M  V30 40 1 17 37
M  V30 41 1 19 38
M  V30 42 1 22 39
M  V30 43 1 23 40
M  V30 END BOND
M  V30 END CTAB
M  END
>  <Dataset>  (339) 
ChEMBL_Kinases

>  <Ligand_Instance>  (339) 
nan

>  <PDB_ID>  (339) 
nan

>  <Standardized_SMILES>  (339) 
Cn1cc(-c2ccc3c(Nc4cccc(N)c4)ncnc3c2)cn1

>  <Name>  (339) 
nan

>  <Pocket>  (339) 
nan

>  <ATP_Site>  (339) 
nan

>  <Peripheral>  (339) 
nan

>  <Num_H_Atoms_ProtBoundConf>  (339) 
nan

>  <Num_Resolved_Atoms>  (339) 
nan

>  <Num_Not_Resolved_Atoms>  (339) 
nan

$$$$
CHEMBL4794863
     RDKit          3D

  0  0  0  0  0  0  0  0  0  0999 V3000
M  V30 BEGIN CTAB
M  V30 COUNTS 46 49 0 0 0
M  V30 BEGIN ATOM
M  V30 1 O 1.315045 0.128116 5.441394 0
M  V30 2 C 1.195556 -0.128199 4.207924 0
M  V30 3 N 1.725726 0.614747 3.188973 0
M  V30 4 C 1.516485 0.220095 1.989874 0
M  V30 5 N 2.060994 0.975856 0.898770 0
M  V30 6 C 1.856418 2.373615 0.693464 0
M  V30 7 C 2.696292 2.932823 -0.433837 0
M  V30 8 C 2.457105 4.416348 -0.666871 0
M  V30 9 O 3.266548 4.884017 -1.719598 0
M  V30 10 C 2.632785 2.129682 -1.695290 0
M  V30 11 C 4.108003 1.783641 -1.582350 0
M  V30 12 C 4.171868 2.582319 -0.319698 0
M  V30 13 S 0.531655 -1.288467 2.012142 0
M  V30 14 C 0.445574 -1.291637 3.826351 0
M  V30 15 C -0.198395 -2.255682 4.426455 0
M  V30 16 C -0.915936 -3.372261 3.767873 0
M  V30 17 C -0.895106 -4.698655 4.215069 0
M  V30 18 S -2.040966 -5.478650 2.918701 0
M  V30 19 C -2.286667 -3.820690 2.064182 0
M  V30 20 C -3.157695 -3.735058 0.879772 0
M  V30 21 C -3.270680 -2.442121 0.345643 0
M  V30 22 C -4.075536 -2.271181 -0.766338 0
M  V30 23 C -4.717073 -3.379505 -1.283156 0
M  V30 24 C -4.591870 -4.642678 -0.742333 0
M  V30 25 C -3.804711 -4.863481 0.362188 0
M  V30 26 O -3.613114 -6.084398 0.978527 0
M  V30 27 N -1.630307 -3.030372 2.697490 0
M  V30 28 H 2.631638 0.354435 0.235215 0
M  V30 29 H 1.985711 3.021280 1.565812 0
M  V30 30 H 0.785947 2.523350 0.349803 0
M  V30 31 H 2.550703 5.027940 0.234994 0
M  V30 32 H 1.405825 4.535926 -1.067619 0
M  V30 33 H 2.904773 4.630718 -2.601097 0
M  V30 34 H 1.973458 1.218841 -1.647848 0
M  V30 35 H 2.417652 2.680721 -2.633910 0
M  V30 36 H 4.724348 2.186134 -2.405470 0
M  V30 37 H 4.266847 0.695372 -1.479528 0
M  V30 38 H 4.823553 3.502331 -0.432422 0
M  V30 39 H 4.472853 1.977948 0.540326 0
M  V30 40 H -0.170162 -2.182967 5.525936 0
M  V30 41 H -0.312602 -4.968842 5.082848 0
M  V30 42 H -2.742509 -1.615233 0.799105 0
M  V30 43 H -4.193677 -1.300229 -1.207947 0
M  V30 44 H -5.347720 -3.250340 -2.152828 0
M  V30 45 H -5.080077 -5.531065 -1.123734 0
M  V30 46 H -2.990261 -6.811014 0.600943 0
M  V30 END ATOM
M  V30 BEGIN BOND
M  V30 1 2 1 2
M  V30 2 1 2 3
M  V30 3 2 3 4
M  V30 4 1 4 5
M  V30 5 1 5 6
M  V30 6 1 6 7
M  V30 7 1 7 8
M  V30 8 1 8 9
M  V30 9 1 7 10
M  V30 10 1 10 11
M  V30 11 1 11 12
M  V30 12 1 4 13
M  V30 13 1 13 14
M  V30 14 2 14 15
M  V30 15 1 15 16
M  V30 16 2 16 17
M  V30 17 1 17 18
M  V30 18 1 18 19
M  V30 19 1 19 20
M  V30 20 2 20 21
M  V30 21 1 21 22
M  V30 22 2 22 23
M  V30 23 1 23 24
M  V30 24 2 24 25
M  V30 25 1 25 26
M  V30 26 2 19 27
M  V30 27 1 14 2
M  V30 28 1 27 16
M  V30 29 1 12 7
M  V30 30 1 25 20
M  V30 31 1 5 28
M  V30 32 1 6 29
M  V30 33 1 6 30
M  V30 34 1 8 31
M  V30 35 1 8 32
M  V30 36 1 9 33
M  V30 37 1 10 34
M  V30 38 1 10 35
M  V30 39 1 11 36
M  V30 40 1 11 37
M  V30 41 1 12 38
M  V30 42 1 12 39
M  V30 43 1 15 40
M  V30 44 1 17 41
M  V30 45 1 21 42
M  V30 46 1 22 43
M  V30 47 1 23 44
M  V30 48 1 24 45
M  V30 49 1 26 46
M  V30 END BOND
M  V30 END CTAB
M  END
>  <Dataset>  (340) 
ChEMBL_Kinases

>  <Ligand_Instance>  (340) 
nan

>  <PDB_ID>  (340) 
nan

>  <Standardized_SMILES>  (340) 
O=C1N=C(NCC2(CO)CCC2)S/C1=C\c1csc(-c2ccccc2O)n1

>  <Name>  (340) 
nan

>  <Pocket>  (340) 
nan

>  <ATP_Site>  (340) 
nan

>  <Peripheral>  (340) 
nan

>  <Num_H_Atoms_ProtBoundConf>  (340) 
nan

>  <Num_Resolved_Atoms>  (340) 
nan

>  <Num_Not_Resolved_Atoms>  (340) 
nan

$$$$
CHEMBL4103192
     RDKit          3D

  0  0  0  0  0  0  0  0  0  0999 V3000
M  V30 BEGIN CTAB
M  V30 COUNTS 40 42 0 0 0
M  V30 BEGIN ATOM
M  V30 1 N 2.832334 -6.370509 4.456811 0
M  V30 2 C 2.726104 -5.398421 3.830655 0
M  V30 3 C 2.598961 -4.209496 3.037481 0
M  V30 4 C 1.953223 -3.072922 3.477157 0
M  V30 5 C 1.879497 -1.975839 2.645002 0
M  V30 6 C 2.426368 -1.931501 1.354236 0
M  V30 7 C 2.219383 -0.632158 0.671796 0
M  V30 8 O 1.066513 -0.439934 -0.002363 0
M  V30 9 C 0.369485 -0.935524 -1.014010 0
M  V30 10 C 0.816730 -2.010635 -1.746056 0
M  V30 11 C 0.091857 -2.521263 -2.793848 0
M  V30 12 C -1.115250 -1.952921 -3.132107 0
M  V30 13 Br -2.120690 -2.661880 -4.586267 0
M  V30 14 C -1.544250 -0.882645 -2.391402 0
M  V30 15 C -0.841856 -0.325943 -1.314620 0
M  V30 16 C -1.477165 0.805823 -0.667125 0
M  V30 17 O -2.587041 1.216289 -1.088635 0
M  V30 18 N -0.998311 1.552633 0.430509 0
M  V30 19 C -1.531787 2.658170 1.128809 0
M  V30 20 C -0.873311 3.247766 2.200789 0
M  V30 21 C -1.392717 4.322478 2.880275 0
M  V30 22 C -2.601086 4.878438 2.535323 0
M  V30 23 N -3.260946 4.316481 1.489674 0
M  V30 24 C -2.714991 3.265615 0.853487 0
M  V30 25 C 3.066055 -3.081527 0.941635 0
M  V30 26 C 3.141916 -4.180298 1.769971 0
M  V30 27 H 1.527714 -3.091372 4.466799 0
M  V30 28 H 1.348467 -1.136054 3.093020 0
M  V30 29 H 3.066778 -0.569102 -0.084757 0
M  V30 30 H 2.491979 0.149549 1.413323 0
M  V30 31 H 1.731889 -2.505519 -1.556813 0
M  V30 32 H 0.434762 -3.366197 -3.375463 0
M  V30 33 H -2.517023 -0.489446 -2.728283 0
M  V30 34 H -0.082905 1.254375 0.817545 0
M  V30 35 H 0.099987 2.848465 2.526557 0
M  V30 36 H -0.817558 4.722952 3.703250 0
M  V30 37 H -2.973100 5.721479 3.094710 0
M  V30 38 H -3.372821 2.959332 0.062672 0
M  V30 39 H 3.474993 -2.999308 -0.049570 0
M  V30 40 H 3.661290 -5.027877 1.355663 0
M  V30 END ATOM
M  V30 BEGIN BOND
M  V30 1 3 1 2
M  V30 2 1 2 3
M  V30 3 2 3 4
M  V30 4 1 4 5
M  V30 5 2 5 6
M  V30 6 1 6 7
M  V30 7 1 7 8
M  V30 8 1 8 9
M  V30 9 2 9 10
M  V30 10 1 10 11
M  V30 11 2 11 12
M  V30 12 1 12 13
M  V30 13 1 12 14
M  V30 14 2 14 15
M  V30 15 1 15 16
M  V30 16 2 16 17
M  V30 17 1 16 18
M  V30 18 1 18 19
M  V30 19 2 19 20
M  V30 20 1 20 21
M  V30 21 2 21 22
M  V30 22 1 22 23
M  V30 23 2 23 24
M  V30 24 1 6 25
M  V30 25 2 25 26
M  V30 26 1 26 3
M  V30 27 1 15 9
M  V30 28 1 24 19
M  V30 29 1 4 27
M  V30 30 1 5 28
M  V30 31 1 7 29
M  V30 32 1 7 30
M  V30 33 1 10 31
M  V30 34 1 11 32
M  V30 35 1 14 33
M  V30 36 1 18 34
M  V30 37 1 20 35
M  V30 38 1 21 36
M  V30 39 1 22 37
M  V30 40 1 24 38
M  V30 41 1 25 39
M  V30 42 1 26 40
M  V30 END BOND
M  V30 END CTAB
M  END
>  <Dataset>  (341) 
ChEMBL_Kinases

>  <Ligand_Instance>  (341) 
nan

>  <PDB_ID>  (341) 
nan

>  <Standardized_SMILES>  (341) 
N#Cc1ccc(COc2ccc(Br)cc2C(=O)Nc2cccnc2)cc1

>  <Name>  (341) 
nan

>  <Pocket>  (341) 
nan

>  <ATP_Site>  (341) 
nan

>  <Peripheral>  (341) 
nan

>  <Num_H_Atoms_ProtBoundConf>  (341) 
nan

>  <Num_Resolved_Atoms>  (341) 
nan

>  <Num_Not_Resolved_Atoms>  (341) 
nan

$$$$
CHEMBL4103321
     RDKit          3D

  0  0  0  0  0  0  0  0  0  0999 V3000
M  V30 BEGIN CTAB
M  V30 COUNTS 43 46 0 0 0
M  V30 BEGIN ATOM
M  V30 1 C -1.980426 -2.005106 2.988514 0
M  V30 2 N -1.525453 -2.770620 1.852944 0
M  V30 3 C -0.592738 -2.420590 0.961944 0
M  V30 4 C 0.179452 -1.182834 0.933998 0
M  V30 5 C -0.471091 0.017604 1.137123 0
M  V30 6 C 0.241009 1.199298 1.114584 0
M  V30 7 C 1.597224 1.266540 0.896883 0
M  V30 8 N 2.326885 2.482000 0.875812 0
M  V30 9 C 1.761220 3.792363 1.114414 0
M  V30 10 C 1.855028 4.500150 -0.246155 0
M  V30 11 N 3.257856 4.846923 -0.374286 0
M  V30 12 C 4.082420 3.683193 -0.391904 0
M  V30 13 C 3.717260 2.624655 0.619343 0
M  V30 14 C 2.218088 0.055773 0.697824 0
M  V30 15 C 1.541469 -1.147493 0.712780 0
M  V30 16 C -0.424546 -3.410681 0.012780 0
M  V30 17 C -1.312984 -4.410559 0.362531 0
M  V30 18 C -1.578322 -5.635592 -0.226591 0
M  V30 19 Cl -0.690644 -6.094667 -1.667651 0
M  V30 20 C -2.535699 -6.470793 0.331661 0
M  V30 21 C -3.185962 -6.028096 1.466967 0
M  V30 22 C -4.171029 -6.925666 2.012738 0
M  V30 23 N -4.979059 -7.644066 2.459849 0
M  V30 24 N -2.911006 -4.833243 2.021604 0
M  V30 25 C -1.987279 -4.002863 1.501341 0
M  V30 26 H -2.867252 -1.378386 2.759911 0
M  V30 27 H -2.355343 -2.735332 3.758080 0
M  V30 28 H -1.175966 -1.432733 3.468795 0
M  V30 29 H -1.531419 -0.005807 1.309673 0
M  V30 30 H -0.344962 2.081943 1.281100 0
M  V30 31 H 0.717369 3.786329 1.453515 0
M  V30 32 H 2.371679 4.418288 1.801426 0
M  V30 33 H 1.225554 5.405289 -0.255233 0
M  V30 34 H 1.533903 3.754634 -0.994874 0
M  V30 35 H 3.376993 5.336722 -1.294057 0
M  V30 36 H 4.219053 3.240970 -1.421167 0
M  V30 37 H 5.116241 4.029600 -0.130030 0
M  V30 38 H 4.197563 2.909491 1.599021 0
M  V30 39 H 4.232447 1.702389 0.298657 0
M  V30 40 H 3.266586 -0.053225 0.517134 0
M  V30 41 H 2.012118 -2.099988 0.559101 0
M  V30 42 H 0.258050 -3.407877 -0.828971 0
M  V30 43 H -2.709319 -7.417317 -0.162337 0
M  V30 END ATOM
M  V30 BEGIN BOND
M  V30 1 1 1 2
M  V30 2 1 2 3
M  V30 3 1 3 4
M  V30 4 2 4 5
M  V30 5 1 5 6
M  V30 6 2 6 7
M  V30 7 1 7 8
M  V30 8 1 8 9
M  V30 9 1 9 10
M  V30 10 1 10 11
M  V30 11 1 11 12
M  V30 12 1 12 13
M  V30 13 1 7 14
M  V30 14 2 14 15
M  V30 15 2 3 16
M  V30 16 1 16 17
M  V30 17 2 17 18
M  V30 18 1 18 19
M  V30 19 1 18 20
M  V30 20 2 20 21
M  V30 21 1 21 22
M  V30 22 3 22 23
M  V30 23 1 21 24
M  V30 24 2 24 25
M  V30 25 1 25 2
M  V30 26 1 15 4
M  V30 27 1 25 17
M  V30 28 1 13 8
M  V30 29 1 1 26
M  V30 30 1 1 27
M  V30 31 1 1 28
M  V30 32 1 5 29
M  V30 33 1 6 30
M  V30 34 1 9 31
M  V30 35 1 9 32
M  V30 36 1 10 33
M  V30 37 1 10 34
M  V30 38 1 11 35
M  V30 39 1 12 36
M  V30 40 1 12 37
M  V30 41 1 13 38
M  V30 42 1 13 39
M  V30 43 1 14 40
M  V30 44 1 15 41
M  V30 45 1 16 42
M  V30 46 1 20 43
M  V30 END BOND
M  V30 END CTAB
M  END
>  <Dataset>  (342) 
ChEMBL_Kinases

>  <Ligand_Instance>  (342) 
nan

>  <PDB_ID>  (342) 
nan

>  <Standardized_SMILES>  (342) 
Cn1c(-c2ccc(N3CCNCC3)cc2)cc2c(Cl)cc(C#N)nc21

>  <Name>  (342) 
nan

>  <Pocket>  (342) 
nan

>  <ATP_Site>  (342) 
nan

>  <Peripheral>  (342) 
nan

>  <Num_H_Atoms_ProtBoundConf>  (342) 
nan

>  <Num_Resolved_Atoms>  (342) 
nan

>  <Num_Not_Resolved_Atoms>  (342) 
nan

$$$$
CHEMBL4098608
     RDKit          3D

  0  0  0  0  0  0  0  0  0  0999 V3000
M  V30 BEGIN CTAB
M  V30 COUNTS 54 57 0 0 0
M  V30 BEGIN ATOM
M  V30 1 C 1.284691 -7.026815 3.956538 0
M  V30 2 O 1.945639 -6.395647 2.886725 0
M  V30 3 C 1.057936 -5.539014 2.208168 0
M  V30 4 C 1.767687 -4.856877 1.055749 0
M  V30 5 N 0.951669 -3.960863 0.302085 0
M  V30 6 C 0.920857 -2.617896 0.768505 0
M  V30 7 O 1.547050 -2.255081 1.822886 0
M  V30 8 C 0.157229 -1.622845 0.030158 0
M  V30 9 C -0.057583 -0.276752 0.213911 0
M  V30 10 C -0.881394 0.087102 -0.861232 0
M  V30 11 C -1.252404 1.519925 -0.887868 0
M  V30 12 N -0.342878 2.474659 -0.672403 0
M  V30 13 C -0.564230 3.799735 -0.670804 0
M  V30 14 N 0.645475 4.510448 -0.405391 0
M  V30 15 C 1.211717 4.844976 0.855025 0
M  V30 16 C 2.403043 5.542344 1.033073 0
M  V30 17 C 2.590931 5.651408 2.377756 0
M  V30 18 N 1.569338 5.053014 2.983733 0
M  V30 19 N 0.714051 4.552892 2.092820 0
M  V30 20 C -0.507087 3.838902 2.378081 0
M  V30 21 N -1.829122 4.226329 -0.909666 0
M  V30 22 C -2.790025 3.333630 -1.133466 0
M  V30 23 C -2.531215 1.978868 -1.128608 0
M  V30 24 C -3.609043 0.983417 -1.381351 0
M  V30 25 C -1.142055 -1.011439 -1.650775 0
M  V30 26 N -0.483521 -2.044386 -1.066664 0
M  V30 27 C -0.521578 -3.371700 -1.605233 0
M  V30 28 C 0.230468 -4.407161 -0.859345 0 CFG=2
M  V30 29 C -0.634147 -5.627382 -0.589211 0
M  V30 30 H 0.898185 -6.261270 4.672468 0
M  V30 31 H 0.487632 -7.693461 3.620711 0
M  V30 32 H 2.084102 -7.564328 4.508813 0
M  V30 33 H 0.135798 -6.070475 1.914966 0
M  V30 34 H 0.743656 -4.793565 2.971403 0
M  V30 35 H 2.618376 -4.298068 1.490316 0
M  V30 36 H 2.199628 -5.601281 0.350997 0
M  V30 37 H 0.373475 0.253407 1.043355 0
M  V30 38 H 1.115236 4.786626 -1.278992 0
M  V30 39 H 3.096273 5.948669 0.292897 0
M  V30 40 H 3.358763 6.100559 2.990762 0
M  V30 41 H -0.306112 2.766245 2.110713 0
M  V30 42 H -1.372878 4.224598 1.840708 0
M  V30 43 H -0.639050 3.822107 3.478838 0
M  V30 44 H -3.779738 3.727065 -1.318026 0
M  V30 45 H -3.393796 -0.000444 -0.923046 0
M  V30 46 H -3.845665 0.891896 -2.468798 0
M  V30 47 H -4.572752 1.328022 -0.919558 0
M  V30 48 H -1.770577 -0.868017 -2.519134 0
M  V30 49 H -1.599446 -3.717766 -1.655838 0
M  V30 50 H -0.156123 -3.326008 -2.663101 0
M  V30 51 H 1.042408 -4.808558 -1.549498 0
M  V30 52 H -1.265909 -5.843572 -1.501266 0
M  V30 53 H -0.052881 -6.529881 -0.426575 0
M  V30 54 H -1.359145 -5.379746 0.202388 0
M  V30 END ATOM
M  V30 BEGIN BOND
M  V30 1 1 1 2
M  V30 2 1 2 3
M  V30 3 1 3 4
M  V30 4 1 4 5
M  V30 5 1 5 6
M  V30 6 2 6 7
M  V30 7 1 6 8
M  V30 8 2 8 9
M  V30 9 1 9 10
M  V30 10 1 10 11
M  V30 11 2 11 12
M  V30 12 1 12 13
M  V30 13 1 13 14
M  V30 14 1 14 15
M  V30 15 2 15 16
M  V30 16 1 16 17
M  V30 17 2 17 18
M  V30 18 1 18 19
M  V30 19 1 19 20
M  V30 20 2 13 21
M  V30 21 1 21 22
M  V30 22 2 22 23
M  V30 23 1 23 24
M  V30 24 2 10 25
M  V30 25 1 25 26
M  V30 26 1 26 27
M  V30 27 1 27 28
M  V30 28 1 28 29
M  V30 29 1 28 5
M  V30 30 1 26 8
M  V30 31 1 23 11
M  V30 32 1 19 15
M  V30 33 1 1 30
M  V30 34 1 1 31
M  V30 35 1 1 32
M  V30 36 1 3 33
M  V30 37 1 3 34
M  V30 38 1 4 35
M  V30 39 1 4 36
M  V30 40 1 9 37
M  V30 41 1 14 38
M  V30 42 1 16 39
M  V30 43 1 17 40
M  V30 44 1 20 41
M  V30 45 1 20 42
M  V30 46 1 20 43
M  V30 47 1 22 44
M  V30 48 1 24 45
M  V30 49 1 24 46
M  V30 50 1 24 47
M  V30 51 1 25 48
M  V30 52 1 27 49
M  V30 53 1 27 50
M  V30 54 1 28 51 CFG=3
M  V30 55 1 29 52
M  V30 56 1 29 53
M  V30 57 1 29 54
M  V30 END BOND
M  V30 END CTAB
M  END
>  <Dataset>  (343) 
ChEMBL_Kinases

>  <Ligand_Instance>  (343) 
nan

>  <PDB_ID>  (343) 
nan

>  <Standardized_SMILES>  (343) 
COCCN1C(=O)c2cc(-c3nc(Nc4ccnn4C)ncc3C)cn2C[C@@H]1C

>  <Name>  (343) 
nan

>  <Pocket>  (343) 
nan

>  <ATP_Site>  (343) 
nan

>  <Peripheral>  (343) 
nan

>  <Num_H_Atoms_ProtBoundConf>  (343) 
nan

>  <Num_Resolved_Atoms>  (343) 
nan

>  <Num_Not_Resolved_Atoms>  (343) 
nan

$$$$
CHEMBL4800032
     RDKit          3D

  0  0  0  0  0  0  0  0  0  0999 V3000
M  V30 BEGIN CTAB
M  V30 COUNTS 58 62 0 0 0
M  V30 BEGIN ATOM
M  V30 1 C -1.019197 -4.778405 3.884975 0
M  V30 2 O 0.172923 -5.497854 4.061157 0
M  V30 3 C 1.317205 -5.245039 3.311692 0
M  V30 4 C 1.353546 -4.258841 2.335638 0
M  V30 5 C 2.529727 -4.047310 1.612253 0
M  V30 6 C 2.489043 -2.984482 0.597381 0
M  V30 7 C 1.669079 -1.913713 0.876622 0
M  V30 8 N 1.593832 -0.914661 -0.019968 0
M  V30 9 C 2.266108 -0.881578 -1.181259 0
M  V30 10 C 2.239508 0.064043 -2.108898 0
M  V30 11 N 1.478888 1.303013 -2.098360 0
M  V30 12 C 1.830936 2.641045 -1.619060 0
M  V30 13 C 0.731639 3.292080 -0.871096 0
M  V30 14 C -0.340607 2.346026 -0.375301 0
M  V30 15 C -0.880584 1.471042 -1.463719 0
M  V30 16 C -2.137999 2.121875 -2.013728 0
M  V30 17 N -3.143828 2.271995 -0.975014 0
M  V30 18 C -4.462005 2.838869 -1.083688 0
M  V30 19 O -4.763308 3.251428 -2.232277 0
M  V30 20 C -5.348651 2.906800 0.086946 0
M  V30 21 C -5.435663 1.638851 0.949848 0
M  V30 22 C -4.829347 2.915199 1.455706 0
M  V30 23 C 0.106449 1.365588 -2.622043 0
M  V30 24 S 3.278310 -0.364301 -3.416772 0
M  V30 25 N 3.801610 -1.984697 -2.631149 0
M  V30 26 C 3.090136 -1.945326 -1.474354 0
M  V30 27 C 3.212968 -3.002506 -0.597935 0
M  V30 28 C 3.646168 -4.818037 1.871318 0
M  V30 29 C 3.652885 -5.810351 2.834365 0
M  V30 30 C 2.465213 -5.979754 3.521698 0
M  V30 31 N 2.429012 -6.999686 4.530477 0
M  V30 32 H -1.557183 -5.052353 2.954051 0
M  V30 33 H -1.717127 -5.065692 4.708686 0
M  V30 34 H -0.886509 -3.680731 3.980153 0
M  V30 35 H 0.421949 -3.721616 2.222638 0
M  V30 36 H 1.072009 -1.835077 1.796765 0
M  V30 37 H 2.083645 3.276565 -2.485806 0
M  V30 38 H 2.694270 2.475361 -0.943143 0
M  V30 39 H 1.156952 3.797434 0.019513 0
M  V30 40 H 0.241004 4.109345 -1.452530 0
M  V30 41 H -1.139934 2.939430 0.098292 0
M  V30 42 H 0.049737 1.679696 0.427919 0
M  V30 43 H -1.102551 0.449331 -1.071101 0
M  V30 44 H -1.905688 3.131041 -2.407864 0
M  V30 45 H -2.569317 1.547193 -2.861935 0
M  V30 46 H -2.895370 1.924989 -0.005912 0
M  V30 47 H -6.337253 3.367702 -0.139243 0
M  V30 48 H -4.720025 0.818429 0.766693 0
M  V30 49 H -6.422452 1.351848 1.321310 0
M  V30 50 H -5.409646 3.416425 2.265139 0
M  V30 51 H -3.726408 2.986683 1.583181 0
M  V30 52 H -0.059078 2.221904 -3.274896 0
M  V30 53 H -0.182810 0.445500 -3.162975 0
M  V30 54 H 3.806881 -3.889898 -0.686457 0
M  V30 55 H 4.509900 -4.579006 1.257684 0
M  V30 56 H 4.539589 -6.377774 2.996758 0
M  V30 57 H 3.279966 -7.521222 4.821007 0
M  V30 58 H 1.526060 -7.254672 5.013884 0
M  V30 END ATOM
M  V30 BEGIN BOND
M  V30 1 1 1 2
M  V30 2 1 2 3
M  V30 3 2 3 4
M  V30 4 1 4 5
M  V30 5 1 5 6
M  V30 6 1 6 7
M  V30 7 2 7 8
M  V30 8 1 8 9
M  V30 9 2 9 10
M  V30 10 1 10 11
M  V30 11 1 11 12
M  V30 12 1 12 13
M  V30 13 1 13 14
M  V30 14 1 14 15
M  V30 15 1 15 16
M  V30 16 1 16 17
M  V30 17 1 17 18
M  V30 18 2 18 19
M  V30 19 1 18 20
M  V30 20 1 20 21
M  V30 21 1 21 22
M  V30 22 1 15 23
M  V30 23 1 10 24
M  V30 24 1 24 25
M  V30 25 2 25 26
M  V30 26 1 26 27
M  V30 27 2 5 28
M  V30 28 1 28 29
M  V30 29 2 29 30
M  V30 30 1 30 31
M  V30 31 1 30 3
M  V30 32 2 27 6
M  V30 33 1 26 9
M  V30 34 1 23 11
M  V30 35 1 22 20
M  V30 36 1 1 32
M  V30 37 1 1 33
M  V30 38 1 1 34
M  V30 39 1 4 35
M  V30 40 1 7 36
M  V30 41 1 12 37
M  V30 42 1 12 38
M  V30 43 1 13 39
M  V30 44 1 13 40
M  V30 45 1 14 41
M  V30 46 1 14 42
M  V30 47 1 15 43
M  V30 48 1 16 44
M  V30 49 1 16 45
M  V30 50 1 17 46
M  V30 51 1 20 47
M  V30 52 1 21 48
M  V30 53 1 21 49
M  V30 54 1 22 50
M  V30 55 1 22 51
M  V30 56 1 23 52
M  V30 57 1 23 53
M  V30 58 1 27 54
M  V30 59 1 28 55
M  V30 60 1 29 56
M  V30 61 1 31 57
M  V30 62 1 31 58
M  V30 END BOND
M  V30 END CTAB
M  END
>  <Dataset>  (344) 
ChEMBL_Kinases

>  <Ligand_Instance>  (344) 
nan

>  <PDB_ID>  (344) 
nan

>  <Standardized_SMILES>  (344) 
COc1cc(-c2cnc3c(N4CCCC(CNC(=O)C5CC5)C4)snc3c2)ccc1N

>  <Name>  (344) 
nan

>  <Pocket>  (344) 
nan

>  <ATP_Site>  (344) 
nan

>  <Peripheral>  (344) 
nan

>  <Num_H_Atoms_ProtBoundConf>  (344) 
nan

>  <Num_Resolved_Atoms>  (344) 
nan

>  <Num_Not_Resolved_Atoms>  (344) 
nan

$$$$
CHEMBL4098540
     RDKit          3D

  0  0  0  0  0  0  0  0  0  0999 V3000
M  V30 BEGIN CTAB
M  V30 COUNTS 42 46 0 0 0
M  V30 BEGIN ATOM
M  V30 1 C 2.773082 -3.515704 3.494074 0
M  V30 2 C 1.955463 -3.744804 2.418530 0
M  V30 3 C 2.146867 -2.995482 1.277030 0
M  V30 4 C 3.128608 -2.037124 1.200058 0
M  V30 5 S 3.453477 -1.015096 -0.237043 0
M  V30 6 C 2.278983 -1.485876 -1.497788 0
M  V30 7 N 2.511873 -2.455937 -2.399974 0
M  V30 8 C 1.611686 -2.785757 -3.331696 0
M  V30 9 N 0.428873 -2.154880 -3.402514 0
M  V30 10 C 0.108627 -1.173514 -2.543192 0
M  V30 11 C 1.065611 -0.836226 -1.568416 0
M  V30 12 N 0.874110 0.176739 -0.629116 0
M  V30 13 C -0.162483 0.610738 0.053458 0
M  V30 14 C 0.059241 1.730850 0.956941 0
M  V30 15 C -0.746851 2.523674 1.705790 0
M  V30 16 C -0.325639 3.505734 2.559140 0
M  V30 17 C 1.015558 3.770646 2.722177 0
M  V30 18 N 1.849936 3.007059 1.994951 0
M  V30 19 C 1.411049 2.057363 1.172687 0
M  V30 20 C -1.507443 0.008755 0.007716 0
M  V30 21 C -2.004813 -0.038989 1.323895 0
M  V30 22 C -3.275162 -0.548849 1.492564 0
M  V30 23 C -3.986636 -0.981182 0.395297 0
M  V30 24 C -3.508322 -0.941328 -0.893802 0
M  V30 25 C -2.242848 -0.438007 -1.096581 0
M  V30 26 S -1.555140 -0.456454 -2.779182 0
M  V30 27 C 3.940396 -1.816950 2.282545 0
M  V30 28 C 3.778184 -2.554650 3.455549 0
M  V30 29 H 2.664310 -4.076524 4.413119 0
M  V30 30 H 1.173063 -4.500031 2.462788 0
M  V30 31 H 1.545953 -3.121938 0.402540 0
M  V30 32 H 1.802783 -3.565624 -4.055021 0
M  V30 33 H -1.798407 2.342295 1.536170 0
M  V30 34 H -1.109199 4.042934 3.081389 0
M  V30 35 H 1.207678 4.567733 3.423124 0
M  V30 36 H 2.251933 1.566157 0.687189 0
M  V30 37 H -1.382076 0.286532 2.167477 0
M  V30 38 H -3.708118 -0.608227 2.478554 0
M  V30 39 H -5.000557 -1.392960 0.483107 0
M  V30 40 H -3.988821 -1.255374 -1.807689 0
M  V30 41 H 4.723477 -1.092896 2.302035 0
M  V30 42 H 4.406584 -2.399372 4.323834 0
M  V30 END ATOM
M  V30 BEGIN BOND
M  V30 1 2 1 2
M  V30 2 1 2 3
M  V30 3 2 3 4
M  V30 4 1 4 5
M  V30 5 1 5 6
M  V30 6 2 6 7
M  V30 7 1 7 8
M  V30 8 2 8 9
M  V30 9 1 9 10
M  V30 10 2 10 11
M  V30 11 1 11 12
M  V30 12 2 12 13
M  V30 13 1 13 14
M  V30 14 2 14 15
M  V30 15 1 15 16
M  V30 16 2 16 17
M  V30 17 1 17 18
M  V30 18 2 18 19
M  V30 19 1 13 20
M  V30 20 2 20 21
M  V30 21 1 21 22
M  V30 22 2 22 23
M  V30 23 1 23 24
M  V30 24 2 24 25
M  V30 25 1 25 26
M  V30 26 1 4 27
M  V30 27 2 27 28
M  V30 28 1 28 1
M  V30 29 1 11 6
M  V30 30 1 19 14
M  V30 31 1 25 20
M  V30 32 1 26 10
M  V30 33 1 1 29
M  V30 34 1 2 30
M  V30 35 1 3 31
M  V30 36 1 8 32
M  V30 37 1 15 33
M  V30 38 1 16 34
M  V30 39 1 17 35
M  V30 40 1 19 36
M  V30 41 1 21 37
M  V30 42 1 22 38
M  V30 43 1 23 39
M  V30 44 1 24 40
M  V30 45 1 27 41
M  V30 46 1 28 42
M  V30 END BOND
M  V30 END CTAB
M  END
>  <Dataset>  (345) 
ChEMBL_Kinases

>  <Ligand_Instance>  (345) 
nan

>  <PDB_ID>  (345) 
nan

>  <Standardized_SMILES>  (345) 
c1ccc(Sc2ncnc3c2N=C(c2cccnc2)c2ccccc2S3)cc1

>  <Name>  (345) 
nan

>  <Pocket>  (345) 
nan

>  <ATP_Site>  (345) 
nan

>  <Peripheral>  (345) 
nan

>  <Num_H_Atoms_ProtBoundConf>  (345) 
nan

>  <Num_Resolved_Atoms>  (345) 
nan

>  <Num_Not_Resolved_Atoms>  (345) 
nan

$$$$
CHEMBL4800073
     RDKit          3D

  0  0  0  0  0  0  0  0  0  0999 V3000
M  V30 BEGIN CTAB
M  V30 COUNTS 52 56 0 0 0
M  V30 BEGIN ATOM
M  V30 1 C 4.375109 0.737791 4.629445 0
M  V30 2 C 4.525314 -0.685602 4.266828 0 CFG=1
M  V30 3 C 3.204591 -1.460795 4.261207 0
M  V30 4 C 3.588699 -2.714734 3.463269 0
M  V30 5 C 4.997071 -2.414752 2.925466 0
M  V30 6 N 5.009433 -1.030626 3.009237 0
M  V30 7 C 4.984037 -0.204698 1.914282 0
M  V30 8 C 3.795931 -0.342580 1.028654 0
M  V30 9 N 2.627094 0.348056 1.140613 0
M  V30 10 C 1.779285 -0.039293 0.164914 0
M  V30 11 C 0.478177 0.380285 -0.125893 0
M  V30 12 C -0.115841 -0.229734 -1.212355 0
M  V30 13 N -1.458968 0.129215 -1.600769 0
M  V30 14 C -2.375470 -0.716681 -0.917229 0
M  V30 15 O -1.863196 -1.569856 -0.146215 0
M  V30 16 C -3.826592 -0.645633 -1.061427 0
M  V30 17 C -4.554007 -1.551326 -0.315103 0
M  V30 18 C -5.932543 -1.547817 -0.396461 0
M  V30 19 C -6.512664 -0.635620 -1.222708 0
M  V30 20 C -7.893052 -0.640765 -1.296625 0
M  V30 21 N -8.548701 0.236201 -2.096509 0
M  V30 22 C -7.877613 1.146549 -2.850074 0
M  V30 23 C -6.495221 1.171778 -2.793504 0
M  V30 24 C -5.811839 0.292112 -1.989702 0
M  V30 25 C -4.425317 0.259668 -1.882733 0
M  V30 26 C 0.493622 -1.199395 -1.995981 0
M  V30 27 C 1.783087 -1.582561 -1.668925 0
M  V30 28 C 2.426664 -1.004501 -0.590393 0
M  V30 29 N 3.646047 -1.165892 -0.041961 0
M  V30 30 H 4.288536 0.816086 5.735475 0
M  V30 31 H 3.481946 1.231954 4.200633 0
M  V30 32 H 5.302676 1.261124 4.366194 0
M  V30 33 H 5.147653 -1.180348 5.064956 0
M  V30 34 H 2.880597 -1.694743 5.275185 0
M  V30 35 H 2.432308 -0.870644 3.714044 0
M  V30 36 H 2.900676 -2.828252 2.586466 0
M  V30 37 H 3.599077 -3.597022 4.127423 0
M  V30 38 H 5.205122 -2.909229 1.973056 0
M  V30 39 H 5.719332 -2.843732 3.678684 0
M  V30 40 H 5.851644 -0.446134 1.244648 0
M  V30 41 H 5.121419 0.854083 2.213066 0
M  V30 42 H -0.041436 1.127986 0.448234 0
M  V30 43 H -1.833772 0.846762 -2.246057 0
M  V30 44 H -4.103027 -2.290835 0.353613 0
M  V30 45 H -6.541401 -2.244920 0.175177 0
M  V30 46 H -8.565323 -1.303509 -0.758476 0
M  V30 47 H -8.438069 1.826049 -3.472791 0
M  V30 48 H -5.921049 1.877749 -3.374838 0
M  V30 49 H -3.857911 0.969901 -2.468161 0
M  V30 50 H -0.019417 -1.649871 -2.843472 0
M  V30 51 H 2.318430 -2.340144 -2.245224 0
M  V30 52 H 4.413195 -1.827647 -0.363493 0
M  V30 END ATOM
M  V30 BEGIN BOND
M  V30 1 1 1 2
M  V30 2 1 2 3
M  V30 3 1 3 4
M  V30 4 1 4 5
M  V30 5 1 5 6
M  V30 6 1 6 7
M  V30 7 1 7 8
M  V30 8 2 8 9
M  V30 9 1 9 10
M  V30 10 2 10 11
M  V30 11 1 11 12
M  V30 12 1 12 13
M  V30 13 1 13 14
M  V30 14 2 14 15
M  V30 15 1 14 16
M  V30 16 2 16 17
M  V30 17 1 17 18
M  V30 18 2 18 19
M  V30 19 1 19 20
M  V30 20 2 20 21
M  V30 21 1 21 22
M  V30 22 2 22 23
M  V30 23 1 23 24
M  V30 24 2 24 25
M  V30 25 2 12 26
M  V30 26 1 26 27
M  V30 27 2 27 28
M  V30 28 1 28 29
M  V30 29 1 6 2
M  V30 30 1 29 8
M  V30 31 1 28 10
M  V30 32 1 25 16
M  V30 33 1 24 19
M  V30 34 1 1 30
M  V30 35 1 1 31
M  V30 36 1 1 32
M  V30 37 1 2 33 CFG=1
M  V30 38 1 3 34
M  V30 39 1 3 35
M  V30 40 1 4 36
M  V30 41 1 4 37
M  V30 42 1 5 38
M  V30 43 1 5 39
M  V30 44 1 7 40
M  V30 45 1 7 41
M  V30 46 1 11 42
M  V30 47 1 13 43
M  V30 48 1 17 44
M  V30 49 1 18 45
M  V30 50 1 20 46
M  V30 51 1 22 47
M  V30 52 1 23 48
M  V30 53 1 25 49
M  V30 54 1 26 50
M  V30 55 1 27 51
M  V30 56 1 29 52
M  V30 END BOND
M  V30 END CTAB
M  END
>  <Dataset>  (346) 
ChEMBL_Kinases

>  <Ligand_Instance>  (346) 
nan

>  <PDB_ID>  (346) 
nan

>  <Standardized_SMILES>  (346) 
C[C@H]1CCCN1Cc1nc2cc(NC(=O)c3ccc4cnccc4c3)ccc2[nH]1

>  <Name>  (346) 
nan

>  <Pocket>  (346) 
nan

>  <ATP_Site>  (346) 
nan

>  <Peripheral>  (346) 
nan

>  <Num_H_Atoms_ProtBoundConf>  (346) 
nan

>  <Num_Resolved_Atoms>  (346) 
nan

>  <Num_Not_Resolved_Atoms>  (346) 
nan

$$$$
CHEMBL4800085
     RDKit          3D

  0  0  0  0  0  0  0  0  0  0999 V3000
M  V30 BEGIN CTAB
M  V30 COUNTS 60 63 0 0 0
M  V30 BEGIN ATOM
M  V30 1 C 5.231362 -2.517718 5.105279 0
M  V30 2 O 5.013065 -1.116882 5.051428 0
M  V30 3 C 4.188365 -0.537909 4.136684 0
M  V30 4 O 3.625372 -1.353443 3.326913 0
M  V30 5 C 4.056548 0.891353 4.194809 0
M  V30 6 S 4.859909 2.011312 5.354451 0
M  V30 7 C 4.078953 3.575319 4.639220 0
M  V30 8 C 3.276480 3.101429 3.580954 0
M  V30 9 C 3.281452 1.762402 3.378744 0
M  V30 10 N 2.524464 1.181204 2.347487 0
M  V30 11 C 1.660551 1.709114 1.374691 0
M  V30 12 N 0.300566 1.714177 1.470601 0
M  V30 13 C -0.467289 2.224306 0.504725 0
M  V30 14 N -1.888590 2.257609 0.521804 0
M  V30 15 C -2.565364 1.097823 0.037947 0
M  V30 16 C -1.884327 -0.018944 -0.390996 0
M  V30 17 C -2.432435 -1.199690 -0.873110 0
M  V30 18 C -3.827580 -1.250603 -0.925812 0
M  V30 19 C -4.536529 -0.147268 -0.502376 0
M  V30 20 C -3.960532 1.010413 -0.028195 0
M  V30 21 O -4.729493 2.090105 0.385364 0
M  V30 22 C -6.136230 1.977870 0.311329 0
M  V30 23 C -4.200197 -2.592498 -1.482296 0
M  V30 24 C -2.910540 -2.979492 -2.190146 0
M  V30 25 N -1.856309 -2.411600 -1.331960 0
M  V30 26 C -0.579167 -2.858801 -0.961070 0
M  V30 27 O 0.056741 -2.115549 -0.126897 0
M  V30 28 C 0.290473 -3.976833 -1.253743 0
M  V30 29 N -0.179424 -4.953856 -2.186012 0
M  V30 30 C -0.272820 -4.537025 -3.540046 0
M  V30 31 C 0.669899 -6.116476 -2.100746 0
M  V30 32 N 0.087321 2.758214 -0.609646 0
M  V30 33 C 1.441636 2.780981 -0.758321 0
M  V30 34 C 2.238635 2.250970 0.243186 0
M  V30 35 Br 4.130442 2.292417 0.020876 0
M  V30 36 H 5.051440 -2.895045 6.142214 0
M  V30 37 H 6.258186 -2.754211 4.785501 0
M  V30 38 H 4.484638 -3.029331 4.431793 0
M  V30 39 H 4.187312 4.634993 4.935803 0
M  V30 40 H 2.722364 3.823523 3.011248 0
M  V30 41 H 2.451266 0.185495 2.088468 0
M  V30 42 H -2.507394 3.045073 0.852558 0
M  V30 43 H -0.787087 0.046211 -0.340252 0
M  V30 44 H -5.622888 -0.266387 -0.574390 0
M  V30 45 H -6.432721 1.260247 1.134691 0
M  V30 46 H -6.457977 1.583168 -0.659091 0
M  V30 47 H -6.586813 2.973342 0.508349 0
M  V30 48 H -4.468081 -3.306461 -0.684693 0
M  V30 49 H -4.979683 -2.499814 -2.251815 0
M  V30 50 H -2.863393 -2.482472 -3.175169 0
M  V30 51 H -2.811062 -4.076951 -2.260526 0
M  V30 52 H 0.456112 -4.556440 -0.291455 0
M  V30 53 H 1.345242 -3.637027 -1.504396 0
M  V30 54 H 0.508690 -5.063205 -4.129974 0
M  V30 55 H 0.004326 -3.450935 -3.646962 0
M  V30 56 H -1.221637 -4.781062 -4.063259 0
M  V30 57 H 1.222431 -6.294656 -3.040955 0
M  V30 58 H 1.441164 -6.000867 -1.282872 0
M  V30 59 H 0.084654 -7.016974 -1.788943 0
M  V30 60 H 1.892175 3.212389 -1.656125 0
M  V30 END ATOM
M  V30 BEGIN BOND
M  V30 1 1 1 2
M  V30 2 1 2 3
M  V30 3 2 3 4
M  V30 4 1 3 5
M  V30 5 1 5 6
M  V30 6 1 6 7
M  V30 7 2 7 8
M  V30 8 1 8 9
M  V30 9 1 9 10
M  V30 10 1 10 11
M  V30 11 2 11 12
M  V30 12 1 12 13
M  V30 13 1 13 14
M  V30 14 1 14 15
M  V30 15 2 15 16
M  V30 16 1 16 17
M  V30 17 2 17 18
M  V30 18 1 18 19
M  V30 19 2 19 20
M  V30 20 1 20 21
M  V30 21 1 21 22
M  V30 22 1 18 23
M  V30 23 1 23 24
M  V30 24 1 24 25
M  V30 25 1 25 26
M  V30 26 2 26 27
M  V30 27 1 26 28
M  V30 28 1 28 29
M  V30 29 1 29 30
M  V30 30 1 29 31
M  V30 31 2 13 32
M  V30 32 1 32 33
M  V30 33 2 33 34
M  V30 34 1 34 35
M  V30 35 2 9 5
M  V30 36 1 34 11
M  V30 37 1 20 15
M  V30 38 1 25 17
M  V30 39 1 1 36
M  V30 40 1 1 37
M  V30 41 1 1 38
M  V30 42 1 7 39
M  V30 43 1 8 40
M  V30 44 1 10 41
M  V30 45 1 14 42
M  V30 46 1 16 43
M  V30 47 1 19 44
M  V30 48 1 22 45
M  V30 49 1 22 46
M  V30 50 1 22 47
M  V30 51 1 23 48
M  V30 52 1 23 49
M  V30 53 1 24 50
M  V30 54 1 24 51
M  V30 55 1 28 52
M  V30 56 1 28 53
M  V30 57 1 30 54
M  V30 58 1 30 55
M  V30 59 1 30 56
M  V30 60 1 31 57
M  V30 61 1 31 58
M  V30 62 1 31 59
M  V30 63 1 33 60
M  V30 END BOND
M  V30 END CTAB
M  END
>  <Dataset>  (347) 
ChEMBL_Kinases

>  <Ligand_Instance>  (347) 
nan

>  <PDB_ID>  (347) 
nan

>  <Standardized_SMILES>  (347) 
COC(=O)c1sccc1Nc1nc(Nc2cc3c(cc2OC)CCN3C(=O)CN(C)C)ncc1Br

>  <Name>  (347) 
nan

>  <Pocket>  (347) 
nan

>  <ATP_Site>  (347) 
nan

>  <Peripheral>  (347) 
nan

>  <Num_H_Atoms_ProtBoundConf>  (347) 
nan

>  <Num_Resolved_Atoms>  (347) 
nan

>  <Num_Not_Resolved_Atoms>  (347) 
nan

$$$$
CHEMBL4800119
     RDKit          3D

  0  0  0  0  0  0  0  0  0  0999 V3000
M  V30 BEGIN CTAB
M  V30 COUNTS 62 66 0 0 0
M  V30 BEGIN ATOM
M  V30 1 C 1.921903 -3.718126 5.194881 0
M  V30 2 C 2.172690 -2.483932 4.400524 0
M  V30 3 C 2.902275 -1.384797 4.799121 0
M  V30 4 N 3.049536 -0.320432 3.980651 0
M  V30 5 C 2.495111 -0.301771 2.765204 0
M  V30 6 N 2.603405 0.818328 1.860017 0
M  V30 7 C 2.001645 0.687155 0.555437 0
M  V30 8 C 2.725995 0.010099 -0.401153 0
M  V30 9 C 2.186085 -0.160922 -1.681800 0
M  V30 10 C 0.932456 0.361193 -1.942693 0
M  V30 11 C 0.210696 1.039963 -0.975629 0
M  V30 12 C 0.752809 1.209110 0.301562 0
M  V30 13 N -1.103234 1.593899 -1.198295 0
M  V30 14 C -1.620098 2.659523 -0.365621 0
M  V30 15 C -2.815779 2.279503 0.447351 0
M  V30 16 C -2.104586 3.831020 -1.241288 0
M  V30 17 C -1.853047 1.006939 -2.291688 0 CFG=2
M  V30 18 C -2.526925 -0.282995 -1.975590 0
M  V30 19 C -0.940926 0.760623 -3.461314 0
M  V30 20 O -1.210409 1.004506 -4.689492 0
M  V30 21 N 0.357553 0.203915 -3.235199 0
M  V30 22 C 1.110212 -0.506940 -4.249953 0
M  V30 23 N 1.791357 -1.381943 2.399926 0
M  V30 24 C 1.591947 -2.479183 3.143707 0
M  V30 25 C 0.771853 -3.499632 2.509027 0
M  V30 26 C 1.128580 -4.804238 2.263901 0
M  V30 27 N 0.325785 -5.691225 1.658416 0
M  V30 28 C -0.902186 -5.382766 1.236685 0
M  V30 29 C -1.303848 -4.093940 1.458684 0
M  V30 30 C -2.576070 -3.743122 1.035196 0
M  V30 31 C -3.099864 -2.456179 1.209184 0
M  V30 32 C -2.299716 -1.516453 1.829583 0
M  V30 33 C -1.045937 -1.898880 2.235952 0
M  V30 34 C -0.513551 -3.139623 2.079115 0
M  V30 35 H 2.196959 -3.558445 6.271377 0
M  V30 36 H 2.578438 -4.539198 4.842915 0
M  V30 37 H 0.868333 -4.054362 5.099984 0
M  V30 38 H 3.331806 -1.436598 5.781865 0
M  V30 39 H 3.108291 1.677913 2.175456 0
M  V30 40 H 3.702313 -0.399787 -0.214974 0
M  V30 41 H 2.719624 -0.683766 -2.459365 0
M  V30 42 H 0.274460 1.710434 1.102306 0
M  V30 43 H -0.800210 3.116929 0.218615 0
M  V30 44 H -3.400472 1.505302 -0.065298 0
M  V30 45 H -3.421117 3.176429 0.656775 0
M  V30 46 H -2.563578 1.856273 1.439767 0
M  V30 47 H -1.455786 4.014730 -2.092921 0
M  V30 48 H -3.182434 3.693750 -1.472197 0
M  V30 49 H -2.074684 4.766387 -0.629618 0
M  V30 50 H -2.628756 1.707722 -2.695133 0
M  V30 51 H -2.017291 -0.921086 -1.230275 0
M  V30 52 H -2.534055 -0.910420 -2.914820 0
M  V30 53 H -3.615740 -0.173912 -1.746082 0
M  V30 54 H 1.327219 -1.537130 -3.894733 0
M  V30 55 H 0.537461 -0.552910 -5.176854 0
M  V30 56 H 2.107734 -0.006053 -4.390211 0
M  V30 57 H 2.095301 -5.112373 2.575225 0
M  V30 58 H -1.565933 -6.099289 0.741236 0
M  V30 59 H -3.236453 -4.444823 0.546353 0
M  V30 60 H -4.102618 -2.210357 0.867137 0
M  V30 61 H -2.677543 -0.501298 1.980546 0
M  V30 62 H -0.488165 -1.124975 2.712223 0
M  V30 END ATOM
M  V30 BEGIN BOND
M  V30 1 1 1 2
M  V30 2 2 2 3
M  V30 3 1 3 4
M  V30 4 2 4 5
M  V30 5 1 5 6
M  V30 6 1 6 7
M  V30 7 2 7 8
M  V30 8 1 8 9
M  V30 9 2 9 10
M  V30 10 1 10 11
M  V30 11 2 11 12
M  V30 12 1 11 13
M  V30 13 1 13 14
M  V30 14 1 14 15
M  V30 15 1 14 16
M  V30 16 1 13 17
M  V30 17 1 17 18
M  V30 18 1 17 19
M  V30 19 2 19 20
M  V30 20 1 19 21
M  V30 21 1 21 22
M  V30 22 1 5 23
M  V30 23 2 23 24
M  V30 24 1 24 25
M  V30 25 2 25 26
M  V30 26 1 26 27
M  V30 27 2 27 28
M  V30 28 1 28 29
M  V30 29 2 29 30
M  V30 30 1 30 31
M  V30 31 2 31 32
M  V30 32 1 32 33
M  V30 33 2 33 34
M  V30 34 1 24 2
M  V30 35 1 34 25
M  V30 36 1 12 7
M  V30 37 1 34 29
M  V30 38 1 21 10
M  V30 39 1 1 35
M  V30 40 1 1 36
M  V30 41 1 1 37
M  V30 42 1 3 38
M  V30 43 1 6 39
M  V30 44 1 8 40
M  V30 45 1 9 41
M  V30 46 1 12 42
M  V30 47 1 14 43
M  V30 48 1 15 44
M  V30 49 1 15 45
M  V30 50 1 15 46
M  V30 51 1 16 47
M  V30 52 1 16 48
M  V30 53 1 16 49
M  V30 54 1 17 50 CFG=3
M  V30 55 1 18 51
M  V30 56 1 18 52
M  V30 57 1 18 53
M  V30 58 1 22 54
M  V30 59 1 22 55
M  V30 60 1 22 56
M  V30 61 1 26 57
M  V30 62 1 28 58
M  V30 63 1 30 59
M  V30 64 1 31 60
M  V30 65 1 32 61
M  V30 66 1 33 62
M  V30 END BOND
M  V30 END CTAB
M  END
>  <Dataset>  (348) 
ChEMBL_Kinases

>  <Ligand_Instance>  (348) 
nan

>  <PDB_ID>  (348) 
nan

>  <Standardized_SMILES>  (348) 
Cc1cnc(Nc2ccc3c(c2)N(C(C)C)[C@H](C)C(=O)N3C)nc1-c1cncc2ccccc12

>  <Name>  (348) 
nan

>  <Pocket>  (348) 
nan

>  <ATP_Site>  (348) 
nan

>  <Peripheral>  (348) 
nan

>  <Num_H_Atoms_ProtBoundConf>  (348) 
nan

>  <Num_Resolved_Atoms>  (348) 
nan

>  <Num_Not_Resolved_Atoms>  (348) 
nan

$$$$
CHEMBL4800136
     RDKit          3D

  0  0  0  0  0  0  0  0  0  0999 V3000
M  V30 BEGIN CTAB
M  V30 COUNTS 50 53 0 0 0
M  V30 BEGIN ATOM
M  V30 1 N 0.985136 -5.082233 1.586331 0
M  V30 2 C 0.992388 -3.691744 1.456229 0
M  V30 3 N 0.952323 -2.843718 2.485407 0
M  V30 4 C 0.984219 -1.506744 2.372069 0
M  V30 5 C 1.064157 -1.005174 1.089119 0
M  V30 6 C 1.088578 0.450139 0.848160 0
M  V30 7 C 1.648533 1.301375 -0.107458 0
M  V30 8 N 1.310021 2.566909 0.233669 0
M  V30 9 N 0.589009 2.592864 1.314863 0
M  V30 10 C 0.037779 3.753878 1.981760 0
M  V30 11 C -0.273457 4.889301 1.055347 0
M  V30 12 C 0.704133 6.032909 1.199276 0
M  V30 13 N 2.015569 5.559881 1.560423 0
M  V30 14 C 2.041709 4.972569 2.877496 0
M  V30 15 C 0.842436 4.136414 3.182238 0
M  V30 16 C 0.429792 1.320749 1.723986 0
M  V30 17 C 1.108210 -1.878869 -0.008815 0
M  V30 18 C 1.071145 -3.278112 0.157756 0
M  V30 19 C 1.073396 -3.939529 -1.187352 0
M  V30 20 N -0.246172 -4.185356 -1.664385 0
M  V30 21 C -1.405503 -4.982834 -1.560335 0
M  V30 22 C -1.451645 -6.063959 -0.713156 0
M  V30 23 C -2.564799 -6.856399 -0.559383 0
M  V30 24 C -3.668337 -6.523265 -1.305631 0
M  V30 25 C -3.639746 -5.447334 -2.156547 0
M  V30 26 C -2.523644 -4.659060 -2.305024 0
M  V30 27 H 1.546296 -5.767808 1.027443 0
M  V30 28 H 0.527012 -5.842194 2.160391 0
M  V30 29 H 0.956503 -0.767053 3.154915 0
M  V30 30 H 2.207532 0.789992 -0.880825 0
M  V30 31 H -0.960751 3.417127 2.387777 0
M  V30 32 H -1.279815 5.346380 1.245920 0
M  V30 33 H -0.335864 4.532319 -0.003800 0
M  V30 34 H 0.345754 6.718214 1.991662 0
M  V30 35 H 0.799510 6.575476 0.241534 0
M  V30 36 H 2.503593 5.027635 0.830302 0
M  V30 37 H 3.012585 4.443726 3.017447 0
M  V30 38 H 2.049138 5.809899 3.610686 0
M  V30 39 H 1.236975 3.170655 3.608257 0
M  V30 40 H 0.187127 4.580557 3.949509 0
M  V30 41 H -0.138559 1.049321 2.616889 0
M  V30 42 H 1.171275 -1.370163 -0.968135 0
M  V30 43 H 1.556665 -4.965044 -1.033341 0
M  V30 44 H 1.708154 -3.401366 -1.906016 0
M  V30 45 H -0.353038 -3.414212 -2.405288 0
M  V30 46 H -0.633135 -6.396422 -0.109401 0
M  V30 47 H -2.694811 -7.713692 0.070862 0
M  V30 48 H -4.586701 -7.083842 -1.254701 0
M  V30 49 H -4.514607 -5.194215 -2.738621 0
M  V30 50 H -2.574547 -3.819382 -3.000245 0
M  V30 END ATOM
M  V30 BEGIN BOND
M  V30 1 1 1 2
M  V30 2 2 2 3
M  V30 3 1 3 4
M  V30 4 2 4 5
M  V30 5 1 5 6
M  V30 6 1 6 7
M  V30 7 2 7 8
M  V30 8 1 8 9
M  V30 9 1 9 10
M  V30 10 1 10 11
M  V30 11 1 11 12
M  V30 12 1 12 13
M  V30 13 1 13 14
M  V30 14 1 14 15
M  V30 15 1 9 16
M  V30 16 1 5 17
M  V30 17 2 17 18
M  V30 18 1 18 19
M  V30 19 1 19 20
M  V30 20 1 20 21
M  V30 21 2 21 22
M  V30 22 1 22 23
M  V30 23 2 23 24
M  V30 24 1 24 25
M  V30 25 2 25 26
M  V30 26 1 18 2
M  V30 27 1 26 21
M  V30 28 2 16 6
M  V30 29 1 15 10
M  V30 30 1 1 27
M  V30 31 1 1 28
M  V30 32 1 4 29
M  V30 33 1 7 30
M  V30 34 1 10 31
M  V30 35 1 11 32
M  V30 36 1 11 33
M  V30 37 1 12 34
M  V30 38 1 12 35
M  V30 39 1 13 36
M  V30 40 1 14 37
M  V30 41 1 14 38
M  V30 42 1 15 39
M  V30 43 1 15 40
M  V30 44 1 16 41
M  V30 45 1 17 42
M  V30 46 1 19 43
M  V30 47 1 19 44
M  V30 48 1 20 45
M  V30 49 1 22 46
M  V30 50 1 23 47
M  V30 51 1 24 48
M  V30 52 1 25 49
M  V30 53 1 26 50
M  V30 END BOND
M  V30 END CTAB
M  END
>  <Dataset>  (349) 
ChEMBL_Kinases

>  <Ligand_Instance>  (349) 
nan

>  <PDB_ID>  (349) 
nan

>  <Standardized_SMILES>  (349) 
Nc1ncc(-c2cnn(C3CCNCC3)c2)cc1CNc1ccccc1

>  <Name>  (349) 
nan

>  <Pocket>  (349) 
nan

>  <ATP_Site>  (349) 
nan

>  <Peripheral>  (349) 
nan

>  <Num_H_Atoms_ProtBoundConf>  (349) 
nan

>  <Num_Resolved_Atoms>  (349) 
nan

>  <Num_Not_Resolved_Atoms>  (349) 
nan

$$$$
CHEMBL4800155
     RDKit          3D

  0  0  0  0  0  0  0  0  0  0999 V3000
M  V30 BEGIN CTAB
M  V30 COUNTS 47 50 0 0 0
M  V30 BEGIN ATOM
M  V30 1 C 0.411601 -9.277007 1.244186 0
M  V30 2 C 1.602820 -8.863845 1.661472 0
M  V30 3 C 1.704601 -7.462629 1.250292 0
M  V30 4 O 0.589005 -7.259505 0.666838 0
M  V30 5 N 2.790896 -6.556923 1.457427 0
M  V30 6 C 2.432579 -5.304475 0.881862 0
M  V30 7 C 2.739470 -5.035586 -0.434050 0
M  V30 8 C 2.360242 -3.786866 -0.941250 0
M  V30 9 C 1.712419 -2.856560 -0.184415 0
M  V30 10 C 1.350535 -1.568666 -0.797581 0
M  V30 11 S 1.718276 -1.211070 -2.422352 0
M  V30 12 N 0.967785 0.503885 -2.402817 0
M  V30 13 C 0.537829 0.552320 -1.132365 0
M  V30 14 C -0.102345 1.684862 -0.670573 0
M  V30 15 C -0.561486 1.780066 0.627428 0
M  V30 16 C -1.250675 2.951294 1.189926 0
M  V30 17 C -2.201027 2.794900 2.178954 0
M  V30 18 C -2.906560 3.818963 2.776241 0
M  V30 19 C -2.635377 5.107914 2.344546 0
M  V30 20 N -3.336038 6.200292 2.929001 0
M  V30 21 C -1.681684 5.289879 1.349003 0
M  V30 22 O -1.434091 6.590097 0.940124 0
M  V30 23 C -0.518360 6.977168 -0.040933 0
M  V30 24 C -0.987658 4.247097 0.765702 0
M  V30 25 C -0.385376 0.726259 1.501148 0
M  V30 26 N 0.240863 -0.357661 1.017302 0
M  V30 27 C 0.696453 -0.477607 -0.236317 0
M  V30 28 C 1.439887 -3.196869 1.121474 0
M  V30 29 C 1.779314 -4.402889 1.694520 0
M  V30 30 H -0.462756 -8.923735 0.723107 0
M  V30 31 H -0.508858 -9.007804 0.729247 0
M  V30 32 H 1.964123 -9.763760 2.123435 0
M  V30 33 H 3.585792 -6.971118 1.961062 0
M  V30 34 H 3.252118 -5.761473 -1.046996 0
M  V30 35 H 2.636845 -3.642828 -1.994752 0
M  V30 36 H -0.315405 2.579662 -1.215259 0
M  V30 37 H -2.411633 1.776310 2.516575 0
M  V30 38 H -3.635038 3.591107 3.547437 0
M  V30 39 H -3.632759 7.050531 2.400671 0
M  V30 40 H -3.567451 6.148080 3.949190 0
M  V30 41 H 0.461636 7.188449 0.412580 0
M  V30 42 H -0.475205 6.265651 -0.896694 0
M  V30 43 H -0.893865 7.957717 -0.448891 0
M  V30 44 H -0.245929 4.388108 -0.008541 0
M  V30 45 H -0.692537 0.664686 2.537849 0
M  V30 46 H 0.928751 -2.490200 1.756089 0
M  V30 47 H 1.528357 -4.600490 2.740696 0
M  V30 END ATOM
M  V30 BEGIN BOND
M  V30 1 2 1 2
M  V30 2 1 2 3
M  V30 3 2 3 4
M  V30 4 1 3 5
M  V30 5 1 5 6
M  V30 6 2 6 7
M  V30 7 1 7 8
M  V30 8 2 8 9
M  V30 9 1 9 10
M  V30 10 1 10 11
M  V30 11 1 11 12
M  V30 12 2 12 13
M  V30 13 1 13 14
M  V30 14 2 14 15
M  V30 15 1 15 16
M  V30 16 2 16 17
M  V30 17 1 17 18
M  V30 18 2 18 19
M  V30 19 1 19 20
M  V30 20 1 19 21
M  V30 21 1 21 22
M  V30 22 1 22 23
M  V30 23 2 21 24
M  V30 24 1 15 25
M  V30 25 2 25 26
M  V30 26 1 26 27
M  V30 27 1 9 28
M  V30 28 2 28 29
M  V30 29 1 29 6
M  V30 30 2 27 10
M  V30 31 1 27 13
M  V30 32 1 24 16
M  V30 33 1 1 30
M  V30 34 1 1 31
M  V30 35 1 2 32
M  V30 36 1 5 33
M  V30 37 1 7 34
M  V30 38 1 8 35
M  V30 39 1 14 36
M  V30 40 1 17 37
M  V30 41 1 18 38
M  V30 42 1 20 39
M  V30 43 1 20 40
M  V30 44 1 23 41
M  V30 45 1 23 42
M  V30 46 1 23 43
M  V30 47 1 24 44
M  V30 48 1 25 45
M  V30 49 1 28 46
M  V30 50 1 29 47
M  V30 END BOND
M  V30 END CTAB
M  END
>  <Dataset>  (350) 
ChEMBL_Kinases

>  <Ligand_Instance>  (350) 
nan

>  <PDB_ID>  (350) 
nan

>  <Standardized_SMILES>  (350) 
C=CC(=O)Nc1ccc(-c2snc3cc(-c4ccc(N)c(OC)c4)cnc23)cc1

>  <Name>  (350) 
nan

>  <Pocket>  (350) 
nan

>  <ATP_Site>  (350) 
nan

>  <Peripheral>  (350) 
nan

>  <Num_H_Atoms_ProtBoundConf>  (350) 
nan

>  <Num_Resolved_Atoms>  (350) 
nan

>  <Num_Not_Resolved_Atoms>  (350) 
nan

$$$$
CHEMBL4800173
     RDKit          3D

  0  0  0  0  0  0  0  0  0  0999 V3000
M  V30 BEGIN CTAB
M  V30 COUNTS 45 47 0 0 0
M  V30 BEGIN ATOM
M  V30 1 C 5.251038 -0.613579 4.218080 0
M  V30 2 C 3.849352 -0.468842 3.645010 0
M  V30 3 C 2.874764 -0.890610 4.690550 0
M  V30 4 C 3.621768 0.996656 3.320423 0
M  V30 5 O 3.770245 1.690261 4.537868 0
M  V30 6 C 3.724407 -1.266575 2.341581 0
M  V30 7 N 2.362965 -1.075174 1.871614 0
M  V30 8 C 1.913288 -1.644043 0.647695 0
M  V30 9 N 2.423276 -2.654657 0.092462 0
M  V30 10 C 1.875493 -3.092686 -1.103837 0
M  V30 11 O 2.239737 -4.073779 -1.802661 0
M  V30 12 C 0.727583 -2.298651 -1.601834 0
M  V30 13 C -0.014760 -2.372412 -2.691735 0
M  V30 14 C -1.096922 -1.413007 -2.878276 0
M  V30 15 C -1.548518 -0.626450 -3.909959 0
M  V30 16 C -2.648446 0.106130 -3.513588 0
M  V30 17 C -2.815084 -0.289777 -2.206741 0
M  V30 18 C -3.833492 0.152506 -1.264477 0
M  V30 19 C -3.937812 -0.340177 0.003296 0
M  V30 20 C -4.829286 -0.033205 0.999549 0
M  V30 21 C -5.758089 0.948492 0.595555 0
M  V30 22 C -5.720179 1.488575 -0.651761 0
M  V30 23 Cl -6.908072 2.712068 -1.123251 0
M  V30 24 C -4.782970 1.120905 -1.600511 0
M  V30 25 O -1.904713 -1.172067 -1.855703 0
M  V30 26 S 0.514648 -1.038636 -0.309345 0
M  V30 27 H 6.037244 -0.358356 3.489038 0
M  V30 28 H 5.347760 -1.607168 4.659082 0
M  V30 29 H 5.310054 0.136086 5.055538 0
M  V30 30 H 2.642003 -1.980095 4.659706 0
M  V30 31 H 1.910421 -0.370461 4.569099 0
M  V30 32 H 3.279095 -0.707352 5.706378 0
M  V30 33 H 2.649699 1.204055 2.862423 0
M  V30 34 H 4.399524 1.344082 2.615429 0
M  V30 35 H 3.206270 2.497233 4.565069 0
M  V30 36 H 4.417126 -0.806360 1.608850 0
M  V30 37 H 3.993350 -2.312254 2.446137 0
M  V30 38 H 1.643826 -0.510028 2.412340 0
M  V30 39 H 0.254897 -3.185791 -3.371449 0
M  V30 40 H -1.058194 -0.636917 -4.869499 0
M  V30 41 H -3.235598 0.813012 -4.075361 0
M  V30 42 H -3.209521 -1.106588 0.302209 0
M  V30 43 H -4.858411 -0.461492 1.975561 0
M  V30 44 H -6.528982 1.301174 1.255197 0
M  V30 45 H -4.721951 1.522951 -2.595606 0
M  V30 END ATOM
M  V30 BEGIN BOND
M  V30 1 1 1 2
M  V30 2 1 2 3
M  V30 3 1 2 4
M  V30 4 1 4 5
M  V30 5 1 2 6
M  V30 6 1 6 7
M  V30 7 1 7 8
M  V30 8 2 8 9
M  V30 9 1 9 10
M  V30 10 2 10 11
M  V30 11 1 10 12
M  V30 12 2 12 13
M  V30 13 1 13 14
M  V30 14 2 14 15
M  V30 15 1 15 16
M  V30 16 2 16 17
M  V30 17 1 17 18
M  V30 18 2 18 19
M  V30 19 1 19 20
M  V30 20 2 20 21
M  V30 21 1 21 22
M  V30 22 1 22 23
M  V30 23 2 22 24
M  V30 24 1 17 25
M  V30 25 1 12 26
M  V30 26 1 26 8
M  V30 27 1 25 14
M  V30 28 1 24 18
M  V30 29 1 1 27
M  V30 30 1 1 28
M  V30 31 1 1 29
M  V30 32 1 3 30
M  V30 33 1 3 31
M  V30 34 1 3 32
M  V30 35 1 4 33
M  V30 36 1 4 34
M  V30 37 1 5 35
M  V30 38 1 6 36
M  V30 39 1 6 37
M  V30 40 1 7 38
M  V30 41 1 13 39
M  V30 42 1 15 40
M  V30 43 1 16 41
M  V30 44 1 19 42
M  V30 45 1 20 43
M  V30 46 1 21 44
M  V30 47 1 24 45
M  V30 END BOND
M  V30 END CTAB
M  END
>  <Dataset>  (351) 
ChEMBL_Kinases

>  <Ligand_Instance>  (351) 
nan

>  <PDB_ID>  (351) 
nan

>  <Standardized_SMILES>  (351) 
CC(C)(CO)CNC1=NC(=O)/C(=C/c2ccc(-c3cccc(Cl)c3)o2)S1

>  <Name>  (351) 
nan

>  <Pocket>  (351) 
nan

>  <ATP_Site>  (351) 
nan

>  <Peripheral>  (351) 
nan

>  <Num_H_Atoms_ProtBoundConf>  (351) 
nan

>  <Num_Resolved_Atoms>  (351) 
nan

>  <Num_Not_Resolved_Atoms>  (351) 
nan

$$$$
CHEMBL4800174
     RDKit          3D

  0  0  0  0  0  0  0  0  0  0999 V3000
M  V30 BEGIN CTAB
M  V30 COUNTS 45 48 0 0 0
M  V30 BEGIN ATOM
M  V30 1 C 0.777913 -3.033360 -2.156010 0
M  V30 2 C 1.681872 -3.273028 -1.000208 0
M  V30 3 C 1.824645 -4.504637 -0.355978 0
M  V30 4 C 2.694292 -4.614804 0.706940 0
M  V30 5 C 3.435911 -3.544802 1.162410 0
M  V30 6 C 3.282592 -2.317560 0.507390 0
M  V30 7 C 2.409716 -2.172283 -0.572673 0
M  V30 8 C 2.333839 -0.847872 -1.171225 0
M  V30 9 O 2.948401 -0.371834 -2.162296 0
M  V30 10 N 1.438576 0.079318 -0.573180 0
M  V30 11 C 1.025760 1.449182 -0.789422 0
M  V30 12 C 1.274904 2.304592 0.439761 0
M  V30 13 C -0.036756 2.649875 1.116541 0
M  V30 14 N -0.925469 1.506446 1.230544 0
M  V30 15 C -1.250033 1.063272 2.531688 0
M  V30 16 N -0.587792 1.591278 3.595218 0
M  V30 17 C -0.845203 1.189246 4.845573 0
M  V30 18 N -1.758815 0.251975 5.146251 0
M  V30 19 C -2.471680 -0.332260 4.142011 0
M  V30 20 N -3.432707 -1.269479 4.121606 0
M  V30 21 N -3.749785 -1.427586 2.857699 0
M  V30 22 C -3.023765 -0.622525 2.071871 0
M  V30 23 C -2.177236 0.108326 2.873830 0
M  V30 24 C -1.303488 1.021466 -0.055547 0
M  V30 25 C -0.433326 1.548355 -1.177828 0
M  V30 26 H 0.269047 -3.982607 -2.374745 0
M  V30 27 H 1.334408 -2.663861 -3.042087 0
M  V30 28 H -0.015515 -2.273583 -1.927841 0
M  V30 29 H 1.237557 -5.329270 -0.726743 0
M  V30 30 H 2.812439 -5.571079 1.216140 0
M  V30 31 H 4.118377 -3.664070 2.008799 0
M  V30 32 H 3.893098 -1.510293 0.910587 0
M  V30 33 H 0.880358 -0.199242 0.257531 0
M  V30 34 H 1.612191 1.859436 -1.633307 0
M  V30 35 H 1.780563 3.238351 0.135055 0
M  V30 36 H 1.927121 1.727372 1.116411 0
M  V30 37 H -0.546255 3.448311 0.533885 0
M  V30 38 H 0.215437 3.094404 2.098274 0
M  V30 39 H -0.250539 1.685813 5.611053 0
M  V30 40 H -3.778970 -1.716029 5.013009 0
M  V30 41 H -3.128359 -0.589156 1.010350 0
M  V30 42 H -2.336022 1.186369 -0.356323 0
M  V30 43 H -1.110798 -0.094099 -0.043454 0
M  V30 44 H -0.565848 0.928499 -2.077537 0
M  V30 45 H -0.651820 2.620427 -1.343877 0
M  V30 END ATOM
M  V30 BEGIN BOND
M  V30 1 1 1 2
M  V30 2 2 2 3
M  V30 3 1 3 4
M  V30 4 2 4 5
M  V30 5 1 5 6
M  V30 6 2 6 7
M  V30 7 1 7 8
M  V30 8 2 8 9
M  V30 9 1 8 10
M  V30 10 1 10 11
M  V30 11 1 11 12
M  V30 12 1 12 13
M  V30 13 1 13 14
M  V30 14 1 14 15
M  V30 15 2 15 16
M  V30 16 1 16 17
M  V30 17 2 17 18
M  V30 18 1 18 19
M  V30 19 1 19 20
M  V30 20 1 20 21
M  V30 21 2 21 22
M  V30 22 1 22 23
M  V30 23 1 14 24
M  V30 24 1 24 25
M  V30 25 1 7 2
M  V30 26 1 25 11
M  V30 27 1 23 15
M  V30 28 2 23 19
M  V30 29 1 1 26
M  V30 30 1 1 27
M  V30 31 1 1 28
M  V30 32 1 3 29
M  V30 33 1 4 30
M  V30 34 1 5 31
M  V30 35 1 6 32
M  V30 36 1 10 33
M  V30 37 1 11 34
M  V30 38 1 12 35
M  V30 39 1 12 36
M  V30 40 1 13 37
M  V30 41 1 13 38
M  V30 42 1 17 39
M  V30 43 1 20 40
M  V30 44 1 22 41
M  V30 45 1 24 42
M  V30 46 1 24 43
M  V30 47 1 25 44
M  V30 48 1 25 45
M  V30 END BOND
M  V30 END CTAB
M  END
>  <Dataset>  (352) 
ChEMBL_Kinases

>  <Ligand_Instance>  (352) 
nan

>  <PDB_ID>  (352) 
nan

>  <Standardized_SMILES>  (352) 
Cc1ccccc1C(=O)NC1CCN(c2ncnc3[nH]ncc23)CC1

>  <Name>  (352) 
nan

>  <Pocket>  (352) 
nan

>  <ATP_Site>  (352) 
nan

>  <Peripheral>  (352) 
nan

>  <Num_H_Atoms_ProtBoundConf>  (352) 
nan

>  <Num_Resolved_Atoms>  (352) 
nan

>  <Num_Not_Resolved_Atoms>  (352) 
nan

$$$$
CHEMBL4800212
     RDKit          3D

  0  0  0  0  0  0  0  0  0  0999 V3000
M  V30 BEGIN CTAB
M  V30 COUNTS 40 42 0 0 0
M  V30 BEGIN ATOM
M  V30 1 C 2.157316 -6.960824 2.604754 0
M  V30 2 O 2.482183 -5.631550 2.946150 0
M  V30 3 C 1.672268 -4.614103 2.460592 0
M  V30 4 C 2.079999 -3.356013 2.854449 0
M  V30 5 C 1.387010 -2.222646 2.461138 0
M  V30 6 C 0.267898 -2.357331 1.660143 0
M  V30 7 C -0.539455 -1.237781 1.185011 0
M  V30 8 C 0.024001 -0.084325 0.666787 0
M  V30 9 C -0.815649 0.936184 0.235798 0
M  V30 10 C -0.284520 2.176258 -0.319354 0
M  V30 11 C -1.052955 2.828466 -1.292276 0
M  V30 12 C -0.597600 4.012292 -1.855547 0
M  V30 13 C 0.619681 4.481054 -1.404546 0
M  V30 14 C 1.074822 5.727054 -2.012571 0
M  V30 15 O 0.407228 6.336098 -2.887854 0
M  V30 16 O 2.256868 6.398388 -1.731858 0
M  V30 17 C 1.425518 3.890834 -0.452336 0
M  V30 18 C 0.924498 2.715508 0.075097 0
M  V30 19 C -2.199054 0.798336 0.324782 0
M  V30 20 N -2.717813 -0.343848 0.837149 0
M  V30 21 C -1.934355 -1.332257 1.255189 0
M  V30 22 N -2.595490 -2.483076 1.774351 0
M  V30 23 C -0.149526 -3.630077 1.258198 0
M  V30 24 C 0.555350 -4.759883 1.660210 0
M  V30 25 H 2.690498 -7.639778 3.332074 0
M  V30 26 H 2.437008 -7.216672 1.567036 0
M  V30 27 H 1.046030 -7.078392 2.763789 0
M  V30 28 H 2.932884 -3.139811 3.474487 0
M  V30 29 H 1.651731 -1.210910 2.733228 0
M  V30 30 H 1.094643 0.009032 0.603751 0
M  V30 31 H -2.006746 2.444970 -1.633847 0
M  V30 32 H -1.167640 4.535711 -2.606149 0
M  V30 33 H 2.364529 7.403473 -1.787122 0
M  V30 34 H 2.366062 4.326896 -0.157398 0
M  V30 35 H 1.470084 2.181927 0.817140 0
M  V30 36 H -2.897126 1.573761 -0.001495 0
M  V30 37 H -2.308375 -2.449429 2.792831 0
M  V30 38 H -3.207659 -3.257134 1.477144 0
M  V30 39 H -1.005277 -3.848607 0.635994 0
M  V30 40 H 0.294613 -5.770238 1.390906 0
M  V30 END ATOM
M  V30 BEGIN BOND
M  V30 1 1 1 2
M  V30 2 1 2 3
M  V30 3 2 3 4
M  V30 4 1 4 5
M  V30 5 2 5 6
M  V30 6 1 6 7
M  V30 7 2 7 8
M  V30 8 1 8 9
M  V30 9 1 9 10
M  V30 10 2 10 11
M  V30 11 1 11 12
M  V30 12 2 12 13
M  V30 13 1 13 14
M  V30 14 2 14 15
M  V30 15 1 14 16
M  V30 16 1 13 17
M  V30 17 2 17 18
M  V30 18 2 9 19
M  V30 19 1 19 20
M  V30 20 2 20 21
M  V30 21 1 21 22
M  V30 22 1 6 23
M  V30 23 2 23 24
M  V30 24 1 24 3
M  V30 25 1 21 7
M  V30 26 1 18 10
M  V30 27 1 1 25
M  V30 28 1 1 26
M  V30 29 1 1 27
M  V30 30 1 4 28
M  V30 31 1 5 29
M  V30 32 1 8 30
M  V30 33 1 11 31
M  V30 34 1 12 32
M  V30 35 1 16 33
M  V30 36 1 17 34
M  V30 37 1 18 35
M  V30 38 1 19 36
M  V30 39 1 22 37
M  V30 40 1 22 38
M  V30 41 1 23 39
M  V30 42 1 24 40
M  V30 END BOND
M  V30 END CTAB
M  END
>  <Dataset>  (353) 
ChEMBL_Kinases

>  <Ligand_Instance>  (353) 
nan

>  <PDB_ID>  (353) 
nan

>  <Standardized_SMILES>  (353) 
COc1ccc(-c2cc(-c3ccc(C(=O)O)cc3)cnc2N)cc1

>  <Name>  (353) 
nan

>  <Pocket>  (353) 
nan

>  <ATP_Site>  (353) 
nan

>  <Peripheral>  (353) 
nan

>  <Num_H_Atoms_ProtBoundConf>  (353) 
nan

>  <Num_Resolved_Atoms>  (353) 
nan

>  <Num_Not_Resolved_Atoms>  (353) 
nan

$$$$
CHEMBL4798710
     RDKit          3D

  0  0  0  0  0  0  0  0  0  0999 V3000
M  V30 BEGIN CTAB
M  V30 COUNTS 29 30 0 0 0
M  V30 BEGIN ATOM
M  V30 1 N 0.265989 2.317600 0.370911 0
M  V30 2 C 0.148305 1.289812 0.892652 0
M  V30 3 C 0.018042 -0.001433 1.554706 0
M  V30 4 C 0.671022 -1.090094 1.181347 0
M  V30 5 C 1.570997 -1.002417 0.043058 0
M  V30 6 C 2.785362 -1.606295 0.258249 0
M  V30 7 C 3.721763 -1.595237 -0.770393 0
M  V30 8 C 3.397644 -0.982155 -1.962080 0
M  V30 9 O 4.169528 -0.854570 -3.107844 0
M  V30 10 C 2.163903 -0.385991 -2.139208 0
M  V30 11 N 1.719683 0.270798 -3.339103 0 CHG=1 VAL=4
M  V30 12 O 2.173266 -0.176423 -4.393114 0
M  V30 13 O 0.849718 1.320412 -3.301471 0 CHG=-1 VAL=1
M  V30 14 C 1.186202 -0.370617 -1.131691 0
M  V30 15 C -0.930069 0.018135 2.684042 0
M  V30 16 O -1.581943 1.038967 3.100682 0
M  V30 17 N -1.269564 -1.104786 3.494093 0
M  V30 18 C -2.267572 -0.838540 4.619787 0
M  V30 19 N -2.972582 -0.626695 5.496696 0
M  V30 20 N -4.241753 -0.692314 5.620812 0
M  V30 21 C -4.989192 -1.009728 4.788443 0
M  V30 22 Br -6.940888 -1.097766 5.017247 0
M  V30 23 S -3.707208 -1.320618 3.435720 0
M  V30 24 H 0.519830 -2.009598 1.730801 0
M  V30 25 H 3.105835 -2.098873 1.147663 0
M  V30 26 H 4.706801 -2.023710 -0.741842 0
M  V30 27 H 4.055545 -1.482304 -3.918361 0
M  V30 28 H 0.215538 0.082773 -1.252827 0
M  V30 29 H -0.821304 -2.020734 3.269717 0
M  V30 END ATOM
M  V30 BEGIN BOND
M  V30 1 3 1 2
M  V30 2 1 2 3
M  V30 3 2 3 4
M  V30 4 1 4 5
M  V30 5 2 5 6
M  V30 6 1 6 7
M  V30 7 2 7 8
M  V30 8 1 8 9
M  V30 9 1 8 10
M  V30 10 1 10 11
M  V30 11 2 11 12
M  V30 12 1 11 13
M  V30 13 2 10 14
M  V30 14 1 3 15
M  V30 15 2 15 16
M  V30 16 1 15 17
M  V30 17 1 17 18
M  V30 18 2 18 19
M  V30 19 1 19 20
M  V30 20 2 20 21
M  V30 21 1 21 22
M  V30 22 1 21 23
M  V30 23 1 14 5
M  V30 24 1 23 18
M  V30 25 1 4 24
M  V30 26 1 6 25
M  V30 27 1 7 26
M  V30 28 1 9 27
M  V30 29 1 14 28
M  V30 30 1 17 29
M  V30 END BOND
M  V30 END CTAB
M  END
>  <Dataset>  (354) 
ChEMBL_Kinases

>  <Ligand_Instance>  (354) 
nan

>  <PDB_ID>  (354) 
nan

>  <Standardized_SMILES>  (354) 
N#C/C(=C\c1ccc(O)c([N+](=O)[O-])c1)C(=O)Nc1nnc(Br)s1

>  <Name>  (354) 
nan

>  <Pocket>  (354) 
nan

>  <ATP_Site>  (354) 
nan

>  <Peripheral>  (354) 
nan

>  <Num_H_Atoms_ProtBoundConf>  (354) 
nan

>  <Num_Resolved_Atoms>  (354) 
nan

>  <Num_Not_Resolved_Atoms>  (354) 
nan

$$$$
CHEMBL4800244
     RDKit          3D

  0  0  0  0  0  0  0  0  0  0999 V3000
M  V30 BEGIN CTAB
M  V30 COUNTS 45 48 0 0 0
M  V30 BEGIN ATOM
M  V30 1 C 1.098684 -1.064568 3.991208 0
M  V30 2 S 2.590740 -1.756285 3.330652 0
M  V30 3 O 3.047086 -2.861852 4.242670 0
M  V30 4 O 2.401994 -2.239038 1.927535 0
M  V30 5 N 3.820921 -0.565996 3.329415 0
M  V30 6 C 3.842415 0.679733 2.632247 0
M  V30 7 C 4.999862 1.122865 1.973610 0
M  V30 8 C 5.030815 2.326481 1.294992 0
M  V30 9 C 3.921483 3.141431 1.238480 0
M  V30 10 C 2.765686 2.747123 1.869055 0
M  V30 11 C 1.427749 3.439603 1.938165 0
M  V30 12 C 0.569981 2.887279 0.888786 0
M  V30 13 O 1.065308 3.131292 -0.237481 0
M  V30 14 N -0.603912 2.205774 1.300088 0
M  V30 15 C -1.670777 1.527205 0.480106 0
M  V30 16 N -2.643192 1.231071 -0.164970 0
M  V30 17 N -2.876449 0.081027 -0.673052 0
M  V30 18 C -2.241362 -0.901148 -0.636549 0
M  V30 19 C -2.116487 -2.317796 -1.032087 0
M  V30 20 C -1.070911 -3.188498 -0.774121 0
M  V30 21 N -1.341373 -4.387570 -1.290446 0
M  V30 22 C -2.566020 -4.305739 -1.888611 0
M  V30 23 N -3.300152 -5.225363 -2.550648 0
M  V30 24 C -4.506156 -4.915499 -3.065430 0
M  V30 25 C -4.979849 -3.625508 -2.899529 0
M  V30 26 C -4.246432 -2.648514 -2.219741 0
M  V30 27 C -3.038489 -3.023870 -1.725073 0
M  V30 28 S -0.819528 -0.195365 0.396479 0
M  V30 29 C 2.759403 1.538548 2.542481 0
M  V30 30 H 1.285343 -0.338400 4.806094 0
M  V30 31 H 0.433098 -0.668438 3.213521 0
M  V30 32 H 0.496277 -1.879531 4.485343 0
M  V30 33 H 4.721557 -0.669449 3.885957 0
M  V30 34 H 5.884355 0.464828 2.023712 0
M  V30 35 H 5.926087 2.665035 0.789320 0
M  V30 36 H 3.834904 4.081011 0.749313 0
M  V30 37 H 1.522490 4.539281 1.813129 0
M  V30 38 H 0.984989 3.290819 2.938176 0
M  V30 39 H -0.820456 2.128451 2.314328 0
M  V30 40 H -0.153878 -2.975835 -0.242940 0
M  V30 41 H -0.793654 -5.276075 -1.292970 0
M  V30 42 H -5.067416 -5.683090 -3.591447 0
M  V30 43 H -5.946534 -3.380456 -3.312296 0
M  V30 44 H -4.698605 -1.670117 -2.140408 0
M  V30 45 H 1.899240 1.162140 3.063079 0
M  V30 END ATOM
M  V30 BEGIN BOND
M  V30 1 1 1 2
M  V30 2 2 2 3
M  V30 3 2 2 4
M  V30 4 1 2 5
M  V30 5 1 5 6
M  V30 6 2 6 7
M  V30 7 1 7 8
M  V30 8 2 8 9
M  V30 9 1 9 10
M  V30 10 1 10 11
M  V30 11 1 11 12
M  V30 12 2 12 13
M  V30 13 1 12 14
M  V30 14 1 14 15
M  V30 15 2 15 16
M  V30 16 1 16 17
M  V30 17 2 17 18
M  V30 18 1 18 19
M  V30 19 2 19 20
M  V30 20 1 20 21
M  V30 21 1 21 22
M  V30 22 2 22 23
M  V30 23 1 23 24
M  V30 24 2 24 25
M  V30 25 1 25 26
M  V30 26 2 26 27
M  V30 27 1 18 28
M  V30 28 2 10 29
M  V30 29 1 29 6
M  V30 30 1 28 15
M  V30 31 1 27 19
M  V30 32 1 27 22
M  V30 33 1 1 30
M  V30 34 1 1 31
M  V30 35 1 1 32
M  V30 36 1 5 33
M  V30 37 1 7 34
M  V30 38 1 8 35
M  V30 39 1 9 36
M  V30 40 1 11 37
M  V30 41 1 11 38
M  V30 42 1 14 39
M  V30 43 1 20 40
M  V30 44 1 21 41
M  V30 45 1 24 42
M  V30 46 1 25 43
M  V30 47 1 26 44
M  V30 48 1 29 45
M  V30 END BOND
M  V30 END CTAB
M  END
>  <Dataset>  (355) 
ChEMBL_Kinases

>  <Ligand_Instance>  (355) 
nan

>  <PDB_ID>  (355) 
nan

>  <Standardized_SMILES>  (355) 
CS(=O)(=O)Nc1cccc(CC(=O)Nc2nnc(-c3c[nH]c4ncccc34)s2)c1

>  <Name>  (355) 
nan

>  <Pocket>  (355) 
nan

>  <ATP_Site>  (355) 
nan

>  <Peripheral>  (355) 
nan

>  <Num_H_Atoms_ProtBoundConf>  (355) 
nan

>  <Num_Resolved_Atoms>  (355) 
nan

>  <Num_Not_Resolved_Atoms>  (355) 
nan

$$$$
CHEMBL4800252
     RDKit          3D

  0  0  0  0  0  0  0  0  0  0999 V3000
M  V30 BEGIN CTAB
M  V30 COUNTS 70 74 0 0 0
M  V30 BEGIN ATOM
M  V30 1 C 7.969714 2.060748 5.274639 0
M  V30 2 O 6.652304 2.099838 5.847161 0
M  V30 3 C 5.544256 1.759136 5.100741 0
M  V30 4 O 5.623991 1.397428 3.886050 0
M  V30 5 N 4.243257 1.797631 5.664356 0
M  V30 6 C 3.197931 1.419376 4.773489 0
M  V30 7 C 2.562832 2.356463 3.983564 0
M  V30 8 C 1.529719 2.041433 3.090546 0
M  V30 9 C 0.954568 3.148926 2.319184 0
M  V30 10 F 1.571740 4.367267 2.633240 0
M  V30 11 F 1.104773 3.026625 0.951164 0
M  V30 12 F -0.382042 3.336343 2.612429 0
M  V30 13 C 1.117588 0.727658 2.987670 0
M  V30 14 C 0.045445 0.366438 2.067794 0
M  V30 15 N -0.662062 1.131022 1.246095 0
M  V30 16 C -1.621448 0.613189 0.463906 0
M  V30 17 N -2.321538 1.535088 -0.385917 0
M  V30 18 C -2.298584 1.376520 -1.819826 0
M  V30 19 C -3.621519 1.609769 -2.486835 0
M  V30 20 O -4.347216 2.645621 -1.907385 0
M  V30 21 C -4.487316 2.478333 -0.531289 0
M  V30 22 C -3.091994 2.670580 0.060717 0
M  V30 23 C -1.953866 -0.717348 0.438937 0
M  V30 24 C -2.857584 -1.495041 -0.235998 0
M  V30 25 C -2.649019 -2.777228 0.232017 0
M  V30 26 C -3.391793 -3.968766 -0.205372 0
M  V30 27 N -2.826872 -4.658408 -1.322355 0
M  V30 28 C -1.505049 -5.157775 -1.143724 0
M  V30 29 C -0.415410 -4.317991 -1.766201 0
M  V30 30 N -0.834087 -3.702449 -2.999174 0
M  V30 31 S 0.452718 -3.502745 -4.117239 0
M  V30 32 C 1.691907 -2.449395 -3.446573 0
M  V30 33 O 1.099650 -4.837633 -4.449516 0
M  V30 34 O -0.085317 -2.891192 -5.370542 0
M  V30 35 C -1.973692 -4.384853 -3.537148 0
M  V30 36 C -3.131564 -4.120793 -2.607570 0
M  V30 37 C -1.622502 -2.748559 1.181407 0
M  V30 38 N -1.213183 -1.451212 1.285071 0
M  V30 39 N -0.270682 -0.940215 2.052875 0
M  V30 40 C 1.767808 -0.190501 3.787625 0
M  V30 41 N 2.754066 0.156630 4.630172 0
M  V30 42 H 7.919568 2.824980 4.448023 0
M  V30 43 H 8.726291 2.397110 5.980353 0
M  V30 44 H 8.162261 1.074446 4.802198 0
M  V30 45 H 4.140829 2.093199 6.669932 0
M  V30 46 H 2.909704 3.382795 4.087094 0
M  V30 47 H -1.488184 2.001248 -2.298150 0
M  V30 48 H -1.989107 0.333718 -2.040799 0
M  V30 49 H -4.249107 0.692754 -2.558225 0
M  V30 50 H -3.408614 1.913823 -3.539234 0
M  V30 51 H -4.756306 1.424598 -0.297090 0
M  V30 52 H -5.219667 3.206699 -0.160060 0
M  V30 53 H -2.702176 3.606560 -0.398263 0
M  V30 54 H -3.126881 2.741749 1.166466 0
M  V30 55 H -3.564620 -1.126544 -0.972929 0
M  V30 56 H -4.455349 -3.764950 -0.412389 0
M  V30 57 H -3.397653 -4.700436 0.651002 0
M  V30 58 H -1.236896 -5.261226 -0.075092 0
M  V30 59 H -1.427097 -6.181111 -1.594951 0
M  V30 60 H 0.437206 -4.989267 -1.992137 0
M  V30 61 H -0.016417 -3.541506 -1.097347 0
M  V30 62 H 1.362417 -2.014944 -2.468921 0
M  V30 63 H 1.923545 -1.560835 -4.100428 0
M  V30 64 H 2.647932 -2.967891 -3.295767 0
M  V30 65 H -1.823948 -5.490353 -3.542063 0
M  V30 66 H -2.197404 -3.989565 -4.561677 0
M  V30 67 H -3.363841 -3.034975 -2.511433 0
M  V30 68 H -4.064007 -4.655028 -2.955330 0
M  V30 69 H -1.257575 -3.613865 1.705807 0
M  V30 70 H 1.476934 -1.245461 3.741733 0
M  V30 END ATOM
M  V30 BEGIN BOND
M  V30 1 1 1 2
M  V30 2 1 2 3
M  V30 3 2 3 4
M  V30 4 1 3 5
M  V30 5 1 5 6
M  V30 6 2 6 7
M  V30 7 1 7 8
M  V30 8 1 8 9
M  V30 9 1 9 10
M  V30 10 1 9 11
M  V30 11 1 9 12
M  V30 12 2 8 13
M  V30 13 1 13 14
M  V30 14 1 14 15
M  V30 15 2 15 16
M  V30 16 1 16 17
M  V30 17 1 17 18
M  V30 18 1 18 19
M  V30 19 1 19 20
M  V30 20 1 20 21
M  V30 21 1 21 22
M  V30 22 1 16 23
M  V30 23 2 23 24
M  V30 24 1 24 25
M  V30 25 1 25 26
M  V30 26 1 26 27
M  V30 27 1 27 28
M  V30 28 1 28 29
M  V30 29 1 29 30
M  V30 30 1 30 31
M  V30 31 1 31 32
M  V30 32 2 31 33
M  V30 33 2 31 34
M  V30 34 1 30 35
M  V30 35 1 35 36
M  V30 36 2 25 37
M  V30 37 1 37 38
M  V30 38 1 38 39
M  V30 39 1 13 40
M  V30 40 2 40 41
M  V30 41 1 41 6
M  V30 42 2 39 14
M  V30 43 1 22 17
M  V30 44 1 38 23
M  V30 45 1 36 27
M  V30 46 1 1 42
M  V30 47 1 1 43
M  V30 48 1 1 44
M  V30 49 1 5 45
M  V30 50 1 7 46
M  V30 51 1 18 47
M  V30 52 1 18 48
M  V30 53 1 19 49
M  V30 54 1 19 50
M  V30 55 1 21 51
M  V30 56 1 21 52
M  V30 57 1 22 53
M  V30 58 1 22 54
M  V30 59 1 24 55
M  V30 60 1 26 56
M  V30 61 1 26 57
M  V30 62 1 28 58
M  V30 63 1 28 59
M  V30 64 1 29 60
M  V30 65 1 29 61
M  V30 66 1 32 62
M  V30 67 1 32 63
M  V30 68 1 32 64
M  V30 69 1 35 65
M  V30 70 1 35 66
M  V30 71 1 36 67
M  V30 72 1 36 68
M  V30 73 1 37 69
M  V30 74 1 40 70
M  V30 END BOND
M  V30 END CTAB
M  END
>  <Dataset>  (356) 
ChEMBL_Kinases

>  <Ligand_Instance>  (356) 
nan

>  <PDB_ID>  (356) 
nan

>  <Standardized_SMILES>  (356) 
COC(=O)Nc1cc(C(F)(F)F)c(-c2nc(N3CCOCC3)c3cc(CN4CCN(S(C)(=O)=O)CC4)cn3n2)cn1

>  <Name>  (356) 
RISOVALISIB

>  <Pocket>  (356) 
nan

>  <ATP_Site>  (356) 
nan

>  <Peripheral>  (356) 
nan

>  <Num_H_Atoms_ProtBoundConf>  (356) 
nan

>  <Num_Resolved_Atoms>  (356) 
nan

>  <Num_Not_Resolved_Atoms>  (356) 
nan

$$$$
CHEMBL4800324
     RDKit          3D

  0  0  0  0  0  0  0  0  0  0999 V3000
M  V30 BEGIN CTAB
M  V30 COUNTS 58 61 0 0 0
M  V30 BEGIN ATOM
M  V30 1 C -5.356590 -0.322955 1.185817 0
M  V30 2 C -5.814520 -1.280784 1.987077 0
M  V30 3 C -5.198116 -2.591148 2.160762 0
M  V30 4 O -5.681907 -3.455470 2.936155 0
M  V30 5 N -4.015230 -2.858208 1.411430 0
M  V30 6 C -3.244512 -4.099638 1.437266 0
M  V30 7 C -3.172557 -4.718496 0.052482 0
M  V30 8 C -2.284874 -3.791258 -0.735913 0
M  V30 9 C -1.064890 -3.538741 -0.292322 0
M  V30 10 C -0.138347 -2.659137 -0.983395 0
M  V30 11 C -0.445946 -2.011180 -2.156038 0
M  V30 12 C 0.441399 -1.177533 -2.805706 0
M  V30 13 C 1.704460 -0.950702 -2.298540 0
M  V30 14 C 2.602815 -0.046462 -3.046084 0
M  V30 15 C 2.855333 -0.544011 -4.460376 0
M  V30 16 C 1.978609 1.306658 -3.130607 0
M  V30 17 O 1.541950 2.221098 -3.888192 0
M  V30 18 N 1.780879 1.798227 -1.788494 0
M  V30 19 C 1.199598 3.076975 -1.463295 0
M  V30 20 C 1.686112 4.368973 -1.257440 0
M  V30 21 C 0.563773 5.138500 -0.973463 0
M  V30 22 C 0.721546 6.587812 -0.698182 0
M  V30 23 C 1.914965 7.009396 0.174640 0
M  V30 24 C 1.811091 7.366159 -1.302447 0
M  V30 25 N -0.530487 4.354771 -1.007009 0
M  V30 26 N -0.140851 3.106767 -1.304088 0
M  V30 27 C 2.034187 -1.591541 -1.121744 0
M  V30 28 C 1.125892 -2.420663 -0.492841 0
M  V30 29 C -0.766463 -4.251182 0.974329 0
M  V30 30 C -1.871501 -3.842732 1.958566 0
M  V30 31 H -5.806942 0.650826 1.051002 0
M  V30 32 H -4.474788 -0.393792 0.565533 0
M  V30 33 H -6.717490 -1.016768 2.530123 0
M  V30 34 H -3.547817 -2.201433 0.748221 0
M  V30 35 H -3.769708 -4.776220 2.153738 0
M  V30 36 H -4.149642 -4.802772 -0.430528 0
M  V30 37 H -2.718470 -5.719708 0.171371 0
M  V30 38 H -2.662652 -3.355328 -1.641734 0
M  V30 39 H -1.409641 -2.127333 -2.627883 0
M  V30 40 H 0.148643 -0.680911 -3.742567 0
M  V30 41 H 3.600309 0.088322 -2.578076 0
M  V30 42 H 1.993066 -0.355833 -5.136267 0
M  V30 43 H 3.682507 0.076705 -4.865293 0
M  V30 44 H 3.211945 -1.579643 -4.455103 0
M  V30 45 H 2.004155 1.356042 -0.846906 0
M  V30 46 H 2.747740 4.521125 -1.347980 0
M  V30 47 H -0.225068 7.109425 -0.484772 0
M  V30 48 H 2.657787 6.221282 0.433111 0
M  V30 49 H 1.724219 7.821427 0.917719 0
M  V30 50 H 1.621095 8.460072 -1.496896 0
M  V30 51 H 2.548280 6.923801 -1.987688 0
M  V30 52 H -1.495764 4.709452 -0.824890 0
M  V30 53 H 3.031913 -1.391977 -0.751514 0
M  V30 54 H 1.499886 -2.852004 0.400523 0
M  V30 55 H 0.173306 -3.961789 1.451985 0
M  V30 56 H -0.794657 -5.359243 0.829588 0
M  V30 57 H -1.679401 -4.340194 2.933770 0
M  V30 58 H -1.715826 -2.751843 2.118811 0
M  V30 END ATOM
M  V30 BEGIN BOND
M  V30 1 2 1 2
M  V30 2 1 2 3
M  V30 3 2 3 4
M  V30 4 1 3 5
M  V30 5 1 5 6
M  V30 6 1 6 7
M  V30 7 1 7 8
M  V30 8 2 8 9
M  V30 9 1 9 10
M  V30 10 2 10 11
M  V30 11 1 11 12
M  V30 12 2 12 13
M  V30 13 1 13 14
M  V30 14 1 14 15
M  V30 15 1 14 16
M  V30 16 2 16 17
M  V30 17 1 16 18
M  V30 18 1 18 19
M  V30 19 1 19 20
M  V30 20 2 20 21
M  V30 21 1 21 22
M  V30 22 1 22 23
M  V30 23 1 23 24
M  V30 24 1 21 25
M  V30 25 1 25 26
M  V30 26 1 13 27
M  V30 27 2 27 28
M  V30 28 1 9 29
M  V30 29 1 29 30
M  V30 30 1 30 6
M  V30 31 1 28 10
M  V30 32 2 26 19
M  V30 33 1 24 22
M  V30 34 1 1 31
M  V30 35 1 1 32
M  V30 36 1 2 33
M  V30 37 1 5 34
M  V30 38 1 6 35
M  V30 39 1 7 36
M  V30 40 1 7 37
M  V30 41 1 8 38
M  V30 42 1 11 39
M  V30 43 1 12 40
M  V30 44 1 14 41
M  V30 45 1 15 42
M  V30 46 1 15 43
M  V30 47 1 15 44
M  V30 48 1 18 45
M  V30 49 1 20 46
M  V30 50 1 22 47
M  V30 51 1 23 48
M  V30 52 1 23 49
M  V30 53 1 24 50
M  V30 54 1 24 51
M  V30 55 1 25 52
M  V30 56 1 27 53
M  V30 57 1 28 54
M  V30 58 1 29 55
M  V30 59 1 29 56
M  V30 60 1 30 57
M  V30 61 1 30 58
M  V30 END BOND
M  V30 END CTAB
M  END
>  <Dataset>  (357) 
ChEMBL_Kinases

>  <Ligand_Instance>  (357) 
nan

>  <PDB_ID>  (357) 
nan

>  <Standardized_SMILES>  (357) 
C=CC(=O)NC1CC=C(c2ccc(C(C)C(=O)Nc3cc(C4CC4)[nH]n3)cc2)CC1

>  <Name>  (357) 
nan

>  <Pocket>  (357) 
nan

>  <ATP_Site>  (357) 
nan

>  <Peripheral>  (357) 
nan

>  <Num_H_Atoms_ProtBoundConf>  (357) 
nan

>  <Num_Resolved_Atoms>  (357) 
nan

>  <Num_Not_Resolved_Atoms>  (357) 
nan

$$$$
CHEMBL4800403
     RDKit          3D

  0  0  0  0  0  0  0  0  0  0999 V3000
M  V30 BEGIN CTAB
M  V30 COUNTS 89 94 0 0 0
M  V30 BEGIN ATOM
M  V30 1 C 3.854651 -5.577538 2.847889 0
M  V30 2 N 3.100655 -4.336095 2.730360 0
M  V30 3 C 3.438744 -3.178046 3.432444 0
M  V30 4 O 4.382552 -3.053485 4.218139 0
M  V30 5 C 2.626906 -1.972023 3.257062 0
M  V30 6 S 2.992478 -0.435782 4.126107 0
M  V30 7 C 1.563160 0.459790 3.356758 0
M  V30 8 C 1.265545 1.852938 3.689171 0
M  V30 9 C 1.933649 2.633498 4.598080 0
M  V30 10 C 1.505890 3.929434 4.811497 0
M  V30 11 N 0.442829 4.464876 4.151647 0
M  V30 12 C -0.239876 3.735612 3.251790 0
M  V30 13 N -1.384852 4.121956 2.484914 0
M  V30 14 C -1.701818 4.824982 1.294933 0
M  V30 15 O -0.589000 5.240293 0.823333 0
M  V30 16 C -3.130114 4.921897 0.897242 0
M  V30 17 N -3.939564 4.104423 1.716262 0
M  V30 18 C -3.888620 2.714850 1.561182 0
M  V30 19 C -4.501776 2.035926 0.411462 0
M  V30 20 C -4.141214 2.319842 -0.964216 0
M  V30 21 C -2.803901 2.192033 -1.503285 0
M  V30 22 C -2.085409 0.889068 -1.480455 0
M  V30 23 C -0.734744 1.099974 -2.189975 0
M  V30 24 N 0.059303 -0.065101 -2.266517 0
M  V30 25 C 0.389724 -1.345272 -2.706781 0
M  V30 26 C 1.474626 -2.072960 -2.272580 0
M  V30 27 C 1.761964 -3.323216 -2.747812 0
M  V30 28 N 0.952597 -3.854996 -3.673088 0
M  V30 29 C -0.128186 -3.241165 -4.170440 0
M  V30 30 C -0.843227 -3.908864 -5.121858 0
M  V30 31 C -1.944346 -3.274140 -5.650862 0
M  V30 32 C -2.292314 -1.998687 -5.215505 0
M  V30 33 C -1.501736 -1.430825 -4.258536 0
M  V30 34 C -0.387900 -1.976657 -3.665115 0
M  V30 35 C 2.947387 -3.991544 -2.203039 0
M  V30 36 C 4.195888 -3.144822 -2.194285 0
M  V30 37 C 3.820790 -1.683514 -2.008443 0
M  V30 38 C 2.464877 -1.637868 -1.274022 0
M  V30 39 C 0.207621 2.420799 3.047538 0
M  V30 40 N 1.056881 -0.355722 2.650851 0
M  V30 41 C 1.465971 -1.601522 2.494553 0
M  V30 42 O 0.903086 -2.582140 1.686888 0
M  V30 43 C -0.230113 -2.269745 0.926972 0
M  V30 44 C -0.773435 -3.369878 0.084193 0
M  V30 45 C -2.007278 -3.097722 -0.762310 0
M  V30 46 C -1.993136 -4.123936 0.367131 0
M  V30 47 H 3.175043 -6.419040 3.147139 0
M  V30 48 H 4.304575 -5.797499 1.856297 0
M  V30 49 H 4.594094 -5.421904 3.653918 0
M  V30 50 H 2.290597 -4.385713 2.082658 0
M  V30 51 H 2.763752 2.176184 5.097883 0
M  V30 52 H 2.031180 4.545840 5.525300 0
M  V30 53 H -2.078865 3.720500 3.184421 0
M  V30 54 H -3.423976 5.999466 1.129362 0
M  V30 55 H -3.222031 4.853809 -0.185511 0
M  V30 56 H -4.772377 4.529964 2.119404 0
M  V30 57 H -4.361355 2.260071 2.487766 0
M  V30 58 H -2.829373 2.356650 1.626888 0
M  V30 59 H -5.622691 2.259195 0.497570 0
M  V30 60 H -4.500820 0.922781 0.657146 0
M  V30 61 H -4.838775 1.637234 -1.599515 0
M  V30 62 H -4.586053 3.323995 -1.243502 0
M  V30 63 H -2.122568 2.988901 -1.071403 0
M  V30 64 H -2.835767 2.498430 -2.599791 0
M  V30 65 H -1.753489 0.762758 -0.392555 0
M  V30 66 H -2.557001 0.021285 -1.876210 0
M  V30 67 H -0.230802 1.921136 -1.608155 0
M  V30 68 H -0.930168 1.569918 -3.192056 0
M  V30 69 H 0.822924 0.222929 -1.613345 0
M  V30 70 H -0.533195 -4.909606 -5.435337 0
M  V30 71 H -2.533225 -3.772307 -6.405418 0
M  V30 72 H -3.155120 -1.518228 -5.644360 0
M  V30 73 H -1.804994 -0.440288 -3.980346 0
M  V30 74 H 3.175668 -4.882067 -2.836960 0
M  V30 75 H 2.765499 -4.325147 -1.169149 0
M  V30 76 H 4.775229 -3.231561 -3.128802 0
M  V30 77 H 4.876061 -3.386097 -1.338024 0
M  V30 78 H 3.655896 -1.261835 -3.026970 0
M  V30 79 H 4.543148 -1.137976 -1.396875 0
M  V30 80 H 2.394782 -0.632751 -0.895722 0
M  V30 81 H 2.551698 -2.418980 -0.481199 0
M  V30 82 H -0.338827 1.819703 2.316825 0
M  V30 83 H -0.089374 -1.338886 0.303349 0
M  V30 84 H -1.015516 -1.942619 1.671198 0
M  V30 85 H 0.021599 -3.915165 -0.500973 0
M  V30 86 H -2.655075 -2.235081 -0.514335 0
M  V30 87 H -2.037615 -3.440115 -1.798736 0
M  V30 88 H -2.635420 -3.986489 1.241640 0
M  V30 89 H -2.061907 -5.179679 -0.022247 0
M  V30 END ATOM
M  V30 BEGIN BOND
M  V30 1 1 1 2
M  V30 2 1 2 3
M  V30 3 2 3 4
M  V30 4 1 3 5
M  V30 5 1 5 6
M  V30 6 1 6 7
M  V30 7 1 7 8
M  V30 8 2 8 9
M  V30 9 1 9 10
M  V30 10 2 10 11
M  V30 11 1 11 12
M  V30 12 1 12 13
M  V30 13 1 13 14
M  V30 14 2 14 15
M  V30 15 1 14 16
M  V30 16 1 16 17
M  V30 17 1 17 18
M  V30 18 1 18 19
M  V30 19 1 19 20
M  V30 20 1 20 21
M  V30 21 1 21 22
M  V30 22 1 22 23
M  V30 23 1 23 24
M  V30 24 1 24 25
M  V30 25 2 25 26
M  V30 26 1 26 27
M  V30 27 2 27 28
M  V30 28 1 28 29
M  V30 29 2 29 30
M  V30 30 1 30 31
M  V30 31 2 31 32
M  V30 32 1 32 33
M  V30 33 2 33 34
M  V30 34 1 27 35
M  V30 35 1 35 36
M  V30 36 1 36 37
M  V30 37 1 37 38
M  V30 38 2 12 39
M  V30 39 2 7 40
M  V30 40 1 40 41
M  V30 41 1 41 42
M  V30 42 1 42 43
M  V30 43 1 43 44
M  V30 44 1 44 45
M  V30 45 1 45 46
M  V30 46 2 41 5
M  V30 47 1 46 44
M  V30 48 1 39 8
M  V30 49 1 34 25
M  V30 50 1 38 26
M  V30 51 1 34 29
M  V30 52 1 1 47
M  V30 53 1 1 48
M  V30 54 1 1 49
M  V30 55 1 2 50
M  V30 56 1 9 51
M  V30 57 1 10 52
M  V30 58 1 13 53
M  V30 59 1 16 54
M  V30 60 1 16 55
M  V30 61 1 17 56
M  V30 62 1 18 57
M  V30 63 1 18 58
M  V30 64 1 19 59
M  V30 65 1 19 60
M  V30 66 1 20 61
M  V30 67 1 20 62
M  V30 68 1 21 63
M  V30 69 1 21 64
M  V30 70 1 22 65
M  V30 71 1 22 66
M  V30 72 1 23 67
M  V30 73 1 23 68
M  V30 74 1 24 69
M  V30 75 1 30 70
M  V30 76 1 31 71
M  V30 77 1 32 72
M  V30 78 1 33 73
M  V30 79 1 35 74
M  V30 80 1 35 75
M  V30 81 1 36 76
M  V30 82 1 36 77
M  V30 83 1 37 78
M  V30 84 1 37 79
M  V30 85 1 38 80
M  V30 86 1 38 81
M  V30 87 1 39 82
M  V30 88 1 43 83
M  V30 89 1 43 84
M  V30 90 1 44 85
M  V30 91 1 45 86
M  V30 92 1 45 87
M  V30 93 1 46 88
M  V30 94 1 46 89
M  V30 END BOND
M  V30 END CTAB
M  END
>  <Dataset>  (358) 
ChEMBL_Kinases

>  <Ligand_Instance>  (358) 
nan

>  <PDB_ID>  (358) 
nan

>  <Standardized_SMILES>  (358) 
CNC(=O)c1sc(-c2ccnc(NC(=O)CNCCCCCCNc3c4c(nc5ccccc35)CCCC4)c2)nc1OCC1CC1

>  <Name>  (358) 
nan

>  <Pocket>  (358) 
nan

>  <ATP_Site>  (358) 
nan

>  <Peripheral>  (358) 
nan

>  <Num_H_Atoms_ProtBoundConf>  (358) 
nan

>  <Num_Resolved_Atoms>  (358) 
nan

>  <Num_Not_Resolved_Atoms>  (358) 
nan

$$$$
CHEMBL4800422
     RDKit          3D

  0  0  0  0  0  0  0  0  0  0999 V3000
M  V30 BEGIN CTAB
M  V30 COUNTS 43 46 0 0 0
M  V30 BEGIN ATOM
M  V30 1 C 1.057434 -5.579660 -0.157284 0
M  V30 2 C 0.794308 -4.551318 0.922999 0
M  V30 3 C 1.400280 -5.039580 2.195101 0
M  V30 4 C -0.722759 -4.491176 1.095298 0
M  V30 5 C 1.218080 -3.201407 0.511459 0
M  V30 6 C 0.981212 -2.256858 1.491997 0
M  V30 7 C 1.321008 -0.914977 1.276634 0
M  V30 8 C 1.900313 -0.522662 0.072235 0
M  V30 9 C 2.247835 0.881351 -0.134033 0
M  V30 10 C 3.391974 1.490897 -0.657039 0
M  V30 11 O 3.228865 2.796336 -0.636623 0
M  V30 12 C 2.066283 3.108579 -0.141414 0
M  V30 13 C 1.402886 4.307644 0.101468 0
M  V30 14 C 0.137238 4.364974 0.651567 0
M  V30 15 C -0.479224 3.169634 0.967074 0
M  V30 16 C -1.818181 3.138230 1.552612 0
M  V30 17 C -2.593124 4.251190 1.847531 0
M  V30 18 C -3.792299 3.816655 2.387741 0
M  V30 19 N -3.728141 2.470517 2.412070 0
M  V30 20 N -2.558788 2.055829 1.917885 0
M  V30 21 N 0.156661 2.003905 0.734904 0
M  V30 22 C 1.399386 1.932785 0.195343 0
M  V30 23 C 2.132845 -1.491209 -0.908586 0
M  V30 24 C 1.789686 -2.805082 -0.672857 0
M  V30 25 H 0.474749 -6.501289 0.132926 0
M  V30 26 H 0.646482 -5.284240 -1.129262 0
M  V30 27 H 2.134479 -5.843390 -0.240066 0
M  V30 28 H 2.424706 -5.446941 2.014898 0
M  V30 29 H 1.359904 -4.308302 3.023616 0
M  V30 30 H 0.788597 -5.906958 2.533982 0
M  V30 31 H -1.074632 -5.131604 1.932394 0
M  V30 32 H -1.226561 -4.833181 0.147059 0
M  V30 33 H -1.033514 -3.461313 1.324969 0
M  V30 34 H 0.539169 -2.439154 2.462717 0
M  V30 35 H 1.155895 -0.122637 2.019289 0
M  V30 36 H 4.209791 0.858323 -0.989337 0
M  V30 37 H 1.940896 5.202083 -0.168100 0
M  V30 38 H -0.357058 5.304278 0.830752 0
M  V30 39 H -2.362100 5.308988 1.705604 0
M  V30 40 H -4.670284 4.362345 2.749686 0
M  V30 41 H -4.429667 1.749515 2.746236 0
M  V30 42 H 2.579960 -1.214040 -1.849445 0
M  V30 43 H 1.940380 -3.606459 -1.385209 0
M  V30 END ATOM
M  V30 BEGIN BOND
M  V30 1 1 1 2
M  V30 2 1 2 3
M  V30 3 1 2 4
M  V30 4 1 2 5
M  V30 5 2 5 6
M  V30 6 1 6 7
M  V30 7 2 7 8
M  V30 8 1 8 9
M  V30 9 2 9 10
M  V30 10 1 10 11
M  V30 11 1 11 12
M  V30 12 2 12 13
M  V30 13 1 13 14
M  V30 14 2 14 15
M  V30 15 1 15 16
M  V30 16 1 16 17
M  V30 17 2 17 18
M  V30 18 1 18 19
M  V30 19 1 19 20
M  V30 20 1 15 21
M  V30 21 2 21 22
M  V30 22 1 8 23
M  V30 23 2 23 24
M  V30 24 1 24 5
M  V30 25 1 22 9
M  V30 26 1 22 12
M  V30 27 2 20 16
M  V30 28 1 1 25
M  V30 29 1 1 26
M  V30 30 1 1 27
M  V30 31 1 3 28
M  V30 32 1 3 29
M  V30 33 1 3 30
M  V30 34 1 4 31
M  V30 35 1 4 32
M  V30 36 1 4 33
M  V30 37 1 6 34
M  V30 38 1 7 35
M  V30 39 1 10 36
M  V30 40 1 13 37
M  V30 41 1 14 38
M  V30 42 1 17 39
M  V30 43 1 18 40
M  V30 44 1 19 41
M  V30 45 1 23 42
M  V30 46 1 24 43
M  V30 END BOND
M  V30 END CTAB
M  END
>  <Dataset>  (359) 
ChEMBL_Kinases

>  <Ligand_Instance>  (359) 
nan

>  <PDB_ID>  (359) 
nan

>  <Standardized_SMILES>  (359) 
CC(C)(C)c1ccc(-c2coc3ccc(-c4cc[nH]n4)nc23)cc1

>  <Name>  (359) 
nan

>  <Pocket>  (359) 
nan

>  <ATP_Site>  (359) 
nan

>  <Peripheral>  (359) 
nan

>  <Num_H_Atoms_ProtBoundConf>  (359) 
nan

>  <Num_Resolved_Atoms>  (359) 
nan

>  <Num_Not_Resolved_Atoms>  (359) 
nan

$$$$
CHEMBL4098492
     RDKit          3D

  0  0  0  0  0  0  0  0  0  0999 V3000
M  V30 BEGIN CTAB
M  V30 COUNTS 60 63 0 0 0
M  V30 BEGIN ATOM
M  V30 1 C 5.856998 -4.455737 1.532973 0
M  V30 2 N 4.840521 -3.405430 1.435461 0
M  V30 3 C 4.404547 -3.112026 2.760793 0
M  V30 4 C 5.455609 -2.292976 0.746959 0
M  V30 5 C 4.524011 -1.134160 0.553662 0
M  V30 6 O 3.376808 -1.466159 -0.200240 0
M  V30 7 C 2.438356 -0.485475 -0.456684 0
M  V30 8 C 1.271058 -0.725523 -1.191298 0
M  V30 9 C 0.314352 0.222921 -1.467883 0
M  V30 10 C 0.465914 1.537536 -1.007919 0
M  V30 11 N -0.253439 2.628076 -1.110838 0
M  V30 12 C -0.132476 3.692509 -0.741567 0
M  V30 13 N -1.120265 4.747036 -1.004436 0
M  V30 14 C -2.107862 4.884400 0.070501 0
M  V30 15 C -2.815619 3.614990 0.327117 0
M  V30 16 C -3.966927 3.158349 -0.274250 0
M  V30 17 C -4.524124 1.944806 0.067437 0
M  V30 18 C -3.958972 1.130070 1.025146 0
M  V30 19 N -4.439128 -0.141908 1.454636 0
M  V30 20 C -3.921283 -1.270555 0.760298 0
M  V30 21 O -3.095481 -1.268406 -0.180457 0
M  V30 22 N -4.323640 -2.613231 1.095738 0
M  V30 23 C -3.729144 -3.655913 0.330326 0
M  V30 24 C -4.128129 -4.253925 -0.845582 0
M  V30 25 C -3.372918 -5.255533 -1.397873 0
M  V30 26 C -2.198455 -5.683075 -0.785179 0
M  V30 27 Cl -1.269567 -6.963507 -1.527308 0
M  V30 28 C -1.781678 -5.098554 0.390971 0
M  V30 29 C -2.549740 -4.079412 0.953242 0
M  V30 30 C -2.789546 1.524578 1.680139 0
M  V30 31 C -2.272448 2.759245 1.293737 0
M  V30 32 S 1.554707 3.523427 0.173875 0
M  V30 33 C 1.633121 1.696416 -0.296457 0
M  V30 34 C 2.650155 0.784652 0.025215 0
M  V30 35 H 6.280223 -4.493224 2.575345 0
M  V30 36 H 6.715618 -4.272223 0.862103 0
M  V30 37 H 5.359556 -5.422187 1.361977 0
M  V30 38 H 3.349353 -3.498864 2.858909 0
M  V30 39 H 5.020675 -3.639010 3.539210 0
M  V30 40 H 4.380930 -2.070977 3.065408 0
M  V30 41 H 5.947247 -2.608546 -0.169995 0
M  V30 42 H 6.242350 -1.919143 1.468584 0
M  V30 43 H 4.259280 -0.732392 1.552740 0
M  V30 44 H 5.044192 -0.268525 0.050473 0
M  V30 45 H 1.101043 -1.745503 -1.578696 0
M  V30 46 H -0.557250 -0.059592 -2.045632 0
M  V30 47 H -0.949419 5.224080 -1.921026 0
M  V30 48 H -1.566427 5.173566 0.991793 0
M  V30 49 H -2.792068 5.684285 -0.279249 0
M  V30 50 H -4.395288 3.796164 -1.012598 0
M  V30 51 H -5.426973 1.578575 -0.398265 0
M  V30 52 H -5.130725 -0.318300 2.225504 0
M  V30 53 H -5.022257 -2.774371 1.872117 0
M  V30 54 H -5.048568 -3.821571 -1.199125 0
M  V30 55 H -3.751890 -5.667038 -2.311068 0
M  V30 56 H -0.851210 -5.456894 0.851370 0
M  V30 57 H -2.114992 -3.698832 1.882157 0
M  V30 58 H -2.285063 0.957245 2.433236 0
M  V30 59 H -1.351621 3.075197 1.806108 0
M  V30 60 H 3.464641 1.145610 0.593236 0
M  V30 END ATOM
M  V30 BEGIN BOND
M  V30 1 1 1 2
M  V30 2 1 2 3
M  V30 3 1 2 4
M  V30 4 1 4 5
M  V30 5 1 5 6
M  V30 6 1 6 7
M  V30 7 2 7 8
M  V30 8 1 8 9
M  V30 9 2 9 10
M  V30 10 1 10 11
M  V30 11 2 11 12
M  V30 12 1 12 13
M  V30 13 1 13 14
M  V30 14 1 14 15
M  V30 15 2 15 16
M  V30 16 1 16 17
M  V30 17 2 17 18
M  V30 18 1 18 19
M  V30 19 1 19 20
M  V30 20 2 20 21
M  V30 21 1 20 22
M  V30 22 1 22 23
M  V30 23 2 23 24
M  V30 24 1 24 25
M  V30 25 2 25 26
M  V30 26 1 26 27
M  V30 27 1 26 28
M  V30 28 2 28 29
M  V30 29 1 18 30
M  V30 30 2 30 31
M  V30 31 1 12 32
M  V30 32 1 32 33
M  V30 33 2 33 34
M  V30 34 1 34 7
M  V30 35 1 33 10
M  V30 36 1 31 15
M  V30 37 1 29 23
M  V30 38 1 1 35
M  V30 39 1 1 36
M  V30 40 1 1 37
M  V30 41 1 3 38
M  V30 42 1 3 39
M  V30 43 1 3 40
M  V30 44 1 4 41
M  V30 45 1 4 42
M  V30 46 1 5 43
M  V30 47 1 5 44
M  V30 48 1 8 45
M  V30 49 1 9 46
M  V30 50 1 13 47
M  V30 51 1 14 48
M  V30 52 1 14 49
M  V30 53 1 16 50
M  V30 54 1 17 51
M  V30 55 1 19 52
M  V30 56 1 22 53
M  V30 57 1 24 54
M  V30 58 1 25 55
M  V30 59 1 28 56
M  V30 60 1 29 57
M  V30 61 1 30 58
M  V30 62 1 31 59
M  V30 63 1 34 60
M  V30 END BOND
M  V30 END CTAB
M  END
>  <Dataset>  (360) 
ChEMBL_Kinases

>  <Ligand_Instance>  (360) 
nan

>  <PDB_ID>  (360) 
nan

>  <Standardized_SMILES>  (360) 
CN(C)CCOc1ccc2nc(NCc3ccc(NC(=O)Nc4ccc(Cl)cc4)cc3)sc2c1

>  <Name>  (360) 
nan

>  <Pocket>  (360) 
nan

>  <ATP_Site>  (360) 
nan

>  <Peripheral>  (360) 
nan

>  <Num_H_Atoms_ProtBoundConf>  (360) 
nan

>  <Num_Resolved_Atoms>  (360) 
nan

>  <Num_Not_Resolved_Atoms>  (360) 
nan

$$$$
CHEMBL4800439
     RDKit          3D

  0  0  0  0  0  0  0  0  0  0999 V3000
M  V30 BEGIN CTAB
M  V30 COUNTS 64 67 0 0 0
M  V30 BEGIN ATOM
M  V30 1 C 5.839022 -4.336356 0.791402 0
M  V30 2 O 5.855374 -3.260426 1.698793 0
M  V30 3 C 5.308424 -2.015540 1.446076 0
M  V30 4 O 4.816900 -2.010420 0.311356 0
M  V30 5 C 5.404037 -1.047040 2.457800 0
M  V30 6 S 6.154024 -1.203825 4.046574 0
M  V30 7 C 5.751898 0.545085 4.604781 0
M  V30 8 C 5.024555 1.122970 3.424828 0
M  V30 9 C 4.916106 0.215137 2.405456 0
M  V30 10 N 4.208721 0.778646 1.279825 0
M  V30 11 C 3.644914 2.080044 1.240062 0
M  V30 12 N 2.309847 2.036534 1.199739 0
M  V30 13 C 1.465312 3.052740 1.173653 0
M  V30 14 N 0.044123 2.957291 1.099830 0
M  V30 15 C -0.763248 1.797088 0.984129 0
M  V30 16 C -0.291444 0.505743 0.954235 0
M  V30 17 C -1.060742 -0.629497 0.825054 0
M  V30 18 C -2.424243 -0.497099 0.713784 0
M  V30 19 N -3.337516 -1.582733 0.594405 0
M  V30 20 C -4.727301 -1.559073 0.164472 0
M  V30 21 C -4.804399 -2.148171 -1.247723 0
M  V30 22 C -3.546433 -2.941243 -1.474655 0
M  V30 23 N -3.601656 -3.768883 -2.664479 0
M  V30 24 C -2.335435 -4.446295 -2.797277 0
M  V30 25 C -3.856462 -3.003999 -3.847381 0
M  V30 26 C -3.368033 -3.818798 -0.250507 0
M  V30 27 C -2.996214 -2.953587 0.927865 0
M  V30 28 C -2.935665 0.793751 0.740752 0
M  V30 29 C -2.147610 1.916257 0.871648 0
M  V30 30 O -2.725260 3.204120 0.897200 0
M  V30 31 C -4.124275 3.359925 0.770622 0
M  V30 32 N 2.033725 4.248035 1.191476 0
M  V30 33 C 3.365397 4.385540 1.231482 0
M  V30 34 C 4.210581 3.323553 1.256886 0
M  V30 35 F 5.569636 3.288140 1.297413 0
M  V30 36 H 4.777011 -4.693607 0.641257 0
M  V30 37 H 6.352670 -5.217108 1.227635 0
M  V30 38 H 6.346248 -4.117149 -0.174989 0
M  V30 39 H 5.960726 1.148054 5.592287 0
M  V30 40 H 4.743042 2.137539 3.629128 0
M  V30 41 H 4.097077 0.199215 0.427132 0
M  V30 42 H -0.486219 3.874012 1.138239 0
M  V30 43 H 0.763094 0.313126 1.035478 0
M  V30 44 H -0.648717 -1.602968 0.807030 0
M  V30 45 H -5.184249 -0.548685 0.190399 0
M  V30 46 H -5.392484 -2.177576 0.815561 0
M  V30 47 H -4.911284 -1.296817 -1.961003 0
M  V30 48 H -5.693412 -2.786625 -1.336678 0
M  V30 49 H -2.718062 -2.223724 -1.622943 0
M  V30 50 H -1.896323 -4.292519 -3.824551 0
M  V30 51 H -1.555577 -4.042203 -2.105823 0
M  V30 52 H -2.417259 -5.540787 -2.577491 0
M  V30 53 H -4.916617 -3.019438 -4.162992 0
M  V30 54 H -3.213986 -3.393340 -4.668765 0
M  V30 55 H -3.498526 -1.960219 -3.665354 0
M  V30 56 H -4.362741 -4.302503 -0.085615 0
M  V30 57 H -2.597163 -4.597988 -0.448977 0
M  V30 58 H -1.937558 -3.130988 1.128520 0
M  V30 59 H -3.619658 -3.318158 1.779894 0
M  V30 60 H -4.002205 1.015955 0.660815 0
M  V30 61 H -4.674371 2.755030 1.505285 0
M  V30 62 H -4.394374 4.425403 0.869475 0
M  V30 63 H -4.453142 3.062377 -0.246831 0
M  V30 64 H 3.867872 5.358702 1.248016 0
M  V30 END ATOM
M  V30 BEGIN BOND
M  V30 1 1 1 2
M  V30 2 1 2 3
M  V30 3 2 3 4
M  V30 4 1 3 5
M  V30 5 1 5 6
M  V30 6 1 6 7
M  V30 7 2 7 8
M  V30 8 1 8 9
M  V30 9 1 9 10
M  V30 10 1 10 11
M  V30 11 2 11 12
M  V30 12 1 12 13
M  V30 13 1 13 14
M  V30 14 1 14 15
M  V30 15 2 15 16
M  V30 16 1 16 17
M  V30 17 2 17 18
M  V30 18 1 18 19
M  V30 19 1 19 20
M  V30 20 1 20 21
M  V30 21 1 21 22
M  V30 22 1 22 23
M  V30 23 1 23 24
M  V30 24 1 23 25
M  V30 25 1 22 26
M  V30 26 1 26 27
M  V30 27 1 18 28
M  V30 28 2 28 29
M  V30 29 1 29 30
M  V30 30 1 30 31
M  V30 31 2 13 32
M  V30 32 1 32 33
M  V30 33 2 33 34
M  V30 34 1 34 35
M  V30 35 2 9 5
M  V30 36 1 34 11
M  V30 37 1 29 15
M  V30 38 1 27 19
M  V30 39 1 1 36
M  V30 40 1 1 37
M  V30 41 1 1 38
M  V30 42 1 7 39
M  V30 43 1 8 40
M  V30 44 1 10 41
M  V30 45 1 14 42
M  V30 46 1 16 43
M  V30 47 1 17 44
M  V30 48 1 20 45
M  V30 49 1 20 46
M  V30 50 1 21 47
M  V30 51 1 21 48
M  V30 52 1 22 49
M  V30 53 1 24 50
M  V30 54 1 24 51
M  V30 55 1 24 52
M  V30 56 1 25 53
M  V30 57 1 25 54
M  V30 58 1 25 55
M  V30 59 1 26 56
M  V30 60 1 26 57
M  V30 61 1 27 58
M  V30 62 1 27 59
M  V30 63 1 28 60
M  V30 64 1 31 61
M  V30 65 1 31 62
M  V30 66 1 31 63
M  V30 67 1 33 64
M  V30 END BOND
M  V30 END CTAB
M  END
>  <Dataset>  (361) 
ChEMBL_Kinases

>  <Ligand_Instance>  (361) 
nan

>  <PDB_ID>  (361) 
nan

>  <Standardized_SMILES>  (361) 
COC(=O)c1sccc1Nc1nc(Nc2ccc(N3CCC(N(C)C)CC3)cc2OC)ncc1F

>  <Name>  (361) 
nan

>  <Pocket>  (361) 
nan

>  <ATP_Site>  (361) 
nan

>  <Peripheral>  (361) 
nan

>  <Num_H_Atoms_ProtBoundConf>  (361) 
nan

>  <Num_Resolved_Atoms>  (361) 
nan

>  <Num_Not_Resolved_Atoms>  (361) 
nan

$$$$
CHEMBL4098458
     RDKit          3D

  0  0  0  0  0  0  0  0  0  0999 V3000
M  V30 BEGIN CTAB
M  V30 COUNTS 51 54 0 0 0
M  V30 BEGIN ATOM
M  V30 1 C 1.290317 -4.076145 1.156379 0
M  V30 2 O 1.154854 -2.969794 0.288114 0
M  V30 3 C 2.192760 -2.457089 -0.472874 0
M  V30 4 C 3.444149 -3.057785 -0.385335 0
M  V30 5 C 4.495420 -2.570449 -1.130120 0
M  V30 6 F 5.707935 -3.150173 -1.046294 0
M  V30 7 C 4.313021 -1.483307 -1.967491 0
M  V30 8 C 3.057653 -0.947217 -2.000342 0
M  V30 9 F 2.909144 0.129135 -2.839610 0
M  V30 10 C 1.946688 -1.357167 -1.299913 0
M  V30 11 C 0.635562 -0.728910 -1.387426 0
M  V30 12 C 0.439057 0.460182 -0.455966 0
M  V30 13 N -0.985505 0.748491 -0.564678 0
M  V30 14 C -1.766284 0.559781 0.604874 0
M  V30 15 N -1.038839 0.288902 1.711914 0
M  V30 16 C -1.613697 0.079698 2.922099 0
M  V30 17 C -0.770328 -0.198199 4.069794 0
M  V30 18 C 0.605938 -0.243842 3.886647 0
M  V30 19 C 1.462433 -0.501642 4.961886 0
M  V30 20 N 0.946263 -0.710020 6.200981 0
M  V30 21 C -0.389339 -0.659968 6.348754 0
M  V30 22 C -1.284202 -0.411052 5.330090 0
M  V30 23 C -2.976243 0.143491 3.028694 0
M  V30 24 C -3.719810 0.417204 1.910042 0
M  V30 25 O -4.988202 0.484915 1.966819 0
M  V30 26 N -3.098120 0.616203 0.737140 0
M  V30 27 C -3.884056 0.888895 -0.441821 0
M  V30 28 C -1.322341 1.211014 -1.890924 0
M  V30 29 C -0.100742 1.044696 -2.801410 0
M  V30 30 N 0.359474 -0.314879 -2.728912 0
M  V30 31 H 1.880787 -3.759820 2.018947 0
M  V30 32 H 1.872461 -4.849188 0.594921 0
M  V30 33 H 0.296972 -4.464856 1.429824 0
M  V30 34 H 3.647965 -3.908675 0.248989 0
M  V30 35 H 5.126429 -1.089960 -2.557566 0
M  V30 36 H -0.121834 -1.498493 -1.124095 0
M  V30 37 H 0.645895 0.055537 0.582493 0
M  V30 38 H 1.088029 1.301376 -0.667192 0
M  V30 39 H 1.111950 -0.091030 2.942108 0
M  V30 40 H 2.537629 -0.555233 4.914083 0
M  V30 41 H -0.845097 -0.823003 7.336507 0
M  V30 42 H -2.345148 -0.384644 5.518667 0
M  V30 43 H -3.513809 -0.005464 3.930036 0
M  V30 44 H -3.638323 1.793387 -0.982443 0
M  V30 45 H -4.958911 1.033276 -0.098521 0
M  V30 46 H -3.957375 0.007327 -1.111256 0
M  V30 47 H -1.548299 2.315863 -1.830992 0
M  V30 48 H -2.109520 0.634515 -2.398531 0
M  V30 49 H 0.713180 1.728593 -2.575050 0
M  V30 50 H -0.442005 1.186957 -3.875620 0
M  V30 51 H -0.216235 -0.988142 -3.281762 0
M  V30 END ATOM
M  V30 BEGIN BOND
M  V30 1 1 1 2
M  V30 2 1 2 3
M  V30 3 2 3 4
M  V30 4 1 4 5
M  V30 5 1 5 6
M  V30 6 2 5 7
M  V30 7 1 7 8
M  V30 8 1 8 9
M  V30 9 2 8 10
M  V30 10 1 10 11
M  V30 11 1 11 12
M  V30 12 1 12 13
M  V30 13 1 13 14
M  V30 14 2 14 15
M  V30 15 1 15 16
M  V30 16 1 16 17
M  V30 17 2 17 18
M  V30 18 1 18 19
M  V30 19 2 19 20
M  V30 20 1 20 21
M  V30 21 2 21 22
M  V30 22 2 16 23
M  V30 23 1 23 24
M  V30 24 2 24 25
M  V30 25 1 24 26
M  V30 26 1 26 27
M  V30 27 1 13 28
M  V30 28 1 28 29
M  V30 29 1 29 30
M  V30 30 1 10 3
M  V30 31 1 30 11
M  V30 32 1 26 14
M  V30 33 1 22 17
M  V30 34 1 1 31
M  V30 35 1 1 32
M  V30 36 1 1 33
M  V30 37 1 4 34
M  V30 38 1 7 35
M  V30 39 1 11 36
M  V30 40 1 12 37
M  V30 41 1 12 38
M  V30 42 1 18 39
M  V30 43 1 19 40
M  V30 44 1 21 41
M  V30 45 1 22 42
M  V30 46 1 23 43
M  V30 47 1 27 44
M  V30 48 1 27 45
M  V30 49 1 27 46
M  V30 50 1 28 47
M  V30 51 1 28 48
M  V30 52 1 29 49
M  V30 53 1 29 50
M  V30 54 1 30 51
M  V30 END BOND
M  V30 END CTAB
M  END
>  <Dataset>  (362) 
ChEMBL_Kinases

>  <Ligand_Instance>  (362) 
nan

>  <PDB_ID>  (362) 
nan

>  <Standardized_SMILES>  (362) 
COc1cc(F)cc(F)c1C1CN(c2nc(-c3ccncc3)cc(=O)n2C)CCN1

>  <Name>  (362) 
nan

>  <Pocket>  (362) 
nan

>  <ATP_Site>  (362) 
nan

>  <Peripheral>  (362) 
nan

>  <Num_H_Atoms_ProtBoundConf>  (362) 
nan

>  <Num_Resolved_Atoms>  (362) 
nan

>  <Num_Not_Resolved_Atoms>  (362) 
nan

$$$$
CHEMBL4098392
     RDKit          3D

  0  0  0  0  0  0  0  0  0  0999 V3000
M  V30 BEGIN CTAB
M  V30 COUNTS 36 39 0 0 0
M  V30 BEGIN ATOM
M  V30 1 O -1.800467 0.357448 3.491867 0
M  V30 2 C -0.878147 -0.026013 2.762279 0
M  V30 3 N -0.342236 -1.258073 2.780783 0
M  V30 4 C 0.658294 -1.498971 1.912577 0
M  V30 5 C 1.265372 -2.870033 1.922853 0
M  V30 6 N 0.649107 -3.797355 1.048758 0
M  V30 7 C -0.748961 -4.034117 1.320798 0
M  V30 8 C -1.094763 -5.002651 0.189943 0
M  V30 9 C -0.197561 -4.546050 -0.953491 0
M  V30 10 C 0.757771 -3.514502 -0.340019 0
M  V30 11 N 1.147022 -0.604296 1.044696 0
M  V30 12 C 0.676948 0.654627 0.950344 0
M  V30 13 C 1.039477 1.695509 0.141223 0
M  V30 14 C 0.411876 2.852968 0.244682 0
M  V30 15 C 0.567632 4.125715 -0.464835 0
M  V30 16 C -0.183115 5.259444 -0.231257 0
M  V30 17 N 0.327752 6.146681 -1.117313 0
M  V30 18 N 1.303701 5.599343 -1.827081 0
M  V30 19 C 1.505419 4.304050 -1.455568 0
M  V30 20 S -0.813855 2.648699 1.527212 0
M  V30 21 C -0.356105 0.884366 1.855096 0
M  V30 22 H -0.742325 -1.926930 3.463396 0
M  V30 23 H 1.199902 -3.254049 2.960368 0
M  V30 24 H 2.345036 -2.835116 1.684933 0
M  V30 25 H -1.361429 -3.122896 1.203164 0
M  V30 26 H -0.863445 -4.496426 2.314507 0
M  V30 27 H -0.770315 -6.035818 0.435579 0
M  V30 28 H -2.171641 -4.950692 -0.064166 0
M  V30 29 H -0.806881 -4.105529 -1.778110 0
M  V30 30 H 0.449696 -5.346414 -1.345906 0
M  V30 31 H 0.342539 -2.531752 -0.639292 0
M  V30 32 H 1.775523 -3.592727 -0.719384 0
M  V30 33 H 1.830481 1.608742 -0.590614 0
M  V30 34 H -0.980601 5.405300 0.480844 0
M  V30 35 H 1.854688 6.095126 -2.580578 0
M  V30 36 H 2.217278 3.585521 -1.833309 0
M  V30 END ATOM
M  V30 BEGIN BOND
M  V30 1 2 1 2
M  V30 2 1 2 3
M  V30 3 1 3 4
M  V30 4 1 4 5
M  V30 5 1 5 6
M  V30 6 1 6 7
M  V30 7 1 7 8
M  V30 8 1 8 9
M  V30 9 1 9 10
M  V30 10 2 4 11
M  V30 11 1 11 12
M  V30 12 1 12 13
M  V30 13 2 13 14
M  V30 14 1 14 15
M  V30 15 1 15 16
M  V30 16 2 16 17
M  V30 17 1 17 18
M  V30 18 1 18 19
M  V30 19 1 14 20
M  V30 20 1 20 21
M  V30 21 1 21 2
M  V30 22 1 10 6
M  V30 23 2 21 12
M  V30 24 2 19 15
M  V30 25 1 3 22
M  V30 26 1 5 23
M  V30 27 1 5 24
M  V30 28 1 7 25
M  V30 29 1 7 26
M  V30 30 1 8 27
M  V30 31 1 8 28
M  V30 32 1 9 29
M  V30 33 1 9 30
M  V30 34 1 10 31
M  V30 35 1 10 32
M  V30 36 1 13 33
M  V30 37 1 16 34
M  V30 38 1 18 35
M  V30 39 1 19 36
M  V30 END BOND
M  V30 END CTAB
M  END
>  <Dataset>  (363) 
ChEMBL_Kinases

>  <Ligand_Instance>  (363) 
nan

>  <PDB_ID>  (363) 
nan

>  <Standardized_SMILES>  (363) 
O=c1[nH]c(CN2CCCC2)nc2cc(-c3cn[nH]c3)sc12

>  <Name>  (363) 
nan

>  <Pocket>  (363) 
nan

>  <ATP_Site>  (363) 
nan

>  <Peripheral>  (363) 
nan

>  <Num_H_Atoms_ProtBoundConf>  (363) 
nan

>  <Num_Resolved_Atoms>  (363) 
nan

>  <Num_Not_Resolved_Atoms>  (363) 
nan

$$$$
CHEMBL4800453
     RDKit          3D

  0  0  0  0  0  0  0  0  0  0999 V3000
M  V30 BEGIN CTAB
M  V30 COUNTS 52 56 0 0 0
M  V30 BEGIN ATOM
M  V30 1 O 1.632201 -0.878740 2.406722 0
M  V30 2 C 1.747361 0.010491 3.272407 0
M  V30 3 N 2.995903 0.122511 3.912139 0
M  V30 4 C 4.311685 -0.467478 3.937567 0
M  V30 5 C 4.927979 -0.341742 2.597670 0
M  V30 6 C 5.730956 0.797393 2.461113 0
M  V30 7 C 6.376253 1.157056 1.319206 0
M  V30 8 C 6.249802 0.356733 0.189617 0
M  V30 9 C 5.469149 -0.771515 0.286599 0
M  V30 10 C 4.832176 -1.102308 1.459506 0
M  V30 11 F 4.094126 -2.220672 1.581872 0
M  V30 12 N 0.566613 0.770882 3.461199 0
M  V30 13 C -0.413896 0.246816 2.538195 0
M  V30 14 C -0.322963 0.953646 1.353604 0
M  V30 15 C -1.140446 0.671674 0.261168 0
M  V30 16 C -2.063302 -0.361811 0.410860 0
M  V30 17 C -2.127879 -1.045753 1.604541 0
M  V30 18 C -1.324796 -0.775150 2.689325 0
M  V30 19 O -2.963635 -2.111045 1.989792 0
M  V30 20 C -3.738835 -2.946279 1.159167 0
M  V30 21 N -4.081166 -4.141585 1.711329 0
M  V30 22 C -4.814003 -5.042692 1.055588 0
M  V30 23 C -5.267000 -4.805410 -0.232947 0
M  V30 24 C -4.954812 -3.600054 -0.865293 0
M  V30 25 C -4.188958 -2.709865 -0.122151 0
M  V30 26 C -3.946763 -1.505673 -0.922649 0
M  V30 27 O -4.749626 -1.229339 -1.851778 0
M  V30 28 N -2.862301 -0.599384 -0.742435 0
M  V30 29 C -2.511378 0.197761 -1.894253 0
M  V30 30 C -1.535085 -0.484133 -2.633025 0
M  V30 31 C -1.034978 0.091544 -3.802891 0
M  V30 32 N -1.489007 1.295197 -4.217848 0
M  V30 33 C -2.423303 1.915567 -3.483170 0
M  V30 34 C -2.972866 1.426198 -2.320052 0
M  V30 35 H 2.894146 0.933242 4.611762 0
M  V30 36 H 4.207067 -1.582296 4.162808 0
M  V30 37 H 4.908032 -0.018906 4.726707 0
M  V30 38 H 5.907128 1.503419 3.270592 0
M  V30 39 H 6.996701 2.034892 1.207226 0
M  V30 40 H 6.703332 0.522384 -0.775119 0
M  V30 41 H 5.296406 -1.480623 -0.537381 0
M  V30 42 H 0.634891 1.525203 4.193203 0
M  V30 43 H 0.347514 1.779827 1.098206 0
M  V30 44 H -1.142618 1.160393 -0.689121 0
M  V30 45 H -1.278954 -1.224672 3.650937 0
M  V30 46 H -5.091460 -5.986566 1.481413 0
M  V30 47 H -5.868392 -5.492183 -0.829674 0
M  V30 48 H -5.270021 -3.338524 -1.870014 0
M  V30 49 H -1.082703 -1.433732 -2.429906 0
M  V30 50 H -0.266861 -0.385111 -4.429191 0
M  V30 51 H -2.832280 2.899732 -3.766953 0
M  V30 52 H -3.704789 1.814135 -1.662505 0
M  V30 END ATOM
M  V30 BEGIN BOND
M  V30 1 2 1 2
M  V30 2 1 2 3
M  V30 3 1 3 4
M  V30 4 1 4 5
M  V30 5 2 5 6
M  V30 6 1 6 7
M  V30 7 2 7 8
M  V30 8 1 8 9
M  V30 9 2 9 10
M  V30 10 1 10 11
M  V30 11 1 2 12
M  V30 12 1 12 13
M  V30 13 2 13 14
M  V30 14 1 14 15
M  V30 15 2 15 16
M  V30 16 1 16 17
M  V30 17 2 17 18
M  V30 18 1 17 19
M  V30 19 1 19 20
M  V30 20 2 20 21
M  V30 21 1 21 22
M  V30 22 2 22 23
M  V30 23 1 23 24
M  V30 24 2 24 25
M  V30 25 1 25 26
M  V30 26 2 26 27
M  V30 27 1 26 28
M  V30 28 1 28 29
M  V30 29 2 29 30
M  V30 30 1 30 31
M  V30 31 2 31 32
M  V30 32 1 32 33
M  V30 33 2 33 34
M  V30 34 1 10 5
M  V30 35 1 18 13
M  V30 36 1 25 20
M  V30 37 1 34 29
M  V30 38 1 28 16
M  V30 39 1 3 35
M  V30 40 1 4 36
M  V30 41 1 4 37
M  V30 42 1 6 38
M  V30 43 1 7 39
M  V30 44 1 8 40
M  V30 45 1 9 41
M  V30 46 1 12 42
M  V30 47 1 14 43
M  V30 48 1 15 44
M  V30 49 1 18 45
M  V30 50 1 22 46
M  V30 51 1 23 47
M  V30 52 1 24 48
M  V30 53 1 30 49
M  V30 54 1 31 50
M  V30 55 1 33 51
M  V30 56 1 34 52
M  V30 END BOND
M  V30 END CTAB
M  END
>  <Dataset>  (364) 
ChEMBL_Kinases

>  <Ligand_Instance>  (364) 
nan

>  <PDB_ID>  (364) 
nan

>  <Standardized_SMILES>  (364) 
O=C(NCc1ccccc1F)Nc1ccc2c(c1)Oc1ncccc1C(=O)N2c1ccncc1

>  <Name>  (364) 
nan

>  <Pocket>  (364) 
nan

>  <ATP_Site>  (364) 
nan

>  <Peripheral>  (364) 
nan

>  <Num_H_Atoms_ProtBoundConf>  (364) 
nan

>  <Num_Resolved_Atoms>  (364) 
nan

>  <Num_Not_Resolved_Atoms>  (364) 
nan

$$$$
CHEMBL4098355
     RDKit          3D

  0  0  0  0  0  0  0  0  0  0999 V3000
M  V30 BEGIN CTAB
M  V30 COUNTS 55 60 0 0 0
M  V30 BEGIN ATOM
M  V30 1 O 4.391525 -4.145552 6.268327 0
M  V30 2 C 3.600682 -4.131530 5.278143 0
M  V30 3 C 2.942068 -2.887574 4.749640 0
M  V30 4 C 2.049265 -3.431862 3.692203 0
M  V30 5 C 1.122713 -2.867824 2.839957 0
M  V30 6 C 0.407224 -3.551842 1.880618 0
M  V30 7 N -0.512667 -2.794815 1.098202 0
M  V30 8 C 0.054633 -2.475434 -0.171517 0
M  V30 9 N -0.064464 -1.192070 -0.514752 0
M  V30 10 C 0.367182 -0.615213 -1.633367 0
M  V30 11 N 0.108629 0.766534 -1.850031 0
M  V30 12 C -0.544256 1.535924 -0.798381 0
M  V30 13 C -1.091795 2.853171 -1.283333 0
M  V30 14 C -1.696130 3.555595 -0.102250 0
M  V30 15 C -1.291914 4.671579 0.634342 0
M  V30 16 N -2.185250 4.920202 1.581360 0
M  V30 17 C -3.174594 4.004521 1.505708 0
M  V30 18 C -4.313885 3.873171 2.303454 0
M  V30 19 C -5.209998 2.845841 2.052777 0
M  V30 20 C -4.954671 1.956337 1.001464 0
M  V30 21 C -3.803606 2.130147 0.236178 0
M  V30 22 C -2.899762 3.140956 0.466143 0
M  V30 23 C 0.999822 -1.458435 -2.507097 0
M  V30 24 C 1.492185 -0.925427 -3.682947 0
M  V30 25 C 2.154077 -1.725380 -4.588636 0
M  V30 26 Cl 2.778247 -1.030746 -6.069648 0
M  V30 27 C 2.282847 -3.060077 -4.247201 0
M  V30 28 C 1.814480 -3.642988 -3.094178 0
M  V30 29 C 1.162747 -2.800456 -2.221401 0
M  V30 30 N 0.692995 -3.279809 -1.073723 0
M  V30 31 C 0.613778 -4.931597 1.734544 0
M  V30 32 C 1.545866 -5.533076 2.584855 0
M  V30 33 C 2.232571 -4.796433 3.526730 0
M  V30 34 N 3.189007 -5.271768 4.489744 0
M  V30 35 H 2.396438 -2.362195 5.545691 0
M  V30 36 H 3.718640 -2.235654 4.273333 0
M  V30 37 H 0.966970 -1.801686 2.957019 0
M  V30 38 H -1.495253 -2.445458 1.248914 0
M  V30 39 H 0.328409 1.326393 -2.702273 0
M  V30 40 H 0.204886 1.771929 0.012047 0
M  V30 41 H -1.302248 0.879148 -0.332463 0
M  V30 42 H -1.926391 2.639599 -2.017995 0
M  V30 43 H -0.313599 3.477716 -1.742997 0
M  V30 44 H -0.370185 5.150301 0.354620 0
M  V30 45 H -2.058256 5.736689 2.256145 0
M  V30 46 H -4.546877 4.530309 3.114863 0
M  V30 47 H -6.113870 2.685824 2.633464 0
M  V30 48 H -5.602274 1.118017 0.732080 0
M  V30 49 H -3.615142 1.449892 -0.560845 0
M  V30 50 H 1.377853 0.116978 -3.921364 0
M  V30 51 H 2.805569 -3.720454 -4.947529 0
M  V30 52 H 1.973793 -4.718041 -2.926318 0
M  V30 53 H 0.025777 -5.391600 0.968008 0
M  V30 54 H 1.681444 -6.597073 2.444977 0
M  V30 55 H 3.549845 -6.255637 4.631946 0
M  V30 END ATOM
M  V30 BEGIN BOND
M  V30 1 2 1 2
M  V30 2 1 2 3
M  V30 3 1 3 4
M  V30 4 2 4 5
M  V30 5 1 5 6
M  V30 6 1 6 7
M  V30 7 1 7 8
M  V30 8 2 8 9
M  V30 9 1 9 10
M  V30 10 1 10 11
M  V30 11 1 11 12
M  V30 12 1 12 13
M  V30 13 1 13 14
M  V30 14 2 14 15
M  V30 15 1 15 16
M  V30 16 1 16 17
M  V30 17 2 17 18
M  V30 18 1 18 19
M  V30 19 2 19 20
M  V30 20 1 20 21
M  V30 21 2 21 22
M  V30 22 2 10 23
M  V30 23 1 23 24
M  V30 24 2 24 25
M  V30 25 1 25 26
M  V30 26 1 25 27
M  V30 27 2 27 28
M  V30 28 1 28 29
M  V30 29 2 29 30
M  V30 30 2 6 31
M  V30 31 1 31 32
M  V30 32 2 32 33
M  V30 33 1 33 34
M  V30 34 1 34 2
M  V30 35 1 33 4
M  V30 36 1 30 8
M  V30 37 1 22 14
M  V30 38 1 29 23
M  V30 39 1 22 17
M  V30 40 1 3 35
M  V30 41 1 3 36
M  V30 42 1 5 37
M  V30 43 1 7 38
M  V30 44 1 11 39
M  V30 45 1 12 40
M  V30 46 1 12 41
M  V30 47 1 13 42
M  V30 48 1 13 43
M  V30 49 1 15 44
M  V30 50 1 16 45
M  V30 51 1 18 46
M  V30 52 1 19 47
M  V30 53 1 20 48
M  V30 54 1 21 49
M  V30 55 1 24 50
M  V30 56 1 27 51
M  V30 57 1 28 52
M  V30 58 1 31 53
M  V30 59 1 32 54
M  V30 60 1 34 55
M  V30 END BOND
M  V30 END CTAB
M  END
>  <Dataset>  (365) 
ChEMBL_Kinases

>  <Ligand_Instance>  (365) 
nan

>  <PDB_ID>  (365) 
nan

>  <Standardized_SMILES>  (365) 
O=C1Cc2cc(Nc3nc(NCCc4c[nH]c5ccccc45)c4cc(Cl)ccc4n3)ccc2N1

>  <Name>  (365) 
nan

>  <Pocket>  (365) 
nan

>  <ATP_Site>  (365) 
nan

>  <Peripheral>  (365) 
nan

>  <Num_H_Atoms_ProtBoundConf>  (365) 
nan

>  <Num_Resolved_Atoms>  (365) 
nan

>  <Num_Not_Resolved_Atoms>  (365) 
nan

$$$$
CHEMBL4098505
     RDKit          3D

  0  0  0  0  0  0  0  0  0  0999 V3000
M  V30 BEGIN CTAB
M  V30 COUNTS 24 26 0 0 0
M  V30 BEGIN ATOM
M  V30 1 F 1.190592 -0.287902 5.206064 0
M  V30 2 C 1.514208 -0.855313 4.030065 0
M  V30 3 C 0.841879 -0.560589 2.858506 0
M  V30 4 C 1.129742 -1.111373 1.624079 0
M  V30 5 C 0.389443 -0.765288 0.422176 0
M  V30 6 C -0.107328 -1.580548 -0.558620 0
M  V30 7 N -0.737628 -0.873679 -1.513184 0
M  V30 8 C -0.656945 0.412872 -1.161765 0
M  V30 9 C -1.146107 1.515543 -1.810433 0
M  V30 10 N -0.961377 2.761655 -1.288856 0
M  V30 11 C -0.281894 2.881270 -0.113062 0
M  V30 12 C 0.198368 1.769376 0.518945 0
M  V30 13 C 0.043834 0.499297 0.044747 0
M  V30 14 C 2.181046 -2.033582 1.569675 0
M  V30 15 C 2.812309 -2.286552 2.766777 0
M  V30 16 N 2.524053 -1.746786 3.954761 0
M  V30 17 H 0.034651 0.163030 2.963893 0
M  V30 18 H 0.027739 -2.670074 -0.510279 0
M  V30 19 H -1.174481 -1.331753 -2.332581 0
M  V30 20 H -1.682551 1.413965 -2.739885 0
M  V30 21 H -0.137973 3.881762 0.298235 0
M  V30 22 H 0.739782 1.896038 1.460970 0
M  V30 23 H 2.466007 -2.503407 0.655892 0
M  V30 24 H 3.644770 -2.996218 2.807892 0
M  V30 END ATOM
M  V30 BEGIN BOND
M  V30 1 1 1 2
M  V30 2 2 2 3
M  V30 3 1 3 4
M  V30 4 1 4 5
M  V30 5 2 5 6
M  V30 6 1 6 7
M  V30 7 1 7 8
M  V30 8 2 8 9
M  V30 9 1 9 10
M  V30 10 2 10 11
M  V30 11 1 11 12
M  V30 12 2 12 13
M  V30 13 2 4 14
M  V30 14 1 14 15
M  V30 15 2 15 16
M  V30 16 1 16 2
M  V30 17 1 13 5
M  V30 18 1 13 8
M  V30 19 1 3 17
M  V30 20 1 6 18
M  V30 21 1 7 19
M  V30 22 1 9 20
M  V30 23 1 11 21
M  V30 24 1 12 22
M  V30 25 1 14 23
M  V30 26 1 15 24
M  V30 END BOND
M  V30 END CTAB
M  END
>  <Dataset>  (366) 
ChEMBL_Kinases

>  <Ligand_Instance>  (366) 
nan

>  <PDB_ID>  (366) 
nan

>  <Standardized_SMILES>  (366) 
Fc1cc(-c2c[nH]c3cnccc23)ccn1

>  <Name>  (366) 
nan

>  <Pocket>  (366) 
nan

>  <ATP_Site>  (366) 
nan

>  <Peripheral>  (366) 
nan

>  <Num_H_Atoms_ProtBoundConf>  (366) 
nan

>  <Num_Resolved_Atoms>  (366) 
nan

>  <Num_Not_Resolved_Atoms>  (366) 
nan

$$$$
CHEMBL4799777
     RDKit          3D

  0  0  0  0  0  0  0  0  0  0999 V3000
M  V30 BEGIN CTAB
M  V30 COUNTS 54 57 0 0 0
M  V30 BEGIN ATOM
M  V30 1 C 2.339970 -4.593831 1.404990 0
M  V30 2 C 2.916996 -3.955457 2.397367 0
M  V30 3 C 3.113562 -4.824145 3.583280 0
M  V30 4 C 3.244538 -2.566612 2.162541 0
M  V30 5 O 2.699988 -3.026079 1.118609 0
M  V30 6 N 3.675974 -1.235919 2.240621 0
M  V30 7 C 4.293131 -0.778714 3.463918 0
M  V30 8 C 3.966491 0.650461 3.704769 0
M  V30 9 C 2.965879 1.168988 2.741165 0
M  V30 10 C 2.655064 0.799000 1.535703 0
M  V30 11 C 1.649419 1.370812 0.651828 0
M  V30 12 C 0.874594 2.429976 1.065323 0
M  V30 13 C -0.086883 3.011934 0.250304 0
M  V30 14 C -0.219773 2.451024 -1.025780 0
M  V30 15 C -1.180353 2.957015 -2.002175 0
M  V30 16 C -2.479731 2.317650 -2.049721 0
M  V30 17 O -1.705000 1.771128 -1.146635 0
M  V30 18 N -3.737264 1.698534 -2.095414 0
M  V30 19 C -4.324208 0.629889 -1.380022 0
M  V30 20 C -4.244257 -0.704164 -1.719355 0
M  V30 21 C -4.980457 -1.379758 -0.744589 0
M  V30 22 C -5.106632 -2.881305 -0.799141 0
M  V30 23 C -4.934773 -3.555118 -2.124809 0
M  V30 24 C -3.882129 -3.686334 -1.037395 0
M  V30 25 N -5.465668 -0.474872 0.121931 0
M  V30 26 N -5.062609 0.743003 -0.270670 0
M  V30 27 C 0.570660 1.377627 -1.433391 0
M  V30 28 N 1.499147 0.852739 -0.578787 0
M  V30 29 C 3.488964 -0.370021 1.096707 0
M  V30 30 H 1.863117 -5.253740 0.688157 0
M  V30 31 H 1.936387 -4.668370 0.410963 0
M  V30 32 H 2.160506 -5.303818 3.903634 0
M  V30 33 H 3.787120 -5.676402 3.273571 0
M  V30 34 H 3.590454 -4.266961 4.408577 0
M  V30 35 H 5.402786 -0.829630 3.288804 0
M  V30 36 H 4.013121 -1.413263 4.336358 0
M  V30 37 H 3.593937 0.749991 4.766443 0
M  V30 38 H 4.874872 1.321002 3.635656 0
M  V30 39 H 2.400662 2.020519 3.145938 0
M  V30 40 H 0.950167 2.884116 2.034735 0
M  V30 41 H -0.730767 3.829619 0.481165 0
M  V30 42 H -1.321426 4.074187 -1.841669 0
M  V30 43 H -0.748233 2.941318 -3.055165 0
M  V30 44 H -3.979495 2.396882 -2.874875 0
M  V30 45 H -3.694398 -1.083987 -2.593310 0
M  V30 46 H -5.772366 -3.275268 -0.023516 0
M  V30 47 H -4.718967 -2.958332 -3.028193 0
M  V30 48 H -5.526350 -4.459092 -2.358119 0
M  V30 49 H -2.913674 -3.227188 -1.245393 0
M  V30 50 H -3.798466 -4.680229 -0.556188 0
M  V30 51 H -6.041717 -0.833671 0.911854 0
M  V30 52 H 0.517765 0.906810 -2.388803 0
M  V30 53 H 3.032618 -0.923241 0.257492 0
M  V30 54 H 4.468664 0.007846 0.699413 0
M  V30 END ATOM
M  V30 BEGIN BOND
M  V30 1 2 1 2
M  V30 2 1 2 3
M  V30 3 1 2 4
M  V30 4 2 4 5
M  V30 5 1 4 6
M  V30 6 1 6 7
M  V30 7 1 7 8
M  V30 8 1 8 9
M  V30 9 2 9 10
M  V30 10 1 10 11
M  V30 11 2 11 12
M  V30 12 1 12 13
M  V30 13 2 13 14
M  V30 14 1 14 15
M  V30 15 1 15 16
M  V30 16 2 16 17
M  V30 17 1 16 18
M  V30 18 1 18 19
M  V30 19 1 19 20
M  V30 20 2 20 21
M  V30 21 1 21 22
M  V30 22 1 22 23
M  V30 23 1 23 24
M  V30 24 1 21 25
M  V30 25 1 25 26
M  V30 26 1 14 27
M  V30 27 2 27 28
M  V30 28 1 10 29
M  V30 29 1 29 6
M  V30 30 1 28 11
M  V30 31 2 26 19
M  V30 32 1 24 22
M  V30 33 1 1 30
M  V30 34 1 1 31
M  V30 35 1 3 32
M  V30 36 1 3 33
M  V30 37 1 3 34
M  V30 38 1 7 35
M  V30 39 1 7 36
M  V30 40 1 8 37
M  V30 41 1 8 38
M  V30 42 1 9 39
M  V30 43 1 12 40
M  V30 44 1 13 41
M  V30 45 1 15 42
M  V30 46 1 15 43
M  V30 47 1 18 44
M  V30 48 1 20 45
M  V30 49 1 22 46
M  V30 50 1 23 47
M  V30 51 1 23 48
M  V30 52 1 24 49
M  V30 53 1 24 50
M  V30 54 1 25 51
M  V30 55 1 27 52
M  V30 56 1 29 53
M  V30 57 1 29 54
M  V30 END BOND
M  V30 END CTAB
M  END
>  <Dataset>  (367) 
ChEMBL_Kinases

>  <Ligand_Instance>  (367) 
nan

>  <PDB_ID>  (367) 
nan

>  <Standardized_SMILES>  (367) 
C=C(C)C(=O)N1CCC=C(c2ccc(CC(=O)Nc3cc(C4CC4)[nH]n3)cn2)C1

>  <Name>  (367) 
nan

>  <Pocket>  (367) 
nan

>  <ATP_Site>  (367) 
nan

>  <Peripheral>  (367) 
nan

>  <Num_H_Atoms_ProtBoundConf>  (367) 
nan

>  <Num_Resolved_Atoms>  (367) 
nan

>  <Num_Not_Resolved_Atoms>  (367) 
nan

$$$$
CHEMBL4099435
     RDKit          3D

  0  0  0  0  0  0  0  0  0  0999 V3000
M  V30 BEGIN CTAB
M  V30 COUNTS 34 36 0 0 0
M  V30 BEGIN ATOM
M  V30 1 C -3.334756 -3.485871 2.843723 0
M  V30 2 C -1.870972 -3.137932 2.684602 0
M  V30 3 O -1.070320 -4.265730 2.516092 0
M  V30 4 C 0.273964 -3.950147 2.369861 0
M  V30 5 C 0.515245 -3.071642 1.175773 0
M  V30 6 N 0.470161 -1.750229 1.323769 0
M  V30 7 C 0.675692 -0.894243 0.301634 0
M  V30 8 C 0.655211 0.464481 0.330674 0
M  V30 9 C 0.884431 1.118684 -0.794005 0
M  V30 10 C 0.951486 2.535574 -1.184725 0
M  V30 11 C 1.214090 2.996843 -2.458600 0
M  V30 12 N 1.193228 4.348207 -2.427210 0
M  V30 13 N 0.934399 4.761159 -1.215298 0
M  V30 14 C 0.778409 3.664919 -0.417241 0
M  V30 15 C 0.476508 3.680268 1.019953 0
M  V30 16 S 1.150154 -0.134672 -1.996365 0
M  V30 17 C 0.926859 -1.541479 -0.861961 0
M  V30 18 C 0.977871 -2.903685 -1.036144 0
M  V30 19 O 1.229102 -3.297187 -2.212863 0
M  V30 20 N 0.764975 -3.710214 0.018572 0
M  V30 21 H -3.792609 -2.725282 3.491334 0
M  V30 22 H -3.439440 -4.477084 3.351900 0
M  V30 23 H -3.833427 -3.482547 1.852228 0
M  V30 24 H -1.543436 -2.659521 3.631228 0
M  V30 25 H -1.762469 -2.395815 1.862688 0
M  V30 26 H 0.812005 -4.912458 2.247508 0
M  V30 27 H 0.559330 -3.404584 3.307726 0
M  V30 28 H 0.466276 1.080164 1.199462 0
M  V30 29 H 1.411425 2.460930 -3.371414 0
M  V30 30 H 1.359260 4.996853 -3.250577 0
M  V30 31 H -0.528615 3.254698 1.275819 0
M  V30 32 H 0.389086 4.752820 1.369399 0
M  V30 33 H 1.293098 3.276360 1.665233 0
M  V30 34 H 0.812173 -4.735122 -0.154535 0
M  V30 END ATOM
M  V30 BEGIN BOND
M  V30 1 1 1 2
M  V30 2 1 2 3
M  V30 3 1 3 4
M  V30 4 1 4 5
M  V30 5 2 5 6
M  V30 6 1 6 7
M  V30 7 1 7 8
M  V30 8 2 8 9
M  V30 9 1 9 10
M  V30 10 2 10 11
M  V30 11 1 11 12
M  V30 12 1 12 13
M  V30 13 2 13 14
M  V30 14 1 14 15
M  V30 15 1 9 16
M  V30 16 1 16 17
M  V30 17 1 17 18
M  V30 18 2 18 19
M  V30 19 1 18 20
M  V30 20 1 20 5
M  V30 21 2 17 7
M  V30 22 1 14 10
M  V30 23 1 1 21
M  V30 24 1 1 22
M  V30 25 1 1 23
M  V30 26 1 2 24
M  V30 27 1 2 25
M  V30 28 1 4 26
M  V30 29 1 4 27
M  V30 30 1 8 28
M  V30 31 1 11 29
M  V30 32 1 12 30
M  V30 33 1 15 31
M  V30 34 1 15 32
M  V30 35 1 15 33
M  V30 36 1 20 34
M  V30 END BOND
M  V30 END CTAB
M  END
>  <Dataset>  (368) 
ChEMBL_Kinases

>  <Ligand_Instance>  (368) 
nan

>  <PDB_ID>  (368) 
nan

>  <Standardized_SMILES>  (368) 
CCOCc1nc2cc(-c3c[nH]nc3C)sc2c(=O)[nH]1

>  <Name>  (368) 
nan

>  <Pocket>  (368) 
nan

>  <ATP_Site>  (368) 
nan

>  <Peripheral>  (368) 
nan

>  <Num_H_Atoms_ProtBoundConf>  (368) 
nan

>  <Num_Resolved_Atoms>  (368) 
nan

>  <Num_Not_Resolved_Atoms>  (368) 
nan

$$$$
CHEMBL4099431
     RDKit          3D

  0  0  0  0  0  0  0  0  0  0999 V3000
M  V30 BEGIN CTAB
M  V30 COUNTS 70 74 0 0 0
M  V30 BEGIN ATOM
M  V30 1 C 2.187386 -0.539531 5.002507 0
M  V30 2 N 0.893753 -1.195960 4.932798 0
M  V30 3 C 1.054962 -2.649494 5.083714 0
M  V30 4 C 2.215746 -3.105523 4.176493 0
M  V30 5 N 2.350763 -2.160210 3.105149 0
M  V30 6 C 3.333767 -2.551938 2.185767 0
M  V30 7 C 3.404325 -1.648027 0.994262 0
M  V30 8 O 2.848641 -0.635112 0.519272 0
M  V30 9 N 4.043022 -1.352335 -0.229333 0
M  V30 10 C 5.297191 -1.937899 -0.680096 0
M  V30 11 C 3.185600 -0.380252 -0.849039 0
M  V30 12 C 2.262651 -1.194770 -1.541727 0
M  V30 13 C 1.200582 -0.646780 -2.288178 0
M  V30 14 C 1.068077 0.721077 -2.339839 0
M  V30 15 N -0.010982 1.340484 -3.065631 0
M  V30 16 C -1.174915 1.058579 -2.240889 0
M  V30 17 C -2.002667 0.190248 -2.799708 0
M  V30 18 C -2.019802 -0.538098 -4.059100 0
M  V30 19 O -1.086189 -0.286767 -4.896118 0
M  V30 20 N -3.119293 -1.420077 -4.100691 0
M  V30 21 C -3.821599 -1.262987 -2.856461 0
M  V30 22 C -4.944329 -1.962490 -2.477425 0
M  V30 23 C -5.484835 -1.714531 -1.219004 0
M  V30 24 C -6.652850 -2.496378 -0.862695 0
M  V30 25 O -7.156731 -3.334962 -1.650196 0
M  V30 26 O -7.425641 -2.538783 0.264188 0
M  V30 27 C -4.858789 -0.787773 -0.443182 0
M  V30 28 C -3.737393 -0.111130 -0.863293 0
M  V30 29 C -3.169002 -0.320857 -2.093254 0
M  V30 30 C -1.354779 1.813966 -1.018943 0
M  V30 31 C -2.357503 2.774770 -1.236622 0
M  V30 32 C -2.730700 3.651738 -0.207820 0
M  V30 33 C -2.088026 3.543905 1.020504 0
M  V30 34 C -1.086454 2.592709 1.259207 0
M  V30 35 C -0.772844 1.777940 0.224355 0
M  V30 36 C 1.981125 1.493105 -1.660713 0
M  V30 37 C 3.022726 0.996749 -0.925070 0
M  V30 38 C 1.077614 -1.799225 2.598887 0
M  V30 39 C 0.301428 -0.982136 3.620604 0
M  V30 40 H 2.445657 -0.038795 4.063736 0
M  V30 41 H 2.134514 0.270039 5.769461 0
M  V30 42 H 2.988138 -1.252963 5.255714 0
M  V30 43 H 1.243821 -2.916585 6.129128 0
M  V30 44 H 0.118369 -3.094611 4.693260 0
M  V30 45 H 3.139324 -3.272751 4.761020 0
M  V30 46 H 1.954154 -4.126581 3.768289 0
M  V30 47 H 4.352487 -2.663969 2.631976 0
M  V30 48 H 3.108541 -3.566855 1.753052 0
M  V30 49 H 5.878596 -2.344434 0.164304 0
M  V30 50 H 5.021921 -2.743840 -1.390772 0
M  V30 51 H 5.938809 -1.205090 -1.211370 0
M  V30 52 H 2.183736 -2.288189 -1.637300 0
M  V30 53 H 0.458136 -1.222479 -2.843027 0
M  V30 54 H -0.002418 1.864506 -3.948019 0
M  V30 55 H -3.267025 -2.019625 -4.950186 0
M  V30 56 H -5.403132 -2.689443 -3.131528 0
M  V30 57 H -7.471543 -3.412536 0.817936 0
M  V30 58 H -5.361076 -0.664203 0.527260 0
M  V30 59 H -3.373027 0.558876 -0.114529 0
M  V30 60 H -2.928299 2.957007 -2.161489 0
M  V30 61 H -3.472106 4.412675 -0.257083 0
M  V30 62 H -2.309352 4.180727 1.867754 0
M  V30 63 H -0.567108 2.474060 2.180161 0
M  V30 64 H -0.026005 1.002749 0.282291 0
M  V30 65 H 1.970041 2.575245 -1.641645 0
M  V30 66 H 3.816502 1.423262 -0.341516 0
M  V30 67 H 1.032328 -1.274230 1.642683 0
M  V30 68 H 0.455513 -2.732668 2.431919 0
M  V30 69 H -0.753650 -1.319094 3.715349 0
M  V30 70 H 0.301890 0.094233 3.408995 0
M  V30 END ATOM
M  V30 BEGIN BOND
M  V30 1 1 1 2
M  V30 2 1 2 3
M  V30 3 1 3 4
M  V30 4 1 4 5
M  V30 5 1 5 6
M  V30 6 1 6 7
M  V30 7 2 7 8
M  V30 8 1 7 9
M  V30 9 1 9 10
M  V30 10 1 9 11
M  V30 11 2 11 12
M  V30 12 1 12 13
M  V30 13 2 13 14
M  V30 14 1 14 15
M  V30 15 1 15 16
M  V30 16 2 16 17
M  V30 17 1 17 18
M  V30 18 2 18 19
M  V30 19 1 18 20
M  V30 20 1 20 21
M  V30 21 2 21 22
M  V30 22 1 22 23
M  V30 23 1 23 24
M  V30 24 2 24 25
M  V30 25 1 24 26
M  V30 26 2 23 27
M  V30 27 1 27 28
M  V30 28 2 28 29
M  V30 29 1 16 30
M  V30 30 2 30 31
M  V30 31 1 31 32
M  V30 32 2 32 33
M  V30 33 1 33 34
M  V30 34 2 34 35
M  V30 35 1 14 36
M  V30 36 2 36 37
M  V30 37 1 5 38
M  V30 38 1 38 39
M  V30 39 1 39 2
M  V30 40 1 37 11
M  V30 41 1 29 17
M  V30 42 1 35 30
M  V30 43 1 29 21
M  V30 44 1 1 40
M  V30 45 1 1 41
M  V30 46 1 1 42
M  V30 47 1 3 43
M  V30 48 1 3 44
M  V30 49 1 4 45
M  V30 50 1 4 46
M  V30 51 1 6 47
M  V30 52 1 6 48
M  V30 53 1 10 49
M  V30 54 1 10 50
M  V30 55 1 10 51
M  V30 56 1 12 52
M  V30 57 1 13 53
M  V30 58 1 15 54
M  V30 59 1 20 55
M  V30 60 1 22 56
M  V30 61 1 26 57
M  V30 62 1 27 58
M  V30 63 1 28 59
M  V30 64 1 31 60
M  V30 65 1 32 61
M  V30 66 1 33 62
M  V30 67 1 34 63
M  V30 68 1 35 64
M  V30 69 1 36 65
M  V30 70 1 37 66
M  V30 71 1 38 67
M  V30 72 1 38 68
M  V30 73 1 39 69
M  V30 74 1 39 70
M  V30 END BOND
M  V30 END CTAB
M  END
>  <Dataset>  (369) 
ChEMBL_Kinases

>  <Ligand_Instance>  (369) 
nan

>  <PDB_ID>  (369) 
nan

>  <Standardized_SMILES>  (369) 
CN1CCN(CC(=O)N(C)c2ccc(N/C(=C3\C(=O)Nc4cc(C(=O)O)ccc43)c3ccccc3)cc2)CC1

>  <Name>  (369) 
nan

>  <Pocket>  (369) 
nan

>  <ATP_Site>  (369) 
nan

>  <Peripheral>  (369) 
nan

>  <Num_H_Atoms_ProtBoundConf>  (369) 
nan

>  <Num_Resolved_Atoms>  (369) 
nan

>  <Num_Not_Resolved_Atoms>  (369) 
nan

$$$$
CHEMBL4099428
     RDKit          3D

  0  0  0  0  0  0  0  0  0  0999 V3000
M  V30 BEGIN CTAB
M  V30 COUNTS 47 50 0 0 0
M  V30 BEGIN ATOM
M  V30 1 C 1.308070 -3.331318 2.934244 0
M  V30 2 N 0.130733 -2.663345 2.435021 0
M  V30 3 C 0.150852 -2.027039 1.251743 0
M  V30 4 N 1.364589 -2.018210 0.475915 0
M  V30 5 C 1.713764 -2.671395 -0.771712 0
M  V30 6 C 2.691838 -1.815670 -1.534512 0
M  V30 7 N 2.402518 -0.422996 -1.254048 0
M  V30 8 C 2.785667 -0.068413 0.097235 0
M  V30 9 C 2.142116 1.182797 0.548529 0
M  V30 10 C 0.845173 1.580919 0.313571 0
M  V30 11 C 0.306394 2.747139 0.776258 0
M  V30 12 C 1.086245 3.601354 1.528955 0
M  V30 13 Br 0.291434 5.226884 2.159006 0
M  V30 14 C 2.379596 3.270460 1.800408 0
M  V30 15 C 2.887488 2.084874 1.316085 0
M  V30 16 C 2.482907 -1.243597 0.990669 0
M  V30 17 N -0.904767 -1.391277 0.741513 0
M  V30 18 C -2.097568 -1.319932 1.354639 0
M  V30 19 C -3.210053 -0.612240 0.736786 0
M  V30 20 C -4.460813 -0.491608 1.300900 0
M  V30 21 C -5.535767 0.176879 0.724608 0
M  V30 22 N -5.276828 0.726125 -0.468714 0
M  V30 23 C -4.080314 0.642607 -1.068370 0
M  V30 24 C -3.007849 -0.017042 -0.508492 0
M  V30 25 C -2.151510 -1.953519 2.556099 0
M  V30 26 C -1.058596 -2.617590 3.094967 0
M  V30 27 O -1.067159 -3.215578 4.200398 0
M  V30 28 H 0.966722 -4.265886 3.423479 0
M  V30 29 H 1.799569 -2.650118 3.679074 0
M  V30 30 H 2.004774 -3.619660 2.133416 0
M  V30 31 H 2.093402 -3.703968 -0.605034 0
M  V30 32 H 0.760760 -2.706906 -1.372627 0
M  V30 33 H 3.712711 -2.101951 -1.187319 0
M  V30 34 H 2.593729 -1.941137 -2.626647 0
M  V30 35 H 2.762054 0.237853 -1.959847 0
M  V30 36 H 3.895352 0.105903 0.094027 0
M  V30 37 H 0.240944 0.924403 -0.273270 0
M  V30 38 H -0.703177 2.990828 0.555515 0
M  V30 39 H 2.936208 3.968022 2.389245 0
M  V30 40 H 3.920157 1.894618 1.575416 0
M  V30 41 H 2.228697 -0.876602 1.986972 0
M  V30 42 H 3.382990 -1.900750 0.990260 0
M  V30 43 H -4.633807 -0.953114 2.280265 0
M  V30 44 H -6.495642 0.251398 1.196687 0
M  V30 45 H -3.907138 1.105819 -2.050905 0
M  V30 46 H -2.015120 -0.113806 -0.960902 0
M  V30 47 H -3.071261 -1.948482 3.122089 0
M  V30 END ATOM
M  V30 BEGIN BOND
M  V30 1 1 1 2
M  V30 2 1 2 3
M  V30 3 1 3 4
M  V30 4 1 4 5
M  V30 5 1 5 6
M  V30 6 1 6 7
M  V30 7 1 7 8
M  V30 8 1 8 9
M  V30 9 2 9 10
M  V30 10 1 10 11
M  V30 11 2 11 12
M  V30 12 1 12 13
M  V30 13 1 12 14
M  V30 14 2 14 15
M  V30 15 1 8 16
M  V30 16 2 3 17
M  V30 17 1 17 18
M  V30 18 1 18 19
M  V30 19 2 19 20
M  V30 20 1 20 21
M  V30 21 2 21 22
M  V30 22 1 22 23
M  V30 23 2 23 24
M  V30 24 2 18 25
M  V30 25 1 25 26
M  V30 26 2 26 27
M  V30 27 1 26 2
M  V30 28 1 16 4
M  V30 29 1 24 19
M  V30 30 1 15 9
M  V30 31 1 1 28
M  V30 32 1 1 29
M  V30 33 1 1 30
M  V30 34 1 5 31
M  V30 35 1 5 32
M  V30 36 1 6 33
M  V30 37 1 6 34
M  V30 38 1 7 35
M  V30 39 1 8 36
M  V30 40 1 10 37
M  V30 41 1 11 38
M  V30 42 1 14 39
M  V30 43 1 15 40
M  V30 44 1 16 41
M  V30 45 1 16 42
M  V30 46 1 20 43
M  V30 47 1 21 44
M  V30 48 1 23 45
M  V30 49 1 24 46
M  V30 50 1 25 47
M  V30 END BOND
M  V30 END CTAB
M  END
>  <Dataset>  (370) 
ChEMBL_Kinases

>  <Ligand_Instance>  (370) 
nan

>  <PDB_ID>  (370) 
nan

>  <Standardized_SMILES>  (370) 
Cn1c(N2CCNC(c3ccc(Br)cc3)C2)nc(-c2ccncc2)cc1=O

>  <Name>  (370) 
nan

>  <Pocket>  (370) 
nan

>  <ATP_Site>  (370) 
nan

>  <Peripheral>  (370) 
nan

>  <Num_H_Atoms_ProtBoundConf>  (370) 
nan

>  <Num_Resolved_Atoms>  (370) 
nan

>  <Num_Not_Resolved_Atoms>  (370) 
nan

$$$$
CHEMBL4099422
     RDKit          3D

  0  0  0  0  0  0  0  0  0  0999 V3000
M  V30 BEGIN CTAB
M  V30 COUNTS 65 69 0 0 0
M  V30 BEGIN ATOM
M  V30 1 O 4.742146 2.362119 4.467384 0
M  V30 2 C 4.079891 3.283213 5.054130 0
M  V30 3 N 4.579481 3.530751 6.363904 0
M  V30 4 C 5.688293 2.721837 6.779108 0
M  V30 5 C 7.046133 2.882676 6.702250 0
M  V30 6 C 7.880139 1.903329 7.193708 0
M  V30 7 C 7.398104 0.730759 7.778488 0
M  V30 8 F 8.277977 -0.189042 8.239077 0
M  V30 9 C 6.010262 0.589495 7.845283 0
M  V30 10 C 5.151864 1.563495 7.356439 0
M  V30 11 N 2.962851 3.985980 4.467653 0
M  V30 12 C 2.570836 3.613818 3.136858 0
M  V30 13 C 1.671539 2.538015 3.124206 0
M  V30 14 C 1.234798 2.122475 1.858398 0
M  V30 15 C 1.664732 2.739942 0.672595 0
M  V30 16 C 1.057043 2.095748 -0.510206 0
M  V30 17 N -0.255793 2.619131 -0.834722 0
M  V30 18 C -1.064951 2.051392 -1.941230 0
M  V30 19 N -1.607239 1.979555 -2.952240 0
M  V30 20 C -2.276279 0.962731 -3.454408 0
M  V30 21 C -2.919263 0.935501 -4.689395 0
M  V30 22 C -3.579186 -0.215326 -5.060117 0
M  V30 23 C -3.672766 -1.378002 -4.315847 0
M  V30 24 O -4.338334 -2.531002 -4.695027 0
M  V30 25 C -4.325933 -3.642140 -3.816010 0
M  V30 26 C -5.095104 -4.792582 -4.378200 0
M  V30 27 N -5.070707 -5.931597 -3.486326 0
M  V30 28 C -3.792713 -6.557704 -3.353671 0
M  V30 29 C -3.661078 -7.068102 -1.913850 0
M  V30 30 O -4.760648 -7.867257 -1.623125 0
M  V30 31 C -5.877927 -7.045209 -1.532422 0
M  V30 32 C -5.683109 -5.702208 -2.213289 0
M  V30 33 C -3.038900 -1.343950 -3.103080 0
M  V30 34 C -2.366626 -0.178435 -2.718443 0
M  V30 35 S -1.426066 0.293391 -1.242766 0
M  V30 36 C 2.546069 3.787765 0.774065 0
M  V30 37 C 3.008343 4.236217 1.987692 0
M  V30 38 H 4.105414 4.288287 6.938769 0
M  V30 39 H 7.289185 3.822221 6.234996 0
M  V30 40 H 8.937793 2.112185 7.092920 0
M  V30 41 H 5.724886 -0.352421 8.314958 0
M  V30 42 H 4.130251 1.252618 7.509275 0
M  V30 43 H 2.507701 4.731022 5.058796 0
M  V30 44 H 1.326658 2.048300 4.016277 0
M  V30 45 H 0.528226 1.273223 1.902282 0
M  V30 46 H 0.946080 0.991655 -0.375585 0
M  V30 47 H 1.667048 2.190103 -1.440742 0
M  V30 48 H -0.632543 3.424531 -0.263991 0
M  V30 49 H -2.960616 1.744145 -5.415292 0
M  V30 50 H -4.096238 -0.259103 -6.031135 0
M  V30 51 H -4.763460 -3.386699 -2.826030 0
M  V30 52 H -3.280367 -3.954361 -3.603802 0
M  V30 53 H -6.152684 -4.499594 -4.531209 0
M  V30 54 H -4.636446 -5.089939 -5.336633 0
M  V30 55 H -2.921399 -5.931205 -3.560722 0
M  V30 56 H -3.778368 -7.492130 -3.981570 0
M  V30 57 H -3.541173 -6.224254 -1.213693 0
M  V30 58 H -2.704683 -7.663110 -1.847377 0
M  V30 59 H -6.722527 -7.605146 -2.020565 0
M  V30 60 H -6.129611 -6.945583 -0.463426 0
M  V30 61 H -6.690317 -5.261831 -2.396063 0
M  V30 62 H -5.101916 -5.003459 -1.606875 0
M  V30 63 H -3.002622 -2.150067 -2.389177 0
M  V30 64 H 2.821394 4.198607 -0.180690 0
M  V30 65 H 3.691390 5.047419 2.054230 0
M  V30 END ATOM
M  V30 BEGIN BOND
M  V30 1 2 1 2
M  V30 2 1 2 3
M  V30 3 1 3 4
M  V30 4 2 4 5
M  V30 5 1 5 6
M  V30 6 2 6 7
M  V30 7 1 7 8
M  V30 8 1 7 9
M  V30 9 2 9 10
M  V30 10 1 2 11
M  V30 11 1 11 12
M  V30 12 2 12 13
M  V30 13 1 13 14
M  V30 14 2 14 15
M  V30 15 1 15 16
M  V30 16 1 16 17
M  V30 17 1 17 18
M  V30 18 2 18 19
M  V30 19 1 19 20
M  V30 20 2 20 21
M  V30 21 1 21 22
M  V30 22 2 22 23
M  V30 23 1 23 24
M  V30 24 1 24 25
M  V30 25 1 25 26
M  V30 26 1 26 27
M  V30 27 1 27 28
M  V30 28 1 28 29
M  V30 29 1 29 30
M  V30 30 1 30 31
M  V30 31 1 31 32
M  V30 32 1 23 33
M  V30 33 2 33 34
M  V30 34 1 34 35
M  V30 35 1 15 36
M  V30 36 2 36 37
M  V30 37 1 10 4
M  V30 38 1 37 12
M  V30 39 1 35 18
M  V30 40 1 34 20
M  V30 41 1 32 27
M  V30 42 1 3 38
M  V30 43 1 5 39
M  V30 44 1 6 40
M  V30 45 1 9 41
M  V30 46 1 10 42
M  V30 47 1 11 43
M  V30 48 1 13 44
M  V30 49 1 14 45
M  V30 50 1 16 46
M  V30 51 1 16 47
M  V30 52 1 17 48
M  V30 53 1 21 49
M  V30 54 1 22 50
M  V30 55 1 25 51
M  V30 56 1 25 52
M  V30 57 1 26 53
M  V30 58 1 26 54
M  V30 59 1 28 55
M  V30 60 1 28 56
M  V30 61 1 29 57
M  V30 62 1 29 58
M  V30 63 1 31 59
M  V30 64 1 31 60
M  V30 65 1 32 61
M  V30 66 1 32 62
M  V30 67 1 33 63
M  V30 68 1 36 64
M  V30 69 1 37 65
M  V30 END BOND
M  V30 END CTAB
M  END
>  <Dataset>  (371) 
ChEMBL_Kinases

>  <Ligand_Instance>  (371) 
nan

>  <PDB_ID>  (371) 
nan

>  <Standardized_SMILES>  (371) 
O=C(Nc1ccc(F)cc1)Nc1ccc(CNc2nc3ccc(OCCN4CCOCC4)cc3s2)cc1

>  <Name>  (371) 
nan

>  <Pocket>  (371) 
nan

>  <ATP_Site>  (371) 
nan

>  <Peripheral>  (371) 
nan

>  <Num_H_Atoms_ProtBoundConf>  (371) 
nan

>  <Num_Resolved_Atoms>  (371) 
nan

>  <Num_Not_Resolved_Atoms>  (371) 
nan

$$$$
CHEMBL4099398
     RDKit          3D

  0  0  0  0  0  0  0  0  0  0999 V3000
M  V30 BEGIN CTAB
M  V30 COUNTS 61 65 0 0 0
M  V30 BEGIN ATOM
M  V30 1 O 2.321955 1.156677 1.292337 0
M  V30 2 C 2.414406 1.345930 0.031470 0
M  V30 3 N 3.702897 1.836789 -0.286648 0
M  V30 4 C 4.801889 2.117889 0.578329 0
M  V30 5 C 4.537660 3.425402 1.256626 0
M  V30 6 C 3.938147 3.667022 2.473139 0
M  V30 7 C 3.774989 4.945441 2.926082 0
M  V30 8 C 4.190746 6.046993 2.210466 0
M  V30 9 C 4.799087 5.877918 0.984232 0
M  V30 10 C 4.946452 4.559342 0.558393 0
M  V30 11 C 1.284592 1.057643 -0.830592 0
M  V30 12 C 0.143084 0.557923 -0.228518 0
M  V30 13 C -0.999980 0.240922 -0.925824 0
M  V30 14 C -2.186147 -0.294889 -0.207683 0 CFG=2
M  V30 15 C -2.584287 0.630632 0.882620 0
M  V30 16 C -3.551182 0.012726 1.853024 0
M  V30 17 N -3.213125 -1.291507 2.282158 0
M  V30 18 C -2.825378 -2.227347 1.253998 0
M  V30 19 C -1.877618 -1.707369 0.262453 0 CFG=1
M  V30 20 C -1.581723 -2.584688 -0.919397 0
M  V30 21 O -1.278651 -3.894532 -0.724634 0
M  V30 22 C -1.763140 -5.032292 -0.276665 0
M  V30 23 C -0.726701 -5.980253 -0.418523 0
M  V30 24 C -0.877521 -7.326722 -0.042148 0
M  V30 25 C -2.108815 -7.723810 0.491434 0
M  V30 26 C -3.144869 -6.835819 0.647461 0
M  V30 27 C -2.919321 -5.544038 0.257405 0
M  V30 28 O -4.224117 -7.501627 1.191936 0
M  V30 29 C -3.771889 -8.751506 1.689308 0
M  V30 30 O -2.584090 -8.934141 0.950515 0
M  V30 31 C -1.019270 0.426672 -2.292230 0
M  V30 32 C 0.076544 0.919547 -2.964461 0
M  V30 33 C 1.174806 1.209791 -2.192621 0
M  V30 34 F 2.261599 1.694381 -2.831870 0
M  V30 35 H 3.856056 2.017431 -1.324200 0
M  V30 36 H 5.721709 2.215983 -0.009986 0
M  V30 37 H 4.911660 1.357083 1.387306 0
M  V30 38 H 3.631094 2.798958 3.007622 0
M  V30 39 H 3.295076 5.084507 3.894507 0
M  V30 40 H 4.069521 7.075698 2.553890 0
M  V30 41 H 5.140138 6.701215 0.389185 0
M  V30 42 H 5.430266 4.460547 -0.414435 0
M  V30 43 H 0.112830 0.396746 0.836386 0
M  V30 44 H -3.002603 -0.430014 -0.963461 0
M  V30 45 H -3.155038 1.476264 0.393600 0
M  V30 46 H -1.729103 1.123792 1.377821 0
M  V30 47 H -4.610491 0.129666 1.506280 0
M  V30 48 H -3.511523 0.672669 2.768509 0
M  V30 49 H -2.699624 -1.385904 3.171063 0
M  V30 50 H -2.453013 -3.161899 1.719084 0
M  V30 51 H -3.767835 -2.485993 0.730169 0
M  V30 52 H -0.887454 -1.583523 0.803596 0
M  V30 53 H -2.407639 -2.439310 -1.698150 0
M  V30 54 H -0.681540 -2.108528 -1.462740 0
M  V30 55 H 0.294625 -5.880856 -0.806053 0
M  V30 56 H -0.150613 -8.120851 -0.110414 0
M  V30 57 H -3.671042 -4.798891 0.335535 0
M  V30 58 H -3.563406 -8.591342 2.764282 0
M  V30 59 H -4.527392 -9.543097 1.515790 0
M  V30 60 H -1.906220 0.180747 -2.833983 0
M  V30 61 H 0.102714 1.079186 -4.027346 0
M  V30 END ATOM
M  V30 BEGIN BOND
M  V30 1 2 1 2
M  V30 2 1 2 3
M  V30 3 1 3 4
M  V30 4 1 4 5
M  V30 5 2 5 6
M  V30 6 1 6 7
M  V30 7 2 7 8
M  V30 8 1 8 9
M  V30 9 2 9 10
M  V30 10 1 2 11
M  V30 11 2 11 12
M  V30 12 1 12 13
M  V30 13 1 13 14
M  V30 14 1 14 15
M  V30 15 1 15 16
M  V30 16 1 16 17
M  V30 17 1 17 18
M  V30 18 1 18 19
M  V30 19 1 19 20
M  V30 20 1 20 21
M  V30 21 1 21 22
M  V30 22 2 22 23
M  V30 23 1 23 24
M  V30 24 2 24 25
M  V30 25 1 25 26
M  V30 26 2 26 27
M  V30 27 1 26 28
M  V30 28 1 28 29
M  V30 29 1 29 30
M  V30 30 2 13 31
M  V30 31 1 31 32
M  V30 32 2 32 33
M  V30 33 1 33 34
M  V30 34 1 10 5
M  V30 35 1 33 11
M  V30 36 1 19 14
M  V30 37 1 27 22
M  V30 38 1 30 25
M  V30 39 1 3 35
M  V30 40 1 4 36
M  V30 41 1 4 37
M  V30 42 1 6 38
M  V30 43 1 7 39
M  V30 44 1 8 40
M  V30 45 1 9 41
M  V30 46 1 10 42
M  V30 47 1 12 43
M  V30 48 1 14 44 CFG=3
M  V30 49 1 15 45
M  V30 50 1 15 46
M  V30 51 1 16 47
M  V30 52 1 16 48
M  V30 53 1 17 49
M  V30 54 1 18 50
M  V30 55 1 18 51
M  V30 56 1 19 52 CFG=1
M  V30 57 1 20 53
M  V30 58 1 20 54
M  V30 59 1 23 55
M  V30 60 1 24 56
M  V30 61 1 27 57
M  V30 62 1 29 58
M  V30 63 1 29 59
M  V30 64 1 31 60
M  V30 65 1 32 61
M  V30 END BOND
M  V30 END CTAB
M  END
>  <Dataset>  (372) 
ChEMBL_Kinases

>  <Ligand_Instance>  (372) 
nan

>  <PDB_ID>  (372) 
nan

>  <Standardized_SMILES>  (372) 
O=C(NCc1ccccc1)c1cc([C@@H]2CCNC[C@H]2COc2ccc3c(c2)OCO3)ccc1F

>  <Name>  (372) 
nan

>  <Pocket>  (372) 
nan

>  <ATP_Site>  (372) 
nan

>  <Peripheral>  (372) 
nan

>  <Num_H_Atoms_ProtBoundConf>  (372) 
nan

>  <Num_Resolved_Atoms>  (372) 
nan

>  <Num_Not_Resolved_Atoms>  (372) 
nan

$$$$
CHEMBL4099371
     RDKit          3D

  0  0  0  0  0  0  0  0  0  0999 V3000
M  V30 BEGIN CTAB
M  V30 COUNTS 41 43 0 0 0
M  V30 BEGIN ATOM
M  V30 1 C -2.721767 -5.704189 2.318194 0
M  V30 2 C -1.320286 -6.053296 2.759478 0
M  V30 3 O -0.430047 -6.000754 1.680246 0
M  V30 4 C -0.159082 -4.897257 0.906534 0
M  V30 5 C -0.710335 -3.638037 1.046408 0
M  V30 6 C -0.385243 -2.578817 0.225784 0
M  V30 7 C -1.057449 -1.301810 0.501429 0
M  V30 8 C -0.408380 -0.133311 0.358056 0
M  V30 9 O 0.911908 0.020070 -0.047240 0
M  V30 10 C 1.267891 1.342941 -0.091187 0
M  V30 11 C 2.426869 2.015014 -0.419756 0
M  V30 12 C 2.556377 3.388243 -0.390506 0
M  V30 13 C 1.444966 4.147810 -0.004178 0
M  V30 14 O 1.563724 5.537799 0.029094 0
M  V30 15 C 1.978288 6.221813 1.150885 0
M  V30 16 C 2.419714 7.028762 2.326357 0
M  V30 17 O 1.971283 4.973491 1.428726 0
M  V30 18 C 0.290753 3.488951 0.323670 0
M  V30 19 C 0.170990 2.111845 0.291218 0
M  V30 20 C -0.941974 1.204195 0.593360 0
M  V30 21 O -2.092983 1.487019 0.968170 0
M  V30 22 C 0.533048 -2.776412 -0.785427 0
M  V30 23 C 1.097596 -4.009978 -0.951310 0
M  V30 24 C 0.756963 -5.065869 -0.113428 0
M  V30 25 O 1.359059 -6.319146 -0.314671 0
M  V30 26 H -3.116574 -4.839864 2.897692 0
M  V30 27 H -2.715538 -5.432724 1.257909 0
M  V30 28 H -3.399522 -6.585464 2.439064 0
M  V30 29 H -1.328204 -7.103359 3.152334 0
M  V30 30 H -0.946915 -5.322723 3.526257 0
M  V30 31 H -1.425309 -3.505102 1.844297 0
M  V30 32 H -2.090743 -1.329418 0.823595 0
M  V30 33 H 3.309297 1.461832 -0.723377 0
M  V30 34 H 3.464438 3.913272 -0.647866 0
M  V30 35 H 2.193143 8.116647 2.167645 0
M  V30 36 H 3.494746 6.845602 2.547099 0
M  V30 37 H 1.834867 6.715183 3.207004 0
M  V30 38 H -0.582503 4.060330 0.626043 0
M  V30 39 H 0.732719 -1.896257 -1.384058 0
M  V30 40 H 1.824438 -4.113620 -1.772031 0
M  V30 41 H 1.782612 -6.569462 -1.196429 0
M  V30 END ATOM
M  V30 BEGIN BOND
M  V30 1 1 1 2
M  V30 2 1 2 3
M  V30 3 1 3 4
M  V30 4 2 4 5
M  V30 5 1 5 6
M  V30 6 1 6 7
M  V30 7 2 7 8
M  V30 8 1 8 9
M  V30 9 1 9 10
M  V30 10 2 10 11
M  V30 11 1 11 12
M  V30 12 2 12 13
M  V30 13 1 13 14
M  V30 14 1 14 15
M  V30 15 1 15 16
M  V30 16 2 15 17
M  V30 17 1 13 18
M  V30 18 2 18 19
M  V30 19 1 19 20
M  V30 20 2 20 21
M  V30 21 2 6 22
M  V30 22 1 22 23
M  V30 23 2 23 24
M  V30 24 1 24 25
M  V30 25 1 24 4
M  V30 26 1 20 8
M  V30 27 1 19 10
M  V30 28 1 1 26
M  V30 29 1 1 27
M  V30 30 1 1 28
M  V30 31 1 2 29
M  V30 32 1 2 30
M  V30 33 1 5 31
M  V30 34 1 7 32
M  V30 35 1 11 33
M  V30 36 1 12 34
M  V30 37 1 16 35
M  V30 38 1 16 36
M  V30 39 1 16 37
M  V30 40 1 18 38
M  V30 41 1 22 39
M  V30 42 1 23 40
M  V30 43 1 25 41
M  V30 END BOND
M  V30 END CTAB
M  END
>  <Dataset>  (373) 
ChEMBL_Kinases

>  <Ligand_Instance>  (373) 
nan

>  <PDB_ID>  (373) 
nan

>  <Standardized_SMILES>  (373) 
CCOc1cc(/C=C2\Oc3ccc(OC(C)=O)cc3C2=O)ccc1O

>  <Name>  (373) 
nan

>  <Pocket>  (373) 
nan

>  <ATP_Site>  (373) 
nan

>  <Peripheral>  (373) 
nan

>  <Num_H_Atoms_ProtBoundConf>  (373) 
nan

>  <Num_Resolved_Atoms>  (373) 
nan

>  <Num_Not_Resolved_Atoms>  (373) 
nan

$$$$
CHEMBL4099368
     RDKit          3D

  0  0  0  0  0  0  0  0  0  0999 V3000
M  V30 BEGIN CTAB
M  V30 COUNTS 36 39 0 0 0
M  V30 BEGIN ATOM
M  V30 1 O 2.805594 -2.110708 3.951559 0
M  V30 2 C 2.174750 -2.208785 2.879486 0
M  V30 3 N 2.078825 -3.503055 2.474988 0
M  V30 4 C 1.372421 -3.502369 1.303975 0
M  V30 5 N 1.048073 -4.612040 0.570610 0
M  V30 6 C 0.337435 -4.392692 -0.545228 0
M  V30 7 C 0.014316 -3.084119 -0.826926 0
M  V30 8 C 0.343583 -1.969439 -0.084471 0
M  V30 9 C 1.055305 -2.159929 1.033368 0
M  V30 10 N 1.553658 -1.423268 1.995099 0
M  V30 11 C 1.443154 -0.035459 2.026816 0
M  V30 12 N 0.679780 0.649515 1.219949 0
M  V30 13 C 0.513183 1.983246 1.190063 0
M  V30 14 C 1.177167 2.783920 2.067390 0
M  V30 15 C 2.022284 2.151781 2.974284 0
M  V30 16 C 2.102528 0.780852 2.895414 0
M  V30 17 Cl 3.250922 0.221753 4.067081 0
M  V30 18 O -0.353682 1.875055 0.155077 0
M  V30 19 C -1.642672 1.335275 0.176651 0
M  V30 20 C -2.261184 1.332787 -1.204353 0
M  V30 21 C -1.359758 0.637718 -2.204180 0
M  V30 22 C -0.948291 -0.740068 -1.823964 0
M  V30 23 O -0.167153 -0.837516 -0.691185 0
M  V30 24 H 2.450314 -4.403931 2.919979 0
M  V30 25 H 0.082683 -5.258090 -1.121453 0
M  V30 26 H -0.560511 -3.044651 -1.756108 0
M  V30 27 H 0.863074 3.760240 1.825716 0
M  V30 28 H 2.489233 2.858678 3.608240 0
M  V30 29 H -2.298166 1.929626 0.884213 0
M  V30 30 H -1.624543 0.326188 0.610406 0
M  V30 31 H -3.251756 0.844823 -1.136651 0
M  V30 32 H -2.438126 2.389268 -1.481693 0
M  V30 33 H -1.997392 0.523402 -3.127186 0
M  V30 34 H -0.532274 1.282952 -2.540505 0
M  V30 35 H -0.347374 -1.140347 -2.676786 0
M  V30 36 H -1.861734 -1.367483 -1.814692 0
M  V30 END ATOM
M  V30 BEGIN BOND
M  V30 1 2 1 2
M  V30 2 1 2 3
M  V30 3 1 3 4
M  V30 4 2 4 5
M  V30 5 1 5 6
M  V30 6 2 6 7
M  V30 7 1 7 8
M  V30 8 2 8 9
M  V30 9 1 9 10
M  V30 10 1 10 11
M  V30 11 2 11 12
M  V30 12 1 12 13
M  V30 13 2 13 14
M  V30 14 1 14 15
M  V30 15 2 15 16
M  V30 16 1 16 17
M  V30 17 1 13 18
M  V30 18 1 18 19
M  V30 19 1 19 20
M  V30 20 1 20 21
M  V30 21 1 21 22
M  V30 22 1 22 23
M  V30 23 1 10 2
M  V30 24 1 16 11
M  V30 25 1 9 4
M  V30 26 1 23 8
M  V30 27 1 3 24
M  V30 28 1 6 25
M  V30 29 1 7 26
M  V30 30 1 14 27
M  V30 31 1 15 28
M  V30 32 1 19 29
M  V30 33 1 19 30
M  V30 34 1 20 31
M  V30 35 1 20 32
M  V30 36 1 21 33
M  V30 37 1 21 34
M  V30 38 1 22 35
M  V30 39 1 22 36
M  V30 END BOND
M  V30 END CTAB
M  END
>  <Dataset>  (374) 
ChEMBL_Kinases

>  <Ligand_Instance>  (374) 
nan

>  <PDB_ID>  (374) 
nan

>  <Standardized_SMILES>  (374) 
O=c1[nH]c2nccc3c2n1-c1nc(ccc1Cl)OCCCCO3

>  <Name>  (374) 
nan

>  <Pocket>  (374) 
nan

>  <ATP_Site>  (374) 
nan

>  <Peripheral>  (374) 
nan

>  <Num_H_Atoms_ProtBoundConf>  (374) 
nan

>  <Num_Resolved_Atoms>  (374) 
nan

>  <Num_Not_Resolved_Atoms>  (374) 
nan

$$$$
CHEMBL409936
     RDKit          3D

  0  0  0  0  0  0  0  0  0  0999 V3000
M  V30 BEGIN CTAB
M  V30 COUNTS 51 54 0 0 0
M  V30 BEGIN ATOM
M  V30 1 C -1.108630 2.300403 -1.748606 0
M  V30 2 O -0.511484 1.639576 -0.682817 0
M  V30 3 C -1.023249 0.604138 0.064494 0
M  V30 4 O -1.882475 0.878608 -0.767495 0
M  V30 5 C -0.367116 -0.065024 1.176219 0
M  V30 6 C 0.880040 0.446347 1.454156 0
M  V30 7 C 1.512260 1.485066 0.684946 0
M  V30 8 C 1.400184 2.842108 0.918642 0
M  V30 9 C 2.060605 3.732900 0.102887 0
M  V30 10 C 2.839217 3.276965 -0.953985 0
M  V30 11 C 2.974937 1.911995 -1.219415 0
M  V30 12 C 2.292596 1.065134 -0.371932 0
M  V30 13 C 1.536261 -0.089981 2.540783 0
M  V30 14 C 2.788693 0.366887 2.886456 0
M  V30 15 C 3.460186 -0.155645 3.968466 0
M  V30 16 Br 5.185682 0.548672 4.356957 0
M  V30 17 C 2.843723 -1.146306 4.693077 0
M  V30 18 C 1.596265 -1.575169 4.318137 0
M  V30 19 C 0.880152 -1.081393 3.238331 0
M  V30 20 C -0.373283 -1.531550 2.882901 0
M  V30 21 O -0.780007 -2.424417 3.641888 0
M  V30 22 N -1.049714 -1.022622 1.811665 0
M  V30 23 C -2.351936 -1.532537 1.546947 0
M  V30 24 C -2.294474 -2.803074 0.806682 0
M  V30 25 C -2.564054 -3.941714 1.593099 0
M  V30 26 C -2.576909 -5.239345 1.150212 0
M  V30 27 C -2.309451 -5.507163 -0.171560 0
M  V30 28 C -2.037713 -4.443725 -0.999505 0
M  V30 29 C -2.043903 -3.175486 -0.481225 0
M  V30 30 O -1.773149 -2.108084 -1.310687 0
M  V30 31 C -1.490389 -2.272745 -2.666282 0
M  V30 32 H -1.283927 1.675923 -2.655772 0
M  V30 33 H -1.998699 2.900523 -1.448708 0
M  V30 34 H -0.355371 3.066176 -2.104432 0
M  V30 35 H 0.778534 3.131560 1.757678 0
M  V30 36 H 1.964860 4.792843 0.296397 0
M  V30 37 H 3.369670 3.968007 -1.610897 0
M  V30 38 H 3.584641 1.571577 -2.045856 0
M  V30 39 H 2.429789 0.007642 -0.619951 0
M  V30 40 H 3.233778 1.148994 2.285278 0
M  V30 41 H 3.376089 -1.552697 5.541701 0
M  V30 42 H 1.154598 -2.356384 4.920671 0
M  V30 43 H -2.905333 -0.818013 0.883159 0
M  V30 44 H -2.927086 -1.661257 2.502568 0
M  V30 45 H -2.804357 -3.912996 2.657030 0
M  V30 46 H -2.782341 -6.112198 1.748845 0
M  V30 47 H -2.287596 -6.472774 -0.643375 0
M  V30 48 H -1.815985 -4.548415 -2.050761 0
M  V30 49 H -2.285794 -2.788850 -3.238577 0
M  V30 50 H -1.364294 -1.276975 -3.152864 0
M  V30 51 H -0.546338 -2.872208 -2.760910 0
M  V30 END ATOM
M  V30 BEGIN BOND
M  V30 1 1 1 2
M  V30 2 1 2 3
M  V30 3 2 3 4
M  V30 4 1 3 5
M  V30 5 2 5 6
M  V30 6 1 6 7
M  V30 7 2 7 8
M  V30 8 1 8 9
M  V30 9 2 9 10
M  V30 10 1 10 11
M  V30 11 2 11 12
M  V30 12 1 6 13
M  V30 13 2 13 14
M  V30 14 1 14 15
M  V30 15 1 15 16
M  V30 16 2 15 17
M  V30 17 1 17 18
M  V30 18 2 18 19
M  V30 19 1 19 20
M  V30 20 2 20 21
M  V30 21 1 20 22
M  V30 22 1 22 23
M  V30 23 1 23 24
M  V30 24 2 24 25
M  V30 25 1 25 26
M  V30 26 2 26 27
M  V30 27 1 27 28
M  V30 28 2 28 29
M  V30 29 1 29 30
M  V30 30 1 30 31
M  V30 31 1 22 5
M  V30 32 1 29 24
M  V30 33 1 12 7
M  V30 34 1 19 13
M  V30 35 1 1 32
M  V30 36 1 1 33
M  V30 37 1 1 34
M  V30 38 1 8 35
M  V30 39 1 9 36
M  V30 40 1 10 37
M  V30 41 1 11 38
M  V30 42 1 12 39
M  V30 43 1 14 40
M  V30 44 1 17 41
M  V30 45 1 18 42
M  V30 46 1 23 43
M  V30 47 1 23 44
M  V30 48 1 25 45
M  V30 49 1 26 46
M  V30 50 1 27 47
M  V30 51 1 28 48
M  V30 52 1 31 49
M  V30 53 1 31 50
M  V30 54 1 31 51
M  V30 END BOND
M  V30 END CTAB
M  END
>  <Dataset>  (375) 
ChEMBL_Kinases

>  <Ligand_Instance>  (375) 
nan

>  <PDB_ID>  (375) 
nan

>  <Standardized_SMILES>  (375) 
COC(=O)c1c(-c2ccccc2)c2cc(Br)ccc2c(=O)n1Cc1ccccc1OC

>  <Name>  (375) 
nan

>  <Pocket>  (375) 
nan

>  <ATP_Site>  (375) 
nan

>  <Peripheral>  (375) 
nan

>  <Num_H_Atoms_ProtBoundConf>  (375) 
nan

>  <Num_Resolved_Atoms>  (375) 
nan

>  <Num_Not_Resolved_Atoms>  (375) 
nan

$$$$
CHEMBL4799783
     RDKit          3D

  0  0  0  0  0  0  0  0  0  0999 V3000
M  V30 BEGIN CTAB
M  V30 COUNTS 45 47 0 0 0
M  V30 BEGIN ATOM
M  V30 1 C -0.397966 -7.449589 0.886790 0
M  V30 2 C -0.564026 -5.991498 0.663972 0
M  V30 3 C 0.230823 -5.104668 0.004411 0
M  V30 4 C -0.361912 -3.835805 0.072721 0
M  V30 5 N 0.321517 -2.795951 -0.555373 0
M  V30 6 C 0.163791 -1.424764 -0.761954 0
M  V30 7 O -0.881857 -1.007530 -0.238479 0
M  V30 8 N 0.896410 -0.418144 -1.412229 0
M  V30 9 C 0.440821 0.933153 -1.439348 0
M  V30 10 C -0.384731 1.487876 -2.419968 0
M  V30 11 C -0.718355 2.817587 -2.272549 0
M  V30 12 C -0.238275 3.529461 -1.193541 0
M  V30 13 C 0.577227 2.981649 -0.224782 0
M  V30 14 C 1.080231 3.744755 0.914218 0
M  V30 15 N 1.388705 5.032105 1.065656 0
M  V30 16 N 1.807580 5.209711 2.319823 0
M  V30 17 C 1.772365 4.037611 2.986959 0
M  V30 18 N 1.316773 3.126841 2.101960 0
M  V30 19 C 1.156386 1.740743 2.501779 0
M  V30 20 C 0.716206 1.625852 3.951260 0
M  V30 21 C 2.431950 0.944544 2.358471 0
M  V30 22 N 0.869366 1.693339 -0.414824 0
M  V30 23 N -1.486020 -4.008709 0.768214 0
M  V30 24 C -2.413161 -2.971460 1.082626 0
M  V30 25 N -1.607041 -5.289859 1.120138 0
M  V30 26 H -1.336727 -7.959021 0.590332 0
M  V30 27 H 0.483954 -7.805051 0.314887 0
M  V30 28 H -0.220028 -7.655506 1.955440 0
M  V30 29 H 1.153876 -5.488992 -0.451223 0
M  V30 30 H 1.222248 -2.931913 -1.054976 0
M  V30 31 H 1.763419 -0.805942 -1.837155 0
M  V30 32 H -0.679681 0.810470 -3.200931 0
M  V30 33 H -1.357361 3.232918 -3.038477 0
M  V30 34 H -0.523232 4.580951 -1.109068 0
M  V30 35 H 2.079657 3.991291 4.024921 0
M  V30 36 H 0.390411 1.241049 1.878093 0
M  V30 37 H -0.214012 1.047190 4.057228 0
M  V30 38 H 0.515679 2.668604 4.318217 0
M  V30 39 H 1.529659 1.191809 4.590531 0
M  V30 40 H 2.921671 1.053530 1.379627 0
M  V30 41 H 2.138193 -0.118578 2.552797 0
M  V30 42 H 3.130144 1.213977 3.184677 0
M  V30 43 H -2.977844 -2.559762 0.217763 0
M  V30 44 H -3.252685 -3.476094 1.673619 0
M  V30 45 H -2.055315 -2.211183 1.807892 0
M  V30 END ATOM
M  V30 BEGIN BOND
M  V30 1 1 1 2
M  V30 2 1 2 3
M  V30 3 2 3 4
M  V30 4 1 4 5
M  V30 5 1 5 6
M  V30 6 2 6 7
M  V30 7 1 6 8
M  V30 8 1 8 9
M  V30 9 2 9 10
M  V30 10 1 10 11
M  V30 11 2 11 12
M  V30 12 1 12 13
M  V30 13 1 13 14
M  V30 14 2 14 15
M  V30 15 1 15 16
M  V30 16 2 16 17
M  V30 17 1 17 18
M  V30 18 1 18 19
M  V30 19 1 19 20
M  V30 20 1 19 21
M  V30 21 2 13 22
M  V30 22 1 4 23
M  V30 23 1 23 24
M  V30 24 1 23 25
M  V30 25 2 25 2
M  V30 26 1 22 9
M  V30 27 1 18 14
M  V30 28 1 1 26
M  V30 29 1 1 27
M  V30 30 1 1 28
M  V30 31 1 3 29
M  V30 32 1 5 30
M  V30 33 1 8 31
M  V30 34 1 10 32
M  V30 35 1 11 33
M  V30 36 1 12 34
M  V30 37 1 17 35
M  V30 38 1 19 36
M  V30 39 1 20 37
M  V30 40 1 20 38
M  V30 41 1 20 39
M  V30 42 1 21 40
M  V30 43 1 21 41
M  V30 44 1 21 42
M  V30 45 1 24 43
M  V30 46 1 24 44
M  V30 47 1 24 45
M  V30 END BOND
M  V30 END CTAB
M  END
>  <Dataset>  (376) 
ChEMBL_Kinases

>  <Ligand_Instance>  (376) 
nan

>  <PDB_ID>  (376) 
nan

>  <Standardized_SMILES>  (376) 
Cc1cc(NC(=O)Nc2cccc(-c3nncn3C(C)C)n2)n(C)n1

>  <Name>  (376) 
nan

>  <Pocket>  (376) 
nan

>  <ATP_Site>  (376) 
nan

>  <Peripheral>  (376) 
nan

>  <Num_H_Atoms_ProtBoundConf>  (376) 
nan

>  <Num_Resolved_Atoms>  (376) 
nan

>  <Num_Not_Resolved_Atoms>  (376) 
nan

$$$$
CHEMBL4799858
     RDKit          3D

  0  0  0  0  0  0  0  0  0  0999 V3000
M  V30 BEGIN CTAB
M  V30 COUNTS 55 58 0 0 0
M  V30 BEGIN ATOM
M  V30 1 C 5.359824 0.166497 5.981638 0
M  V30 2 C 5.134841 -0.753656 4.772532 0
M  V30 3 C 3.798025 -0.377924 4.218692 0
M  V30 4 S 3.317925 -1.324967 2.796747 0
M  V30 5 O 4.344749 -1.236020 1.704849 0
M  V30 6 O 3.278366 -2.760768 3.220747 0
M  V30 7 N 1.759282 -0.795991 2.251668 0
M  V30 8 C 1.533286 0.531788 1.805433 0
M  V30 9 C 2.609425 1.333137 1.518677 0
M  V30 10 C 2.388787 2.618658 1.080591 0
M  V30 11 C 1.100491 3.141569 0.914951 0
M  V30 12 F 1.000862 4.421646 0.477697 0
M  V30 13 C 0.010175 2.346213 1.198327 0
M  V30 14 C -1.297748 2.930994 1.049373 0
M  V30 15 O -1.255015 4.209610 1.184885 0
M  V30 16 C -2.634327 2.476571 0.791443 0
M  V30 17 N -3.719805 3.155689 1.181227 0
M  V30 18 N -4.819755 2.521092 0.777011 0
M  V30 19 C -4.526870 1.396559 0.101633 0
M  V30 20 N -5.266150 0.449828 -0.501803 0
M  V30 21 C -4.683458 -0.590354 -1.141443 0
M  V30 22 C -3.284206 -0.640602 -1.149770 0
M  V30 23 C -2.684602 -1.771893 -1.848073 0
M  V30 24 C -1.486319 -2.373657 -1.521350 0
M  V30 25 C -0.987170 -3.443970 -2.235448 0
M  V30 26 C -1.687703 -3.949364 -3.315674 0
M  V30 27 S -1.137840 -5.312109 -4.291745 0
M  V30 28 N -2.247840 -6.622551 -4.264319 0
M  V30 29 O 0.201122 -5.821450 -3.836488 0
M  V30 30 O -0.922170 -4.856714 -5.727893 0
M  V30 31 C -2.895887 -3.402051 -3.706594 0
M  V30 32 F -3.638685 -3.838885 -4.749266 0
M  V30 33 C -3.338524 -2.332703 -2.948636 0
M  V30 34 C -2.539341 0.334947 -0.527454 0
M  V30 35 C -3.148018 1.387621 0.121358 0
M  V30 36 C 0.273171 1.064252 1.636548 0
M  V30 37 F -0.714558 0.231456 1.980437 0
M  V30 38 H 4.576359 0.000191 6.745396 0
M  V30 39 H 6.337125 0.018221 6.443488 0
M  V30 40 H 5.229421 1.235173 5.667079 0
M  V30 41 H 5.124709 -1.794252 5.136036 0
M  V30 42 H 5.939465 -0.616664 4.045245 0
M  V30 43 H 3.824204 0.695882 3.949038 0
M  V30 44 H 3.019565 -0.463352 5.009712 0
M  V30 45 H 0.958072 -1.495679 2.256350 0
M  V30 46 H 3.643987 1.040968 1.603021 0
M  V30 47 H 3.241347 3.276626 0.846332 0
M  V30 48 H -5.760192 2.914451 0.998304 0
M  V30 49 H -5.359518 -1.300739 -1.596121 0
M  V30 50 H -0.948715 -1.975105 -0.681302 0
M  V30 51 H -0.050406 -3.912661 -1.978820 0
M  V30 52 H -2.079796 -7.304884 -3.495086 0
M  V30 53 H -3.198035 -6.185552 -4.065641 0
M  V30 54 H -4.281951 -1.881433 -3.229139 0
M  V30 55 H -1.464899 0.295374 -0.547154 0
M  V30 END ATOM
M  V30 BEGIN BOND
M  V30 1 1 1 2
M  V30 2 1 2 3
M  V30 3 1 3 4
M  V30 4 2 4 5
M  V30 5 2 4 6
M  V30 6 1 4 7
M  V30 7 1 7 8
M  V30 8 2 8 9
M  V30 9 1 9 10
M  V30 10 2 10 11
M  V30 11 1 11 12
M  V30 12 1 11 13
M  V30 13 1 13 14
M  V30 14 2 14 15
M  V30 15 1 14 16
M  V30 16 2 16 17
M  V30 17 1 17 18
M  V30 18 1 18 19
M  V30 19 2 19 20
M  V30 20 1 20 21
M  V30 21 2 21 22
M  V30 22 1 22 23
M  V30 23 2 23 24
M  V30 24 1 24 25
M  V30 25 2 25 26
M  V30 26 1 26 27
M  V30 27 1 27 28
M  V30 28 2 27 29
M  V30 29 2 27 30
M  V30 30 1 26 31
M  V30 31 1 31 32
M  V30 32 2 31 33
M  V30 33 1 22 34
M  V30 34 2 34 35
M  V30 35 2 13 36
M  V30 36 1 36 37
M  V30 37 1 36 8
M  V30 38 1 35 16
M  V30 39 1 35 19
M  V30 40 1 33 23
M  V30 41 1 1 38
M  V30 42 1 1 39
M  V30 43 1 1 40
M  V30 44 1 2 41
M  V30 45 1 2 42
M  V30 46 1 3 43
M  V30 47 1 3 44
M  V30 48 1 7 45
M  V30 49 1 9 46
M  V30 50 1 10 47
M  V30 51 1 18 48
M  V30 52 1 21 49
M  V30 53 1 24 50
M  V30 54 1 25 51
M  V30 55 1 28 52
M  V30 56 1 28 53
M  V30 57 1 33 54
M  V30 58 1 34 55
M  V30 END BOND
M  V30 END CTAB
M  END
>  <Dataset>  (377) 
ChEMBL_Kinases

>  <Ligand_Instance>  (377) 
nan

>  <PDB_ID>  (377) 
nan

>  <Standardized_SMILES>  (377) 
CCCS(=O)(=O)Nc1ccc(F)c(C(=O)c2n[nH]c3ncc(-c4ccc(S(N)(=O)=O)c(F)c4)cc23)c1F

>  <Name>  (377) 
nan

>  <Pocket>  (377) 
nan

>  <ATP_Site>  (377) 
nan

>  <Peripheral>  (377) 
nan

>  <Num_H_Atoms_ProtBoundConf>  (377) 
nan

>  <Num_Resolved_Atoms>  (377) 
nan

>  <Num_Not_Resolved_Atoms>  (377) 
nan

$$$$
CHEMBL4098650
     RDKit          3D

  0  0  0  0  0  0  0  0  0  0999 V3000
M  V30 BEGIN CTAB
M  V30 COUNTS 49 52 0 0 0
M  V30 BEGIN ATOM
M  V30 1 C -0.680157 -5.040886 6.189065 0
M  V30 2 N 0.137954 -4.508375 5.095217 0
M  V30 3 C -0.253428 -3.572841 4.209508 0
M  V30 4 C 0.779642 -3.308753 3.311743 0
M  V30 5 C 0.841240 -2.385036 2.183337 0
M  V30 6 C 2.071566 -1.839811 1.887887 0
M  V30 7 C 2.104453 -0.973792 0.821949 0
M  V30 8 C 1.042111 -0.603015 0.031684 0
M  V30 9 O 0.973800 0.229518 -1.025036 0
M  V30 10 C 1.901832 0.988746 -1.671236 0
M  V30 11 C 2.590480 2.039367 -0.912641 0
M  V30 12 C 1.886914 3.247976 -0.825828 0
M  V30 13 C 2.339885 4.375784 -0.181884 0
M  V30 14 C 3.566238 4.350143 0.430961 0
M  V30 15 C 4.296202 3.183770 0.372798 0
M  V30 16 C 3.804988 2.078697 -0.282467 0
M  V30 17 C -0.197548 -1.170665 0.351917 0
M  V30 18 C -1.509763 -1.003410 -0.262284 0
M  V30 19 O -2.561900 -1.576074 0.121757 0
M  V30 20 N -1.867750 -0.197014 -1.373422 0
M  V30 21 C -3.267232 -0.327858 -1.645238 0
M  V30 22 C -3.704653 -1.317738 -2.525052 0
M  V30 23 C -5.086298 -1.380167 -2.737147 0
M  V30 24 C -5.923843 -0.492083 -2.090062 0
M  V30 25 N -5.417253 0.435502 -1.254435 0
M  V30 26 C -4.102449 0.563968 -0.994762 0
M  V30 27 C -0.264550 -2.060596 1.436780 0
M  V30 28 C 1.805117 -4.146305 3.722294 0
M  V30 29 N 1.380112 -4.848712 4.794446 0
M  V30 30 H -0.573045 -4.346042 7.069596 0
M  V30 31 H -1.737278 -4.980336 5.887434 0
M  V30 32 H -0.377524 -6.042234 6.490574 0
M  V30 33 H -1.220060 -3.062686 4.153193 0
M  V30 34 H 2.964236 -2.059794 2.438474 0
M  V30 35 H 3.041022 -0.545776 0.570434 0
M  V30 36 H 2.702508 0.389129 -2.186334 0
M  V30 37 H 1.386667 1.489070 -2.552889 0
M  V30 38 H 0.906739 3.378853 -1.275203 0
M  V30 39 H 1.778492 5.293169 -0.129876 0
M  V30 40 H 3.992533 5.189643 0.955762 0
M  V30 41 H 5.264284 3.064115 0.820025 0
M  V30 42 H 4.357822 1.157651 -0.352171 0
M  V30 43 H -1.106162 0.354752 -1.821359 0
M  V30 44 H -2.983708 -1.969520 -2.987772 0
M  V30 45 H -5.405422 -2.151750 -3.420395 0
M  V30 46 H -6.988290 -0.562008 -2.271714 0
M  V30 47 H -3.705641 1.308051 -0.325559 0
M  V30 48 H -1.166112 -2.561829 1.779353 0
M  V30 49 H 2.776128 -4.190250 3.224176 0
M  V30 END ATOM
M  V30 BEGIN BOND
M  V30 1 1 1 2
M  V30 2 1 2 3
M  V30 3 2 3 4
M  V30 4 1 4 5
M  V30 5 2 5 6
M  V30 6 1 6 7
M  V30 7 2 7 8
M  V30 8 1 8 9
M  V30 9 1 9 10
M  V30 10 1 10 11
M  V30 11 2 11 12
M  V30 12 1 12 13
M  V30 13 2 13 14
M  V30 14 1 14 15
M  V30 15 2 15 16
M  V30 16 1 8 17
M  V30 17 1 17 18
M  V30 18 2 18 19
M  V30 19 1 18 20
M  V30 20 1 20 21
M  V30 21 2 21 22
M  V30 22 1 22 23
M  V30 23 2 23 24
M  V30 24 1 24 25
M  V30 25 2 25 26
M  V30 26 2 17 27
M  V30 27 1 4 28
M  V30 28 2 28 29
M  V30 29 1 29 2
M  V30 30 1 27 5
M  V30 31 1 16 11
M  V30 32 1 26 21
M  V30 33 1 1 30
M  V30 34 1 1 31
M  V30 35 1 1 32
M  V30 36 1 3 33
M  V30 37 1 6 34
M  V30 38 1 7 35
M  V30 39 1 10 36
M  V30 40 1 10 37
M  V30 41 1 12 38
M  V30 42 1 13 39
M  V30 43 1 14 40
M  V30 44 1 15 41
M  V30 45 1 16 42
M  V30 46 1 20 43
M  V30 47 1 22 44
M  V30 48 1 23 45
M  V30 49 1 24 46
M  V30 50 1 26 47
M  V30 51 1 27 48
M  V30 52 1 28 49
M  V30 END BOND
M  V30 END CTAB
M  END
>  <Dataset>  (378) 
ChEMBL_Kinases

>  <Ligand_Instance>  (378) 
nan

>  <PDB_ID>  (378) 
nan

>  <Standardized_SMILES>  (378) 
Cn1cc(-c2ccc(OCc3ccccc3)c(C(=O)Nc3cccnc3)c2)cn1

>  <Name>  (378) 
nan

>  <Pocket>  (378) 
nan

>  <ATP_Site>  (378) 
nan

>  <Peripheral>  (378) 
nan

>  <Num_H_Atoms_ProtBoundConf>  (378) 
nan

>  <Num_Resolved_Atoms>  (378) 
nan

>  <Num_Not_Resolved_Atoms>  (378) 
nan

$$$$
CHEMBL409916
     RDKit          3D

  0  0  0  0  0  0  0  0  0  0999 V3000
M  V30 BEGIN CTAB
M  V30 COUNTS 65 69 0 0 0
M  V30 BEGIN ATOM
M  V30 1 C 5.973821 -3.669848 5.946340 0
M  V30 2 N 5.216822 -2.631902 5.265506 0
M  V30 3 C 5.714933 -1.391522 4.843714 0
M  V30 4 O 6.924501 -1.124235 5.061076 0
M  V30 5 C 4.907446 -0.388133 4.163852 0
M  V30 6 C 5.477630 0.804385 3.777478 0
M  V30 7 C 4.806967 1.819936 3.129858 0
M  V30 8 C 3.475649 1.550441 2.885536 0
M  V30 9 C 2.707426 2.638444 2.180872 0
M  V30 10 C 2.782834 0.380709 3.227518 0
M  V30 11 N 1.431553 0.242308 2.934307 0
M  V30 12 C 0.553152 0.185777 1.831732 0
M  V30 13 N -0.762298 0.141009 2.086985 0
M  V30 14 C -1.692303 0.078159 1.123896 0
M  V30 15 N -3.068120 0.039283 1.485531 0
M  V30 16 C -4.111167 -0.051472 0.493947 0
M  V30 17 C -3.950640 -1.359903 -0.269291 0
M  V30 18 N -5.015293 -1.411452 -1.254683 0
M  V30 19 C -6.298735 -1.559940 -0.604055 0
M  V30 20 C -7.200443 -2.003563 -1.757793 0
M  V30 21 C -6.273051 -2.696973 -2.702437 0
M  V30 22 C -4.899568 -2.601506 -2.081084 0
M  V30 23 N -1.295745 0.058463 -0.160217 0
M  V30 24 C -0.003159 0.098791 -0.528202 0
M  V30 25 C 0.909579 0.162940 0.503947 0
M  V30 26 C 2.132649 0.187689 -0.092045 0
M  V30 27 N 1.963840 0.141451 -1.422760 0
M  V30 28 N 0.651907 0.086520 -1.702761 0
M  V30 29 C 0.064577 0.026190 -2.997007 0
M  V30 30 C -0.883571 -0.854990 -3.428815 0
M  V30 31 C -1.311707 -0.726332 -4.738660 0
M  V30 32 C -0.815210 0.247627 -5.597524 0
M  V30 33 C 0.147040 1.142918 -5.161814 0
M  V30 34 C 0.570095 1.009232 -3.853801 0
M  V30 35 C 3.573066 -0.570733 3.879313 0
M  V30 36 H 5.506482 -3.852207 6.940159 0
M  V30 37 H 5.805056 -4.605465 5.366156 0
M  V30 38 H 7.052378 -3.449682 6.016358 0
M  V30 39 H 4.218795 -2.886396 5.102153 0
M  V30 40 H 6.542223 0.973741 3.993472 0
M  V30 41 H 5.245199 2.758293 2.822757 0
M  V30 42 H 2.882993 3.618960 2.708192 0
M  V30 43 H 1.625141 2.450242 2.246564 0
M  V30 44 H 2.964775 2.696421 1.106191 0
M  V30 45 H 1.045995 0.166769 3.900875 0
M  V30 46 H -3.341675 0.076792 2.486933 0
M  V30 47 H -5.094564 0.045555 0.948016 0
M  V30 48 H -3.936674 0.816388 -0.196132 0
M  V30 49 H -3.006930 -1.426241 -0.819668 0
M  V30 50 H -4.009250 -2.229059 0.411267 0
M  V30 51 H -6.637764 -0.577849 -0.206533 0
M  V30 52 H -6.287379 -2.363203 0.163376 0
M  V30 53 H -7.598377 -1.060929 -2.222440 0
M  V30 54 H -8.018637 -2.643930 -1.369325 0
M  V30 55 H -6.575642 -3.753089 -2.869575 0
M  V30 56 H -6.226916 -2.201368 -3.691331 0
M  V30 57 H -4.135404 -2.368756 -2.863685 0
M  V30 58 H -4.654999 -3.510147 -1.527780 0
M  V30 59 H 3.086961 0.232099 0.396709 0
M  V30 60 H -1.221878 -1.573695 -2.725909 0
M  V30 61 H -2.065793 -1.427130 -5.081948 0
M  V30 62 H -1.163682 0.334572 -6.624704 0
M  V30 63 H 0.505653 1.878273 -5.850271 0
M  V30 64 H 1.333823 1.753598 -3.580598 0
M  V30 65 H 3.074546 -1.480138 4.157053 0
M  V30 END ATOM
M  V30 BEGIN BOND
M  V30 1 1 1 2
M  V30 2 1 2 3
M  V30 3 2 3 4
M  V30 4 1 3 5
M  V30 5 2 5 6
M  V30 6 1 6 7
M  V30 7 2 7 8
M  V30 8 1 8 9
M  V30 9 1 8 10
M  V30 10 1 10 11
M  V30 11 1 11 12
M  V30 12 2 12 13
M  V30 13 1 13 14
M  V30 14 1 14 15
M  V30 15 1 15 16
M  V30 16 1 16 17
M  V30 17 1 17 18
M  V30 18 1 18 19
M  V30 19 1 19 20
M  V30 20 1 20 21
M  V30 21 1 21 22
M  V30 22 2 14 23
M  V30 23 1 23 24
M  V30 24 2 24 25
M  V30 25 1 25 26
M  V30 26 2 26 27
M  V30 27 1 27 28
M  V30 28 1 28 29
M  V30 29 2 29 30
M  V30 30 1 30 31
M  V30 31 2 31 32
M  V30 32 1 32 33
M  V30 33 2 33 34
M  V30 34 2 10 35
M  V30 35 1 35 5
M  V30 36 1 25 12
M  V30 37 1 34 29
M  V30 38 1 22 18
M  V30 39 1 28 24
M  V30 40 1 1 36
M  V30 41 1 1 37
M  V30 42 1 1 38
M  V30 43 1 2 39
M  V30 44 1 6 40
M  V30 45 1 7 41
M  V30 46 1 9 42
M  V30 47 1 9 43
M  V30 48 1 9 44
M  V30 49 1 11 45
M  V30 50 1 15 46
M  V30 51 1 16 47
M  V30 52 1 16 48
M  V30 53 1 17 49
M  V30 54 1 17 50
M  V30 55 1 19 51
M  V30 56 1 19 52
M  V30 57 1 20 53
M  V30 58 1 20 54
M  V30 59 1 21 55
M  V30 60 1 21 56
M  V30 61 1 22 57
M  V30 62 1 22 58
M  V30 63 1 26 59
M  V30 64 1 30 60
M  V30 65 1 31 61
M  V30 66 1 32 62
M  V30 67 1 33 63
M  V30 68 1 34 64
M  V30 69 1 35 65
M  V30 END BOND
M  V30 END CTAB
M  END
>  <Dataset>  (379) 
ChEMBL_Kinases

>  <Ligand_Instance>  (379) 
nan

>  <PDB_ID>  (379) 
nan

>  <Standardized_SMILES>  (379) 
CNC(=O)c1ccc(C)c(Nc2nc(NCCN3CCCC3)nc3c2cnn3-c2ccccc2)c1

>  <Name>  (379) 
nan

>  <Pocket>  (379) 
nan

>  <ATP_Site>  (379) 
nan

>  <Peripheral>  (379) 
nan

>  <Num_H_Atoms_ProtBoundConf>  (379) 
nan

>  <Num_Resolved_Atoms>  (379) 
nan

>  <Num_Not_Resolved_Atoms>  (379) 
nan

$$$$
CHEMBL4098959
     RDKit          3D

  0  0  0  0  0  0  0  0  0  0999 V3000
M  V30 BEGIN CTAB
M  V30 COUNTS 280 287 0 0 0
M  V30 BEGIN ATOM
M  V30 1 C 6.493637 5.435308 7.695537 0
M  V30 2 C 6.984276 6.335283 6.606176 0
M  V30 3 C 5.949740 6.658143 5.554625 0 CFG=2
M  V30 4 C 4.753160 7.349770 6.128107 0
M  V30 5 C 5.592911 5.466207 4.730474 0 CFG=2
M  V30 6 N 6.752432 4.913364 4.037495 0
M  V30 7 C 6.915775 3.614791 3.487167 0
M  V30 8 O 5.943808 2.807576 3.539184 0
M  V30 9 C 8.208454 3.215370 2.866911 0 CFG=2
M  V30 10 C 8.967357 4.261309 2.188202 0
M  V30 11 C 8.277459 4.926510 1.040701 0
M  V30 12 C 9.165852 5.982807 0.438577 0
M  V30 13 O 9.482045 6.868127 1.306348 0
M  V30 14 O 9.928454 6.720421 -0.439324 0
M  V30 15 N 8.048145 2.027997 2.111288 0
M  V30 16 C 8.015352 0.639814 2.374944 0
M  V30 17 O 8.144943 0.253473 3.581592 0
M  V30 18 C 7.839212 -0.380535 1.283701 0
M  V30 19 C 7.911048 -1.748526 1.854659 0
M  V30 20 O 6.880273 -2.003420 2.751070 0
M  V30 21 C 7.081697 -3.256781 3.368230 0
M  V30 22 C 5.997648 -3.653475 4.305877 0
M  V30 23 O 4.738612 -3.812968 3.742651 0
M  V30 24 C 4.799714 -4.877972 2.860713 0
M  V30 25 C 3.427002 -5.296390 2.310179 0
M  V30 26 O 2.595556 -5.651001 3.321762 0
M  V30 27 C 1.393992 -6.224620 2.866095 0
M  V30 28 C 0.500484 -6.459619 4.043584 0
M  V30 29 O -0.687691 -7.049803 3.764004 0
M  V30 30 C -0.496217 -8.380018 3.350613 0
M  V30 31 C -1.816178 -9.081489 3.336124 0
M  V30 32 N -2.858020 -8.670101 2.491998 0
M  V30 33 C -3.667591 -7.560400 2.063304 0
M  V30 34 O -3.218487 -6.539679 2.679595 0
M  V30 35 C -4.729675 -7.897493 1.093318 0
M  V30 36 N -5.340207 -6.839228 0.383384 0
M  V30 37 N -5.084814 -6.674691 -0.922396 0
M  V30 38 C -5.833893 -5.720613 -1.463033 0
M  V30 39 N -5.834389 -5.301410 -2.815202 0
M  V30 40 C -6.619688 -5.231694 -0.450408 0
M  V30 41 C -7.553914 -4.252097 -0.309547 0
M  V30 42 C -8.203110 -3.907813 0.872449 0
M  V30 43 C -9.195460 -2.837159 0.919165 0
M  V30 44 C -10.431204 -2.722555 1.546244 0
M  V30 45 C -10.910079 -3.812932 2.415505 0
M  V30 46 C -10.982008 -3.350105 3.738178 0
M  V30 47 C -11.410345 -4.295585 4.640084 0
M  V30 48 C -11.769401 -5.594704 4.432285 0
M  V30 49 C -11.671945 -5.977358 3.097991 0
M  V30 50 C -11.255183 -5.125206 2.095901 0
M  V30 51 N -11.027108 -1.546076 1.273606 0
M  V30 52 N -10.202282 -0.870931 0.472461 0
M  V30 53 C -10.361225 0.370160 -0.077484 0
M  V30 54 C -9.405702 0.960819 -0.908520 0
M  V30 55 C -8.287599 0.227217 -1.148933 0
M  V30 56 C -8.191701 -1.010223 -0.566688 0
M  V30 57 C -9.107432 -1.612496 0.246461 0
M  V30 58 N -7.797124 -4.666003 1.879580 0
M  V30 59 N -6.904883 -5.629311 1.840970 0
M  V30 60 C -6.280632 -5.952173 0.678090 0
M  V30 61 C 4.416481 5.655510 3.884070 0
M  V30 62 O 3.392019 6.089058 4.417313 0
M  V30 63 N 4.237137 5.418819 2.521960 0
M  V30 64 C 3.424658 5.392293 1.357651 0 CFG=2
M  V30 65 C 4.112259 5.844458 0.169530 0
M  V30 66 O 4.953772 6.637531 0.642394 0
M  V30 67 N 3.728156 5.355548 -1.097693 0
M  V30 68 C 4.348283 5.824244 -2.319830 0 CFG=1
M  V30 69 C 5.053464 4.596443 -2.903318 0
M  V30 70 C 5.748935 4.921409 -4.191720 0
M  V30 71 C 6.415264 3.667971 -4.709663 0
M  V30 72 C 7.146524 3.872315 -6.014571 0
M  V30 73 N 7.748766 2.618556 -6.421391 0
M  V30 74 C 3.277380 6.233855 -3.311420 0
M  V30 75 O 3.274147 6.981442 -4.334244 0
M  V30 76 N 1.961681 5.744809 -3.171796 0
M  V30 77 C 0.622038 5.811205 -3.742795 0 CFG=1
M  V30 78 C 0.664642 5.227100 -5.152917 0
M  V30 79 C -0.592265 5.238474 -5.920729 0
M  V30 80 C -0.239887 4.609978 -7.292291 0
M  V30 81 C -1.715665 4.401465 -5.399622 0
M  V30 82 C -0.368848 5.169150 -2.864024 0
M  V30 83 O -1.537678 5.520009 -2.586199 0
M  V30 84 N 0.115247 3.955496 -2.253105 0
M  V30 85 C -0.667692 3.203051 -1.318753 0 CFG=1
M  V30 86 C -1.855815 2.525740 -2.056521 0
M  V30 87 C 0.020261 2.209579 -0.493993 0
M  V30 88 O -0.976380 1.949369 0.273890 0
M  V30 89 N 1.279968 1.517672 -0.294951 0
M  V30 90 C 2.629288 1.525919 -0.891303 0
M  V30 91 C 3.620169 1.586011 0.271515 0
M  V30 92 C 2.703531 1.221748 1.441365 0
M  V30 93 C 1.668108 0.499077 0.609930 0 CFG=1
M  V30 94 C 0.700796 -0.304177 1.302790 0
M  V30 95 O -0.108173 -0.234073 0.327598 0
M  V30 96 N 0.701586 -0.912601 2.585364 0
M  V30 97 C 1.455200 -1.142066 3.793870 0
M  V30 98 C 0.507107 -1.712041 4.808318 0
M  V30 99 C -0.574949 -2.328511 3.991974 0
M  V30 100 C -0.630398 -1.526229 2.706387 0 CFG=1
M  V30 101 C -1.666372 -0.459000 2.753144 0
M  V30 102 O -1.625947 0.767913 3.028169 0
M  V30 103 N -3.039771 -0.569553 2.477818 0
M  V30 104 C -3.767054 0.670837 2.637783 0
M  V30 105 C -5.190619 0.390560 2.295968 0
M  V30 106 C -5.325959 -1.093378 2.604247 0
M  V30 107 C -3.998101 -1.592526 2.052577 0 CFG=1
M  V30 108 C -4.075971 -1.687930 0.575820 0
M  V30 109 O -5.052005 -2.514397 0.479557 0
M  V30 110 N -3.480667 -1.207262 -0.663513 0
M  V30 111 C -4.099907 -1.720954 -1.923875 0 CFG=1
M  V30 112 C -4.645188 -0.509401 -2.589038 0
M  V30 113 C -5.362465 -0.517690 -3.850945 0
M  V30 114 C -4.580491 -0.955189 -5.044836 0
M  V30 115 C -5.540357 -0.825451 -6.266512 0
M  V30 116 N -5.951447 0.575213 -6.349225 0
M  V30 117 C -3.171416 -2.598308 -2.621618 0
M  V30 118 O -2.990940 -3.486585 -3.528124 0
M  V30 119 N -1.756687 -2.596342 -2.261755 0
M  V30 120 C -0.619315 -3.342822 -2.765091 0 CFG=1
M  V30 121 C 0.342740 -2.389775 -3.427688 0
M  V30 122 C -0.232928 -1.671534 -4.616250 0
M  V30 123 C -0.590809 -2.597227 -5.738676 0
M  V30 124 C -1.197800 -1.863623 -6.928432 0
M  V30 125 N -0.229347 -0.916920 -7.436973 0
M  V30 126 C 0.118864 -4.085656 -1.731990 0
M  V30 127 O -0.095923 -4.080030 -0.495116 0
M  V30 128 N 1.177338 -4.871132 -2.305561 0
M  V30 129 C 2.039079 -5.688170 -1.472523 0 CFG=1
M  V30 130 C 1.600204 -7.136743 -1.733900 0
M  V30 131 C 3.441706 -5.587517 -1.855601 0
M  V30 132 O 3.240900 -4.775129 -2.796189 0
M  V30 133 O 4.781510 -5.889582 -1.738727 0
M  V30 134 C 2.124399 6.207842 1.615390 0 CFG=1
M  V30 135 C 1.373657 6.226859 0.275560 0
M  V30 136 C 1.172510 5.342824 2.470188 0
M  V30 137 C -0.100970 6.089796 2.786006 0
M  V30 138 H 5.837234 5.974775 8.395414 0
M  V30 139 H 7.399884 5.117536 8.278871 0
M  V30 140 H 6.068028 4.507973 7.301282 0
M  V30 141 H 7.852645 5.859063 6.115615 0
M  V30 142 H 7.355124 7.289790 7.057302 0
M  V30 143 H 6.447084 7.425938 4.888522 0
M  V30 144 H 5.153452 8.038873 6.932277 0
M  V30 145 H 3.999206 6.684461 6.564421 0
M  V30 146 H 4.293316 7.992917 5.358650 0
M  V30 147 H 5.278481 4.609952 5.418552 0
M  V30 148 H 7.569265 5.557828 3.936150 0
M  V30 149 H 8.849369 2.891554 3.786374 0
M  V30 150 H 9.424293 5.016655 2.886515 0
M  V30 151 H 9.887990 3.768067 1.738792 0
M  V30 152 H 7.352893 5.447597 1.302719 0
M  V30 153 H 8.045486 4.157810 0.274035 0
M  V30 154 H 10.891418 6.434311 -0.654766 0
M  V30 155 H 7.924210 2.258098 1.093067 0
M  V30 156 H 8.682418 -0.195252 0.584174 0
M  V30 157 H 6.886772 -0.213936 0.738207 0
M  V30 158 H 7.887354 -2.473971 1.008971 0
M  V30 159 H 8.880261 -1.838956 2.420357 0
M  V30 160 H 8.081530 -3.168062 3.895882 0
M  V30 161 H 7.262175 -4.045489 2.588364 0
M  V30 162 H 5.929626 -2.871215 5.106036 0
M  V30 163 H 6.312312 -4.593457 4.837089 0
M  V30 164 H 5.394063 -4.510916 1.971731 0
M  V30 165 H 5.350770 -5.741611 3.269143 0
M  V30 166 H 3.088719 -4.431161 1.701342 0
M  V30 167 H 3.641216 -6.135067 1.624490 0
M  V30 168 H 1.661369 -7.210042 2.442043 0
M  V30 169 H 0.909698 -5.611152 2.103270 0
M  V30 170 H 0.346189 -5.501346 4.604400 0
M  V30 171 H 1.049683 -7.168346 4.752872 0
M  V30 172 H -0.050469 -8.400620 2.329330 0
M  V30 173 H 0.162326 -8.880411 4.096108 0
M  V30 174 H -2.177398 -9.154305 4.428577 0
M  V30 175 H -1.554950 -10.172398 3.121214 0
M  V30 176 H -3.145350 -9.570909 1.978104 0
M  V30 177 H -5.540893 -8.392387 1.708197 0
M  V30 178 H -4.325871 -8.664452 0.386362 0
M  V30 179 H -5.110997 -5.157658 -3.546875 0
M  V30 180 H -6.750297 -5.075423 -3.242036 0
M  V30 181 H -7.779728 -3.743353 -1.238255 0
M  V30 182 H -10.739361 -2.358712 4.095366 0
M  V30 183 H -11.488558 -3.993888 5.703954 0
M  V30 184 H -12.090645 -6.261267 5.195113 0
M  V30 185 H -11.920661 -6.990632 2.784924 0
M  V30 186 H -11.146525 -5.320717 1.041857 0
M  V30 187 H -11.262106 0.952548 0.126496 0
M  V30 188 H -9.565583 1.943258 -1.329648 0
M  V30 189 H -7.568002 0.686617 -1.784473 0
M  V30 190 H -7.256559 -1.529337 -0.802473 0
M  V30 191 H 5.197451 5.072281 2.171857 0
M  V30 192 H 2.973168 4.363293 1.257370 0
M  V30 193 H 3.009040 4.625476 -1.011923 0
M  V30 194 H 5.066909 6.608344 -2.170828 0
M  V30 195 H 4.241060 3.838121 -3.076698 0
M  V30 196 H 5.711182 4.174570 -2.140460 0
M  V30 197 H 6.568416 5.633972 -3.949479 0
M  V30 198 H 5.110118 5.402180 -4.931009 0
M  V30 199 H 7.146971 3.280586 -3.971637 0
M  V30 200 H 5.648491 2.851556 -4.839112 0
M  V30 201 H 7.977466 4.577599 -5.785962 0
M  V30 202 H 6.501085 4.225479 -6.816229 0
M  V30 203 H 7.201884 2.240704 -7.221102 0
M  V30 204 H 7.614334 1.886325 -5.655524 0
M  V30 205 H 1.883579 5.097931 -2.364243 0
M  V30 206 H 0.374512 6.852882 -3.907339 0
M  V30 207 H 1.430925 5.793679 -5.722138 0
M  V30 208 H 1.041253 4.167852 -5.140267 0
M  V30 209 H -0.923266 6.275471 -6.213721 0
M  V30 210 H -1.121223 4.186565 -7.776528 0
M  V30 211 H 0.519369 3.820852 -7.185437 0
M  V30 212 H 0.188217 5.380557 -7.979880 0
M  V30 213 H -2.189116 3.758617 -6.210277 0
M  V30 214 H -1.445089 3.700791 -4.620639 0
M  V30 215 H -2.575323 5.053387 -5.085547 0
M  V30 216 H 0.993663 3.432952 -2.370247 0
M  V30 217 H -1.194305 3.953645 -0.702253 0
M  V30 218 H -1.463344 1.753821 -2.732208 0
M  V30 219 H -2.512141 3.254388 -2.537331 0
M  V30 220 H -2.484777 1.994475 -1.289921 0
M  V30 221 H 2.784975 0.562796 -1.456798 0
M  V30 222 H 2.830934 2.389148 -1.521285 0
M  V30 223 H 4.326495 0.715591 0.202947 0
M  V30 224 H 4.133247 2.527352 0.381069 0
M  V30 225 H 2.361182 2.165516 1.868091 0
M  V30 226 H 3.217393 0.547385 2.154910 0
M  V30 227 H 2.304870 -0.248654 0.015579 0
M  V30 228 H 1.815142 -0.172902 4.209194 0
M  V30 229 H 2.288044 -1.879873 3.677326 0
M  V30 230 H 1.028000 -2.489711 5.435765 0
M  V30 231 H 0.146926 -0.933736 5.516681 0
M  V30 232 H -1.536435 -2.359530 4.529786 0
M  V30 233 H -0.303051 -3.384253 3.803451 0
M  V30 234 H -0.834486 -2.256114 1.912158 0
M  V30 235 H -3.327366 1.490966 2.028025 0
M  V30 236 H -3.716425 0.919200 3.738393 0
M  V30 237 H -5.431526 0.572445 1.228510 0
M  V30 238 H -5.853349 0.928697 2.995746 0
M  V30 239 H -6.117713 -1.495548 1.983412 0
M  V30 240 H -5.468335 -1.296485 3.660810 0
M  V30 241 H -3.762394 -2.560609 2.494999 0
M  V30 242 H -2.734620 -0.589937 -0.290822 0
M  V30 243 H -4.983893 -2.348099 -1.645973 0
M  V30 244 H -5.252534 0.072007 -1.794587 0
M  V30 245 H -3.729893 0.204005 -2.639957 0
M  V30 246 H -6.311149 -1.127674 -3.740836 0
M  V30 247 H -5.708141 0.557455 -4.050967 0
M  V30 248 H -4.244288 -1.994384 -5.021863 0
M  V30 249 H -3.749554 -0.230031 -5.256799 0
M  V30 250 H -4.970227 -1.148652 -7.153587 0
M  V30 251 H -6.389680 -1.494790 -6.040567 0
M  V30 252 H -6.967505 0.641925 -6.591959 0
M  V30 253 H -5.409675 1.062319 -7.099584 0
M  V30 254 H -1.330706 -1.981904 -1.499559 0
M  V30 255 H -0.909793 -4.079949 -3.549457 0
M  V30 256 H 1.250959 -2.939674 -3.790282 0
M  V30 257 H 0.771031 -1.654693 -2.688067 0
M  V30 258 H -1.189222 -1.172398 -4.270758 0
M  V30 259 H 0.464727 -0.871607 -4.919659 0
M  V30 260 H 0.419403 -3.007328 -6.093333 0
M  V30 261 H -1.241523 -3.421640 -5.457751 0
M  V30 262 H -1.474697 -2.560010 -7.724392 0
M  V30 263 H -2.128178 -1.329078 -6.607240 0
M  V30 264 H 0.680993 -1.426505 -7.533426 0
M  V30 265 H -0.070490 -0.153896 -6.748176 0
M  V30 266 H 1.413216 -4.924703 -3.335778 0
M  V30 267 H 1.793569 -5.502758 -0.420334 0
M  V30 268 H 0.999784 -7.208527 -2.678271 0
M  V30 269 H 1.027482 -7.568377 -0.913550 0
M  V30 270 H 2.493752 -7.796072 -1.897904 0
M  V30 271 H 5.504969 -5.173465 -1.886858 0
M  V30 272 H 2.272692 7.202360 1.940169 0
M  V30 273 H 0.404521 6.807861 0.419830 0
M  V30 274 H 1.077616 5.189417 0.076783 0
M  V30 275 H 1.971634 6.677627 -0.503990 0
M  V30 276 H 1.612250 4.793561 3.276694 0
M  V30 277 H 0.801717 4.499797 1.767112 0
M  V30 278 H -0.739645 6.113470 1.904687 0
M  V30 279 H -0.579108 5.519041 3.635172 0
M  V30 280 H 0.093099 7.098173 3.205745 0
M  V30 END ATOM
M  V30 BEGIN BOND
M  V30 1 1 1 2
M  V30 2 1 2 3
M  V30 3 1 3 4
M  V30 4 1 3 5
M  V30 5 1 5 6
M  V30 6 1 6 7
M  V30 7 2 7 8
M  V30 8 1 7 9
M  V30 9 1 9 10
M  V30 10 1 10 11
M  V30 11 1 11 12
M  V30 12 2 12 13
M  V30 13 1 12 14
M  V30 14 1 9 15
M  V30 15 1 15 16
M  V30 16 2 16 17
M  V30 17 1 16 18
M  V30 18 1 18 19
M  V30 19 1 19 20
M  V30 20 1 20 21
M  V30 21 1 21 22
M  V30 22 1 22 23
M  V30 23 1 23 24
M  V30 24 1 24 25
M  V30 25 1 25 26
M  V30 26 1 26 27
M  V30 27 1 27 28
M  V30 28 1 28 29
M  V30 29 1 29 30
M  V30 30 1 30 31
M  V30 31 1 31 32
M  V30 32 1 32 33
M  V30 33 2 33 34
M  V30 34 1 33 35
M  V30 35 1 35 36
M  V30 36 1 36 37
M  V30 37 2 37 38
M  V30 38 1 38 39
M  V30 39 1 38 40
M  V30 40 2 40 41
M  V30 41 1 41 42
M  V30 42 1 42 43
M  V30 43 1 43 44
M  V30 44 1 44 45
M  V30 45 2 45 46
M  V30 46 1 46 47
M  V30 47 2 47 48
M  V30 48 1 48 49
M  V30 49 2 49 50
M  V30 50 2 44 51
M  V30 51 1 51 52
M  V30 52 1 52 53
M  V30 53 2 53 54
M  V30 54 1 54 55
M  V30 55 2 55 56
M  V30 56 1 56 57
M  V30 57 2 42 58
M  V30 58 1 58 59
M  V30 59 2 59 60
M  V30 60 1 5 61
M  V30 61 2 61 62
M  V30 62 1 61 63
M  V30 63 1 63 64
M  V30 64 1 64 65
M  V30 65 2 65 66
M  V30 66 1 65 67
M  V30 67 1 67 68
M  V30 68 1 68 69
M  V30 69 1 69 70
M  V30 70 1 70 71
M  V30 71 1 71 72
M  V30 72 1 72 73
M  V30 73 1 68 74
M  V30 74 2 74 75
M  V30 75 1 74 76
M  V30 76 1 76 77
M  V30 77 1 77 78
M  V30 78 1 78 79
M  V30 79 1 79 80
M  V30 80 1 79 81
M  V30 81 1 77 82
M  V30 82 2 82 83
M  V30 83 1 82 84
M  V30 84 1 84 85
M  V30 85 1 85 86
M  V30 86 1 85 87
M  V30 87 2 87 88
M  V30 88 1 87 89
M  V30 89 1 89 90
M  V30 90 1 90 91
M  V30 91 1 91 92
M  V30 92 1 92 93
M  V30 93 1 93 94
M  V30 94 2 94 95
M  V30 95 1 94 96
M  V30 96 1 96 97
M  V30 97 1 97 98
M  V30 98 1 98 99
M  V30 99 1 99 100
M  V30 100 1 100 101
M  V30 101 2 101 102
M  V30 102 1 101 103
M  V30 103 1 103 104
M  V30 104 1 104 105
M  V30 105 1 105 106
M  V30 106 1 106 107
M  V30 107 1 107 108
M  V30 108 2 108 109
M  V30 109 1 108 110
M  V30 110 1 110 111
M  V30 111 1 111 112
M  V30 112 1 112 113
M  V30 113 1 113 114
M  V30 114 1 114 115
M  V30 115 1 115 116
M  V30 116 1 111 117
M  V30 117 2 117 118
M  V30 118 1 117 119
M  V30 119 1 119 120
M  V30 120 1 120 121
M  V30 121 1 121 122
M  V30 122 1 122 123
M  V30 123 1 123 124
M  V30 124 1 124 125
M  V30 125 1 120 126
M  V30 126 2 126 127
M  V30 127 1 126 128
M  V30 128 1 128 129
M  V30 129 1 129 130
M  V30 130 1 129 131
M  V30 131 2 131 132
M  V30 132 1 131 133
M  V30 133 1 64 134
M  V30 134 1 134 135
M  V30 135 1 134 136
M  V30 136 1 136 137
M  V30 137 1 60 36
M  V30 138 1 93 89
M  V30 139 1 100 96
M  V30 140 1 107 103
M  V30 141 1 60 40
M  V30 142 2 57 43
M  V30 143 1 50 45
M  V30 144 1 57 52
M  V30 145 1 1 138
M  V30 146 1 1 139
M  V30 147 1 1 140
M  V30 148 1 2 141
M  V30 149 1 2 142
M  V30 150 1 3 143 CFG=3
M  V30 151 1 4 144
M  V30 152 1 4 145
M  V30 153 1 4 146
M  V30 154 1 5 147 CFG=1
M  V30 155 1 6 148
M  V30 156 1 9 149 CFG=1
M  V30 157 1 10 150
M  V30 158 1 10 151
M  V30 159 1 11 152
M  V30 160 1 11 153
M  V30 161 1 14 154
M  V30 162 1 15 155
M  V30 163 1 18 156
M  V30 164 1 18 157
M  V30 165 1 19 158
M  V30 166 1 19 159
M  V30 167 1 21 160
M  V30 168 1 21 161
M  V30 169 1 22 162
M  V30 170 1 22 163
M  V30 171 1 24 164
M  V30 172 1 24 165
M  V30 173 1 25 166
M  V30 174 1 25 167
M  V30 175 1 27 168
M  V30 176 1 27 169
M  V30 177 1 28 170
M  V30 178 1 28 171
M  V30 179 1 30 172
M  V30 180 1 30 173
M  V30 181 1 31 174
M  V30 182 1 31 175
M  V30 183 1 32 176
M  V30 184 1 35 177
M  V30 185 1 35 178
M  V30 186 1 39 179
M  V30 187 1 39 180
M  V30 188 1 41 181
M  V30 189 1 46 182
M  V30 190 1 47 183
M  V30 191 1 48 184
M  V30 192 1 49 185
M  V30 193 1 50 186
M  V30 194 1 53 187
M  V30 195 1 54 188
M  V30 196 1 55 189
M  V30 197 1 56 190
M  V30 198 1 63 191
M  V30 199 1 64 192 CFG=3
M  V30 200 1 67 193
M  V30 201 1 68 194 CFG=1
M  V30 202 1 69 195
M  V30 203 1 69 196
M  V30 204 1 70 197
M  V30 205 1 70 198
M  V30 206 1 71 199
M  V30 207 1 71 200
M  V30 208 1 72 201
M  V30 209 1 72 202
M  V30 210 1 73 203
M  V30 211 1 73 204
M  V30 212 1 76 205
M  V30 213 1 77 206 CFG=3
M  V30 214 1 78 207
M  V30 215 1 78 208
M  V30 216 1 79 209
M  V30 217 1 80 210
M  V30 218 1 80 211
M  V30 219 1 80 212
M  V30 220 1 81 213
M  V30 221 1 81 214
M  V30 222 1 81 215
M  V30 223 1 84 216
M  V30 224 1 85 217 CFG=1
M  V30 225 1 86 218
M  V30 226 1 86 219
M  V30 227 1 86 220
M  V30 228 1 90 221
M  V30 229 1 90 222
M  V30 230 1 91 223
M  V30 231 1 91 224
M  V30 232 1 92 225
M  V30 233 1 92 226
M  V30 234 1 93 227 CFG=3
M  V30 235 1 97 228
M  V30 236 1 97 229
M  V30 237 1 98 230
M  V30 238 1 98 231
M  V30 239 1 99 232
M  V30 240 1 99 233
M  V30 241 1 100 234 CFG=3
M  V30 242 1 104 235
M  V30 243 1 104 236
M  V30 244 1 105 237
M  V30 245 1 105 238
M  V30 246 1 106 239
M  V30 247 1 106 240
M  V30 248 1 107 241 CFG=1
M  V30 249 1 110 242
M  V30 250 1 111 243 CFG=1
M  V30 251 1 112 244
M  V30 252 1 112 245
M  V30 253 1 113 246
M  V30 254 1 113 247
M  V30 255 1 114 248
M  V30 256 1 114 249
M  V30 257 1 115 250
M  V30 258 1 115 251
M  V30 259 1 116 252
M  V30 260 1 116 253
M  V30 261 1 119 254
M  V30 262 1 120 255 CFG=3
M  V30 263 1 121 256
M  V30 264 1 121 257
M  V30 265 1 122 258
M  V30 266 1 122 259
M  V30 267 1 123 260
M  V30 268 1 123 261
M  V30 269 1 124 262
M  V30 270 1 124 263
M  V30 271 1 125 264
M  V30 272 1 125 265
M  V30 273 1 128 266
M  V30 274 1 129 267 CFG=1
M  V30 275 1 130 268
M  V30 276 1 130 269
M  V30 277 1 130 270
M  V30 278 1 133 271
M  V30 279 1 134 272 CFG=1
M  V30 280 1 135 273
M  V30 281 1 135 274
M  V30 282 1 135 275
M  V30 283 1 136 276
M  V30 284 1 136 277
M  V30 285 1 137 278
M  V30 286 1 137 279
M  V30 287 1 137 280
M  V30 END BOND
M  V30 END CTAB
M  END
>  <Dataset>  (380) 
ChEMBL_Kinases

>  <Ligand_Instance>  (380) 
nan

>  <PDB_ID>  (380) 
nan

>  <Standardized_SMILES>  (380) 
CC[C@H](C)[C@H](NC(=O)[C@H](CCC(=O)O)NC(=O)CCOCCOCCOCCOCCNC(=O)Cn1nc(N)c2cc(-c3c(-c4ccccc4)nn4ccccc34)nnc21)C(=O)N[C@H](C(=O)N[C@@H](CCCCN)C(=O)N[C@@H](CC(C)C)C(=O)N[C@@H](C)C(=O)N1CCC[C@H]1C(=O)N1CCC[C@H]1C(=O)N1CCC[C@H]1C(=O)N[C@@H](CCCCN)C(=O)N[C@@H](CCCCN)C(=O)N[C@@H](C)C(=O)O)[C@@H](C)CC

>  <Name>  (380) 
nan

>  <Pocket>  (380) 
nan

>  <ATP_Site>  (380) 
nan

>  <Peripheral>  (380) 
nan

>  <Num_H_Atoms_ProtBoundConf>  (380) 
nan

>  <Num_Resolved_Atoms>  (380) 
nan

>  <Num_Not_Resolved_Atoms>  (380) 
nan

$$$$
CHEMBL479987
     RDKit          3D

  0  0  0  0  0  0  0  0  0  0999 V3000
M  V30 BEGIN CTAB
M  V30 COUNTS 48 51 0 0 0
M  V30 BEGIN ATOM
M  V30 1 C 0.844788 -4.472336 -4.018746 0
M  V30 2 O 2.039831 -4.644844 -3.252167 0
M  V30 3 C 2.218450 -3.806995 -2.159151 0
M  V30 4 N 3.330756 -3.934862 -1.408996 0
M  V30 5 C 3.558491 -3.137978 -0.321377 0
M  V30 6 C 2.612562 -2.167578 0.016949 0
M  V30 7 C 1.486440 -2.051617 -0.759057 0
M  V30 8 C 0.570701 -1.012495 -0.341885 0
M  V30 9 N 0.777364 0.318178 -0.448023 0
M  V30 10 C -0.282637 0.991139 0.029385 0
M  V30 11 C -0.446766 2.474117 0.087732 0
M  V30 12 C 0.108369 3.000062 1.362125 0
M  V30 13 C 1.442120 3.412673 1.399639 0
M  V30 14 C 2.064952 3.915393 2.521892 0
M  V30 15 C 1.307066 4.009782 3.674483 0
M  V30 16 C -0.012417 3.608136 3.662019 0
M  V30 17 C -0.745384 3.737394 4.917760 0
M  V30 18 N -2.100838 3.338439 4.953838 0
M  V30 19 O -0.235996 4.181414 5.960660 0
M  V30 20 C -0.617193 3.108775 2.530203 0
M  V30 21 N -1.166485 0.066669 0.441367 0
M  V30 22 C -0.670676 -1.176611 0.226856 0
M  V30 23 C -1.397044 -2.390061 0.573030 0
M  V30 24 C -1.010195 -3.353341 1.480540 0
M  V30 25 C -1.783382 -4.465957 1.738678 0
M  V30 26 C -2.968551 -4.588633 1.054842 0
M  V30 27 F -3.696251 -5.698426 1.338496 0
M  V30 28 C -3.398143 -3.652299 0.137536 0
M  V30 29 C -2.589981 -2.541216 -0.096638 0
M  V30 30 N 1.312152 -2.859722 -1.815634 0
M  V30 31 H 1.026128 -3.794171 -4.895145 0
M  V30 32 H 0.458748 -5.442939 -4.344045 0
M  V30 33 H 0.045912 -3.970844 -3.425078 0
M  V30 34 H 4.463168 -3.264514 0.263873 0
M  V30 35 H 2.860497 -1.572681 0.889127 0
M  V30 36 H 1.642472 0.788244 -0.847378 0
M  V30 37 H 0.180005 2.874394 -0.751266 0
M  V30 38 H -1.513768 2.747549 -0.026279 0
M  V30 39 H 2.011952 3.328018 0.489227 0
M  V30 40 H 3.100501 4.225055 2.506814 0
M  V30 41 H 1.705035 4.391303 4.604462 0
M  V30 42 H -2.163433 2.319918 4.776801 0
M  V30 43 H -3.124550 3.222793 5.014429 0
M  V30 44 H -1.655368 2.795452 2.527357 0
M  V30 45 H -0.049637 -3.142467 1.960252 0
M  V30 46 H -1.440820 -5.181202 2.446725 0
M  V30 47 H -4.344657 -3.819233 -0.362570 0
M  V30 48 H -3.010267 -1.879085 -0.818939 0
M  V30 END ATOM
M  V30 BEGIN BOND
M  V30 1 1 1 2
M  V30 2 1 2 3
M  V30 3 2 3 4
M  V30 4 1 4 5
M  V30 5 2 5 6
M  V30 6 1 6 7
M  V30 7 1 7 8
M  V30 8 1 8 9
M  V30 9 1 9 10
M  V30 10 1 10 11
M  V30 11 1 11 12
M  V30 12 2 12 13
M  V30 13 1 13 14
M  V30 14 2 14 15
M  V30 15 1 15 16
M  V30 16 1 16 17
M  V30 17 1 17 18
M  V30 18 2 17 19
M  V30 19 2 16 20
M  V30 20 2 10 21
M  V30 21 1 21 22
M  V30 22 1 22 23
M  V30 23 2 23 24
M  V30 24 1 24 25
M  V30 25 2 25 26
M  V30 26 1 26 27
M  V30 27 1 26 28
M  V30 28 2 28 29
M  V30 29 2 7 30
M  V30 30 1 30 3
M  V30 31 2 22 8
M  V30 32 1 29 23
M  V30 33 1 20 12
M  V30 34 1 1 31
M  V30 35 1 1 32
M  V30 36 1 1 33
M  V30 37 1 5 34
M  V30 38 1 6 35
M  V30 39 1 9 36
M  V30 40 1 11 37
M  V30 41 1 11 38
M  V30 42 1 13 39
M  V30 43 1 14 40
M  V30 44 1 15 41
M  V30 45 1 18 42
M  V30 46 1 18 43
M  V30 47 1 20 44
M  V30 48 1 24 45
M  V30 49 1 25 46
M  V30 50 1 28 47
M  V30 51 1 29 48
M  V30 END BOND
M  V30 END CTAB
M  END
>  <Dataset>  (381) 
ChEMBL_Kinases

>  <Ligand_Instance>  (381) 
nan

>  <PDB_ID>  (381) 
nan

>  <Standardized_SMILES>  (381) 
COc1nccc(-c2[nH]c(Cc3cccc(C(N)=O)c3)nc2-c2ccc(F)cc2)n1

>  <Name>  (381) 
nan

>  <Pocket>  (381) 
nan

>  <ATP_Site>  (381) 
nan

>  <Peripheral>  (381) 
nan

>  <Num_H_Atoms_ProtBoundConf>  (381) 
nan

>  <Num_Resolved_Atoms>  (381) 
nan

>  <Num_Not_Resolved_Atoms>  (381) 
nan

$$$$
CHEMBL4098878
     RDKit          3D

  0  0  0  0  0  0  0  0  0  0999 V3000
M  V30 BEGIN CTAB
M  V30 COUNTS 45 48 0 0 0
M  V30 BEGIN ATOM
M  V30 1 N 1.505292 -4.951692 3.990179 0
M  V30 2 C 0.693364 -4.427996 2.965300 0
M  V30 3 O -0.252310 -5.170879 2.597472 0
M  V30 4 C 1.030799 -3.120925 2.461211 0
M  V30 5 C 2.057129 -2.274907 2.818026 0
M  V30 6 N 2.102183 -1.110179 2.155693 0
M  V30 7 C 1.287293 -0.684641 1.212638 0
M  V30 8 N 1.523466 0.605662 0.636231 0
M  V30 9 C 2.616266 1.466256 1.043858 0 CFG=1
M  V30 10 C 2.684517 2.750028 0.312295 0
M  V30 11 C 1.899648 3.783743 1.135365 0
M  V30 12 C 2.660895 4.055634 2.437012 0
M  V30 13 N 3.420108 2.869513 2.812302 0
M  V30 14 C 2.605446 1.718757 2.529282 0
M  V30 15 C 0.223036 -1.440282 0.769499 0
M  V30 16 C -0.732031 -1.232005 -0.159648 0
M  V30 17 C -1.668998 -2.184723 -0.375408 0
M  V30 18 C -2.812027 -2.138299 -1.365360 0
M  V30 19 C -2.965065 -1.024226 -2.164620 0
M  V30 20 C -4.052174 -1.085290 -3.043126 0
M  V30 21 C -4.916816 -2.154762 -3.127525 0
M  V30 22 C -4.681913 -3.224810 -2.285727 0
M  V30 23 F -5.484390 -4.312904 -2.306136 0
M  V30 24 C -3.629961 -3.248126 -1.386018 0
M  V30 25 S -1.303132 -3.470286 0.705543 0
M  V30 26 C 0.183413 -2.645515 1.460800 0
M  V30 27 H 1.414946 -4.354717 4.850669 0
M  V30 28 H 2.029384 -5.188341 4.834451 0
M  V30 29 H 2.696517 -2.662009 3.590093 0
M  V30 30 H 0.894252 0.963921 -0.112337 0
M  V30 31 H 3.542221 0.882104 0.772116 0
M  V30 32 H 3.703333 3.122744 0.120932 0
M  V30 33 H 2.200324 2.674362 -0.682433 0
M  V30 34 H 0.900240 3.412217 1.368619 0
M  V30 35 H 1.855920 4.752934 0.601529 0
M  V30 36 H 3.310052 4.923448 2.317342 0
M  V30 37 H 1.904701 4.215594 3.214305 0
M  V30 38 H 4.240701 2.812237 2.145509 0
M  V30 39 H 3.078203 0.854768 3.060838 0
M  V30 40 H 1.555281 1.879370 2.899451 0
M  V30 41 H -0.770802 -0.314685 -0.743914 0
M  V30 42 H -2.299635 -0.187702 -2.107803 0
M  V30 43 H -4.222844 -0.227836 -3.702895 0
M  V30 44 H -5.745479 -2.179369 -3.810818 0
M  V30 45 H -3.452518 -4.099189 -0.724643 0
M  V30 END ATOM
M  V30 BEGIN BOND
M  V30 1 1 1 2
M  V30 2 2 2 3
M  V30 3 1 2 4
M  V30 4 2 4 5
M  V30 5 1 5 6
M  V30 6 2 6 7
M  V30 7 1 7 8
M  V30 8 1 8 9
M  V30 9 1 9 10
M  V30 10 1 10 11
M  V30 11 1 11 12
M  V30 12 1 12 13
M  V30 13 1 13 14
M  V30 14 1 7 15
M  V30 15 1 15 16
M  V30 16 2 16 17
M  V30 17 1 17 18
M  V30 18 2 18 19
M  V30 19 1 19 20
M  V30 20 2 20 21
M  V30 21 1 21 22
M  V30 22 1 22 23
M  V30 23 2 22 24
M  V30 24 1 17 25
M  V30 25 1 25 26
M  V30 26 1 26 4
M  V30 27 1 14 9
M  V30 28 2 26 15
M  V30 29 1 24 18
M  V30 30 1 1 27
M  V30 31 1 1 28
M  V30 32 1 5 29
M  V30 33 1 8 30
M  V30 34 1 9 31 CFG=1
M  V30 35 1 10 32
M  V30 36 1 10 33
M  V30 37 1 11 34
M  V30 38 1 11 35
M  V30 39 1 12 36
M  V30 40 1 12 37
M  V30 41 1 13 38
M  V30 42 1 14 39
M  V30 43 1 14 40
M  V30 44 1 16 41
M  V30 45 1 19 42
M  V30 46 1 20 43
M  V30 47 1 21 44
M  V30 48 1 24 45
M  V30 END BOND
M  V30 END CTAB
M  END
>  <Dataset>  (382) 
ChEMBL_Kinases

>  <Ligand_Instance>  (382) 
nan

>  <PDB_ID>  (382) 
nan

>  <Standardized_SMILES>  (382) 
NC(=O)c1cnc(N[C@H]2CCCNC2)c2cc(-c3cccc(F)c3)sc12

>  <Name>  (382) 
nan

>  <Pocket>  (382) 
nan

>  <ATP_Site>  (382) 
nan

>  <Peripheral>  (382) 
nan

>  <Num_H_Atoms_ProtBoundConf>  (382) 
nan

>  <Num_Resolved_Atoms>  (382) 
nan

>  <Num_Not_Resolved_Atoms>  (382) 
nan

$$$$
CHEMBL4799887
     RDKit          3D

  0  0  0  0  0  0  0  0  0  0999 V3000
M  V30 BEGIN CTAB
M  V30 COUNTS 52 55 0 0 0
M  V30 BEGIN ATOM
M  V30 1 O 1.792340 -0.795629 -0.051965 0
M  V30 2 C 1.680572 0.462951 -0.282311 0
M  V30 3 C 1.807339 1.934416 -0.238429 0
M  V30 4 C 2.664578 2.500223 0.825043 0
M  V30 5 N 2.245643 2.298597 2.176594 0
M  V30 6 C 2.290521 0.949283 2.650226 0
M  V30 7 C 2.093669 0.874158 4.137362 0
M  V30 8 O 3.037730 1.631862 4.812008 0
M  V30 9 C 2.727915 2.965776 4.457098 0
M  V30 10 C 3.139672 3.104325 3.032624 0
M  V30 11 N 0.759304 0.189461 -1.385764 0
M  V30 12 C 0.410895 -1.178456 -1.709529 0
M  V30 13 C 1.294802 -1.728815 -2.635016 0
M  V30 14 C 1.139129 -3.023215 -3.076443 0
M  V30 15 C 0.111952 -3.818153 -2.623217 0
M  V30 16 C -0.737984 -3.250686 -1.715051 0
M  V30 17 C -0.617488 -1.971097 -1.254838 0
M  V30 18 C -1.738837 -4.240692 -1.388443 0
M  V30 19 C -2.683267 -4.101065 -0.516085 0
M  V30 20 C -3.056303 -3.027349 0.377040 0
M  V30 21 C -4.366732 -2.563993 0.150471 0
M  V30 22 C -5.005276 -1.593378 0.893954 0
M  V30 23 C -4.319720 -1.028685 1.937798 0
M  V30 24 O -4.923765 -0.051800 2.708439 0
M  V30 25 C -3.037306 -1.430342 2.219279 0
M  V30 26 C -2.426784 -2.397594 1.463144 0
M  V30 27 C -1.435175 -5.429778 -2.159779 0
M  V30 28 O -2.082795 -6.506350 -2.147733 0
M  V30 29 N -0.272863 -5.135604 -2.921342 0
M  V30 30 H 0.769452 2.351334 -0.081835 0
M  V30 31 H 2.139060 2.300922 -1.265543 0
M  V30 32 H 2.671932 3.625443 0.656874 0
M  V30 33 H 3.755348 2.213073 0.691650 0
M  V30 34 H 1.428879 0.354651 2.226844 0
M  V30 35 H 3.274646 0.532944 2.366692 0
M  V30 36 H 1.063766 1.210992 4.410754 0
M  V30 37 H 2.208929 -0.180125 4.471478 0
M  V30 38 H 3.332478 3.623310 5.112105 0
M  V30 39 H 1.658210 3.151865 4.664486 0
M  V30 40 H 3.098969 4.151939 2.675235 0
M  V30 41 H 4.139663 2.626679 2.920736 0
M  V30 42 H 0.201050 0.764442 -2.110386 0
M  V30 43 H 2.134992 -1.212068 -3.063376 0
M  V30 44 H 1.812696 -3.470759 -3.793612 0
M  V30 45 H -1.191833 -1.378507 -0.584463 0
M  V30 46 H -3.360008 -4.965846 -0.403998 0
M  V30 47 H -5.006384 -2.949449 -0.661718 0
M  V30 48 H -6.010898 -1.257168 0.697158 0
M  V30 49 H -5.610187 0.614018 2.346498 0
M  V30 50 H -2.443205 -1.041905 3.009065 0
M  V30 51 H -1.420202 -2.822619 1.557448 0
M  V30 52 H 0.225222 -5.778082 -3.593538 0
M  V30 END ATOM
M  V30 BEGIN BOND
M  V30 1 2 1 2
M  V30 2 1 2 3
M  V30 3 1 3 4
M  V30 4 1 4 5
M  V30 5 1 5 6
M  V30 6 1 6 7
M  V30 7 1 7 8
M  V30 8 1 8 9
M  V30 9 1 9 10
M  V30 10 1 2 11
M  V30 11 1 11 12
M  V30 12 2 12 13
M  V30 13 1 13 14
M  V30 14 2 14 15
M  V30 15 1 15 16
M  V30 16 2 16 17
M  V30 17 1 16 18
M  V30 18 2 18 19
M  V30 19 1 19 20
M  V30 20 2 20 21
M  V30 21 1 21 22
M  V30 22 2 22 23
M  V30 23 1 23 24
M  V30 24 1 23 25
M  V30 25 2 25 26
M  V30 26 1 18 27
M  V30 27 2 27 28
M  V30 28 1 27 29
M  V30 29 1 10 5
M  V30 30 1 17 12
M  V30 31 1 26 20
M  V30 32 1 29 15
M  V30 33 1 3 30
M  V30 34 1 3 31
M  V30 35 1 4 32
M  V30 36 1 4 33
M  V30 37 1 6 34
M  V30 38 1 6 35
M  V30 39 1 7 36
M  V30 40 1 7 37
M  V30 41 1 9 38
M  V30 42 1 9 39
M  V30 43 1 10 40
M  V30 44 1 10 41
M  V30 45 1 11 42
M  V30 46 1 13 43
M  V30 47 1 14 44
M  V30 48 1 17 45
M  V30 49 1 19 46
M  V30 50 1 21 47
M  V30 51 1 22 48
M  V30 52 1 24 49
M  V30 53 1 25 50
M  V30 54 1 26 51
M  V30 55 1 29 52
M  V30 END BOND
M  V30 END CTAB
M  END
>  <Dataset>  (383) 
ChEMBL_Kinases

>  <Ligand_Instance>  (383) 
nan

>  <PDB_ID>  (383) 
nan

>  <Standardized_SMILES>  (383) 
O=C(CCN1CCOCC1)Nc1ccc2c(c1)/C(=C\c1ccc(O)cc1)C(=O)N2

>  <Name>  (383) 
nan

>  <Pocket>  (383) 
nan

>  <ATP_Site>  (383) 
nan

>  <Peripheral>  (383) 
nan

>  <Num_H_Atoms_ProtBoundConf>  (383) 
nan

>  <Num_Resolved_Atoms>  (383) 
nan

>  <Num_Not_Resolved_Atoms>  (383) 
nan

$$$$
CHEMBL4098876
     RDKit          3D

  0  0  0  0  0  0  0  0  0  0999 V3000
M  V30 BEGIN CTAB
M  V30 COUNTS 51 54 0 0 0
M  V30 BEGIN ATOM
M  V30 1 H 4.365630 -0.785286 4.543806 0 MASS=2
M  V30 2 C 5.454194 -0.697437 4.544534 0
M  V30 3 H 5.902308 -1.039293 3.569633 0 MASS=2
M  V30 4 H 5.864870 -1.406360 5.300277 0 MASS=2
M  V30 5 N 5.910448 0.648051 4.822615 0
M  V30 6 C 5.334160 1.553833 3.820415 0
M  V30 7 N 4.637256 1.484535 2.900911 0
M  V30 8 C 4.239273 2.460519 2.120213 0
M  V30 9 C 3.353400 2.286481 0.973637 0
M  V30 10 C 2.842852 1.078383 0.592143 0
M  V30 11 C 2.008572 0.853257 -0.471826 0
M  V30 12 C 1.510466 -0.480624 -0.804436 0
M  V30 13 O 2.123151 -1.266407 -1.591298 0
M  V30 14 N 0.288531 -0.918421 -0.223425 0
M  V30 15 C -0.456274 -0.063462 0.684008 0
M  V30 16 C -1.621163 -0.750773 1.303289 0
M  V30 17 N -2.435504 -1.431869 0.346112 0
M  V30 18 C -3.513538 -2.161063 0.922413 0
M  V30 19 C -4.362223 -2.874647 -0.058014 0
M  V30 20 C -5.441953 -2.207131 -0.642553 0
M  V30 21 C -6.328410 -2.722140 -1.559351 0
M  V30 22 C -6.134594 -4.034510 -1.944632 0
M  V30 23 Cl -7.257720 -4.696722 -3.110134 0
M  V30 24 C -5.083819 -4.741389 -1.399123 0
M  V30 25 C -4.233526 -4.187837 -0.495166 0
M  V30 26 C -1.761430 -2.017298 -0.755106 0
M  V30 27 C -0.273117 -2.223347 -0.501340 0
M  V30 28 C 1.643496 1.942161 -1.236636 0
M  V30 29 Cl 0.586928 1.760837 -2.610334 0
M  V30 30 C 2.143163 3.176235 -0.876284 0
M  V30 31 N 2.957768 3.300593 0.186695 0
M  V30 32 C 4.728814 3.749081 2.454117 0
M  V30 33 S 5.793221 3.385111 3.976757 0
M  V30 34 H 6.535588 1.000460 5.576207 0
M  V30 35 H 3.095237 0.185605 1.156238 0
M  V30 36 H -0.811188 0.809268 0.093168 0
M  V30 37 H 0.185532 0.346018 1.487007 0
M  V30 38 H -2.258246 0.033575 1.784364 0
M  V30 39 H -1.282771 -1.400649 2.141581 0
M  V30 40 H -3.164471 -2.860343 1.735120 0
M  V30 41 H -4.186531 -1.399612 1.418282 0
M  V30 42 H -5.592820 -1.170721 -0.336589 0
M  V30 43 H -7.125297 -2.094361 -1.935240 0
M  V30 44 H -4.940011 -5.775752 -1.709742 0
M  V30 45 H -3.408077 -4.736140 -0.060399 0
M  V30 46 H -2.216307 -2.950908 -1.103324 0
M  V30 47 H -1.799022 -1.324016 -1.635550 0
M  V30 48 H 0.152908 -2.589013 -1.450534 0
M  V30 49 H -0.083990 -2.919122 0.348577 0
M  V30 50 H 1.869500 4.045389 -1.463185 0
M  V30 51 H 4.492437 4.700555 1.896764 0
M  V30 END ATOM
M  V30 BEGIN BOND
M  V30 1 1 1 2
M  V30 2 1 2 3
M  V30 3 1 2 4
M  V30 4 1 2 5
M  V30 5 1 5 6
M  V30 6 2 6 7
M  V30 7 1 7 8
M  V30 8 1 8 9
M  V30 9 2 9 10
M  V30 10 1 10 11
M  V30 11 1 11 12
M  V30 12 2 12 13
M  V30 13 1 12 14
M  V30 14 1 14 15
M  V30 15 1 15 16
M  V30 16 1 16 17
M  V30 17 1 17 18
M  V30 18 1 18 19
M  V30 19 2 19 20
M  V30 20 1 20 21
M  V30 21 2 21 22
M  V30 22 1 22 23
M  V30 23 1 22 24
M  V30 24 2 24 25
M  V30 25 1 17 26
M  V30 26 1 26 27
M  V30 27 2 11 28
M  V30 28 1 28 29
M  V30 29 1 28 30
M  V30 30 2 30 31
M  V30 31 2 8 32
M  V30 32 1 32 33
M  V30 33 1 33 6
M  V30 34 1 31 9
M  V30 35 1 27 14
M  V30 36 1 25 19
M  V30 37 1 5 34
M  V30 38 1 10 35
M  V30 39 1 15 36
M  V30 40 1 15 37
M  V30 41 1 16 38
M  V30 42 1 16 39
M  V30 43 1 18 40
M  V30 44 1 18 41
M  V30 45 1 20 42
M  V30 46 1 21 43
M  V30 47 1 24 44
M  V30 48 1 25 45
M  V30 49 1 26 46
M  V30 50 1 26 47
M  V30 51 1 27 48
M  V30 52 1 27 49
M  V30 53 1 30 50
M  V30 54 1 32 51
M  V30 END BOND
M  V30 END CTAB
M  END
>  <Dataset>  (384) 
ChEMBL_Kinases

>  <Ligand_Instance>  (384) 
nan

>  <PDB_ID>  (384) 
nan

>  <Standardized_SMILES>  (384) 
[2H]C([2H])([2H])Nc1nc(-c2cc(C(=O)N3CCN(Cc4ccc(Cl)cc4)CC3)c(Cl)cn2)cs1

>  <Name>  (384) 
nan

>  <Pocket>  (384) 
nan

>  <ATP_Site>  (384) 
nan

>  <Peripheral>  (384) 
nan

>  <Num_H_Atoms_ProtBoundConf>  (384) 
nan

>  <Num_Resolved_Atoms>  (384) 
nan

>  <Num_Not_Resolved_Atoms>  (384) 
nan

$$$$
CHEMBL4098856
     RDKit          3D

  0  0  0  0  0  0  0  0  0  0999 V3000
M  V30 BEGIN CTAB
M  V30 COUNTS 40 43 0 0 0
M  V30 BEGIN ATOM
M  V30 1 C -3.725787 -4.651309 1.027904 0
M  V30 2 N -2.795774 -4.016664 1.967218 0
M  V30 3 C -1.639685 -3.402741 1.668982 0
M  V30 4 C -1.053857 -2.933645 2.839515 0
M  V30 5 C 0.219952 -2.228986 2.739378 0
M  V30 6 C 0.393212 -1.262723 1.768103 0
M  V30 7 C 1.528375 -0.510921 1.541831 0
M  V30 8 C 1.571944 0.482886 0.474809 0
M  V30 9 C 2.729809 0.799219 -0.209903 0
M  V30 10 C 2.773668 1.753083 -1.231534 0
M  V30 11 C 1.550588 2.372238 -1.515774 0
M  V30 12 C 0.358709 2.112138 -0.880437 0
M  V30 13 C -0.614019 2.915017 -1.434446 0
M  V30 14 C 0.039574 3.642166 -2.400346 0
M  V30 15 N 1.347321 3.326992 -2.463088 0
M  V30 16 C 2.321596 3.909257 -3.374081 0
M  V30 17 C 0.425229 1.155623 0.110421 0
M  V30 18 C 2.590944 -0.790713 2.411760 0
M  V30 19 N 2.462102 -1.732242 3.379458 0
M  V30 20 C 1.322761 -2.428513 3.542721 0
M  V30 21 N 1.216874 -3.410323 4.567240 0
M  V30 22 C -1.926303 -3.304170 3.841164 0
M  V30 23 N -2.970641 -3.956144 3.295783 0
M  V30 24 H -3.115400 -5.425190 0.505934 0
M  V30 25 H -4.587303 -5.047087 1.580600 0
M  V30 26 H -4.017265 -3.871951 0.286141 0
M  V30 27 H -1.303934 -3.337072 0.639312 0
M  V30 28 H -0.445604 -1.062979 1.103989 0
M  V30 29 H 3.660835 0.295236 0.041200 0
M  V30 30 H 3.676033 1.999126 -1.764393 0
M  V30 31 H -1.650921 2.924918 -1.131297 0
M  V30 32 H -0.504378 4.369374 -3.003991 0
M  V30 33 H 2.283651 3.423225 -4.367192 0
M  V30 34 H 2.133109 4.996130 -3.494794 0
M  V30 35 H 3.320536 3.801377 -2.946782 0
M  V30 36 H -0.506775 0.926775 0.634367 0
M  V30 37 H 3.494871 -0.207031 2.248113 0
M  V30 38 H 0.653092 -3.213052 5.422751 0
M  V30 39 H 0.655261 -3.222172 5.426541 0
M  V30 40 H -1.668920 -3.037598 4.858650 0
M  V30 END ATOM
M  V30 BEGIN BOND
M  V30 1 1 1 2
M  V30 2 1 2 3
M  V30 3 2 3 4
M  V30 4 1 4 5
M  V30 5 2 5 6
M  V30 6 1 6 7
M  V30 7 1 7 8
M  V30 8 2 8 9
M  V30 9 1 9 10
M  V30 10 2 10 11
M  V30 11 1 11 12
M  V30 12 1 12 13
M  V30 13 2 13 14
M  V30 14 1 14 15
M  V30 15 1 15 16
M  V30 16 2 12 17
M  V30 17 2 7 18
M  V30 18 1 18 19
M  V30 19 2 19 20
M  V30 20 1 20 21
M  V30 21 1 4 22
M  V30 22 2 22 23
M  V30 23 1 23 2
M  V30 24 1 20 5
M  V30 25 1 17 8
M  V30 26 1 15 11
M  V30 27 1 1 24
M  V30 28 1 1 25
M  V30 29 1 1 26
M  V30 30 1 3 27
M  V30 31 1 6 28
M  V30 32 1 9 29
M  V30 33 1 10 30
M  V30 34 1 13 31
M  V30 35 1 14 32
M  V30 36 1 16 33
M  V30 37 1 16 34
M  V30 38 1 16 35
M  V30 39 1 17 36
M  V30 40 1 18 37
M  V30 41 1 21 38
M  V30 42 1 21 39
M  V30 43 1 22 40
M  V30 END BOND
M  V30 END CTAB
M  END
>  <Dataset>  (385) 
ChEMBL_Kinases

>  <Ligand_Instance>  (385) 
nan

>  <PDB_ID>  (385) 
nan

>  <Standardized_SMILES>  (385) 
Cn1cc(-c2cc(-c3ccc4c(ccn4C)c3)cnc2N)cn1

>  <Name>  (385) 
nan

>  <Pocket>  (385) 
nan

>  <ATP_Site>  (385) 
nan

>  <Peripheral>  (385) 
nan

>  <Num_H_Atoms_ProtBoundConf>  (385) 
nan

>  <Num_Resolved_Atoms>  (385) 
nan

>  <Num_Not_Resolved_Atoms>  (385) 
nan

$$$$
CHEMBL4098835
     RDKit          3D

  0  0  0  0  0  0  0  0  0  0999 V3000
M  V30 BEGIN CTAB
M  V30 COUNTS 71 75 0 0 0
M  V30 BEGIN ATOM
M  V30 1 C 1.232886 -3.434401 8.649365 0
M  V30 2 N 1.588124 -2.927961 7.358850 0
M  V30 3 C 0.914511 -3.591851 6.290180 0
M  V30 4 C 1.814662 -3.696308 5.051951 0
M  V30 5 N 2.514924 -2.457172 4.801594 0
M  V30 6 C 2.397052 -1.647212 3.660112 0
M  V30 7 C 1.555523 -1.961300 2.614578 0
M  V30 8 C 1.515476 -1.085532 1.528314 0
M  V30 9 N 2.247260 0.029051 1.458335 0
M  V30 10 C 2.304963 0.950384 0.483380 0
M  V30 11 C 1.619017 1.063190 -0.797066 0
M  V30 12 C 2.300502 1.401834 -1.943152 0
M  V30 13 C 1.643430 1.505627 -3.142771 0
M  V30 14 C 0.276400 1.282339 -3.286217 0
M  V30 15 C -0.269768 1.430337 -4.613124 0
M  V30 16 O 0.496492 1.749889 -5.572705 0
M  V30 17 N -1.583461 1.278508 -5.086473 0
M  V30 18 C -2.031911 1.444659 -6.432552 0
M  V30 19 C -1.389096 0.501210 -7.424089 0
M  V30 20 N -1.709050 -0.868717 -6.996889 0
M  V30 21 C -0.361689 0.948272 -2.122183 0
M  V30 22 O -1.720980 0.716214 -2.211112 0
M  V30 23 C -2.441344 0.367405 -1.050426 0
M  V30 24 C -3.876207 0.165062 -1.366555 0
M  V30 25 C -4.831158 1.129411 -1.031856 0
M  V30 26 C -6.171837 0.986448 -1.303667 0
M  V30 27 C -6.572598 -0.172012 -1.937785 0
M  V30 28 C -5.629343 -1.110952 -2.261667 0
M  V30 29 C -4.278810 -0.993750 -2.001131 0
M  V30 30 C -3.327698 -2.045613 -2.379629 0
M  V30 31 F -2.641297 -2.578755 -1.292440 0
M  V30 32 F -3.995618 -3.077006 -2.999975 0
M  V30 33 F -2.351503 -1.608355 -3.263179 0
M  V30 34 C 0.266335 0.835178 -0.901020 0
M  V30 35 C 3.214617 1.897329 0.906540 0
M  V30 36 N 3.678109 1.515889 2.127176 0
M  V30 37 C 3.072452 0.345394 2.473677 0
M  V30 38 C 3.153001 -0.497127 3.589165 0
M  V30 39 C 3.387760 -2.123949 5.899045 0
M  V30 40 C 3.020953 -2.850377 7.170819 0
M  V30 41 H 0.205277 -3.851584 8.617469 0
M  V30 42 H 1.939191 -4.214758 8.968020 0
M  V30 43 H 1.231246 -2.611383 9.401711 0
M  V30 44 H -0.019835 -3.121837 5.979354 0
M  V30 45 H 0.723337 -4.633830 6.618631 0
M  V30 46 H 1.153862 -4.031556 4.254795 0
M  V30 47 H 2.574321 -4.476576 5.334918 0
M  V30 48 H 0.952851 -2.835008 2.620884 0
M  V30 49 H 0.843356 -1.368057 0.728564 0
M  V30 50 H 3.363319 1.582692 -1.870511 0
M  V30 51 H 2.280515 1.781358 -3.996461 0
M  V30 52 H -2.292453 1.014998 -4.354013 0
M  V30 53 H -1.960458 2.495102 -6.792230 0
M  V30 54 H -3.129103 1.214319 -6.487605 0
M  V30 55 H -0.297375 0.626389 -7.407708 0
M  V30 56 H -1.766546 0.671954 -8.454941 0
M  V30 57 H -1.109152 -1.190252 -6.232265 0
M  V30 58 H -2.715219 -1.010518 -6.862527 0
M  V30 59 H -2.001319 -0.508616 -0.530598 0
M  V30 60 H -2.386962 1.202468 -0.311030 0
M  V30 61 H -4.427840 2.022014 -0.529066 0
M  V30 62 H -6.779561 1.820589 -0.981305 0
M  V30 63 H -7.625275 -0.255209 -2.136611 0
M  V30 64 H -5.946243 -2.020204 -2.759718 0
M  V30 65 H -0.338766 0.565873 -0.045942 0
M  V30 66 H 3.602000 2.817217 0.485690 0
M  V30 67 H 3.840983 -0.141143 4.327761 0
M  V30 68 H 4.457477 -2.350885 5.703470 0
M  V30 69 H 3.354738 -1.014743 6.101103 0
M  V30 70 H 3.433766 -2.264051 8.016873 0
M  V30 71 H 3.446064 -3.859466 7.217467 0
M  V30 END ATOM
M  V30 BEGIN BOND
M  V30 1 1 1 2
M  V30 2 1 2 3
M  V30 3 1 3 4
M  V30 4 1 4 5
M  V30 5 1 5 6
M  V30 6 1 6 7
M  V30 7 2 7 8
M  V30 8 1 8 9
M  V30 9 1 9 10
M  V30 10 1 10 11
M  V30 11 2 11 12
M  V30 12 1 12 13
M  V30 13 2 13 14
M  V30 14 1 14 15
M  V30 15 2 15 16
M  V30 16 1 15 17
M  V30 17 1 17 18
M  V30 18 1 18 19
M  V30 19 1 19 20
M  V30 20 1 14 21
M  V30 21 1 21 22
M  V30 22 1 22 23
M  V30 23 1 23 24
M  V30 24 2 24 25
M  V30 25 1 25 26
M  V30 26 2 26 27
M  V30 27 1 27 28
M  V30 28 2 28 29
M  V30 29 1 29 30
M  V30 30 1 30 31
M  V30 31 1 30 32
M  V30 32 1 30 33
M  V30 33 2 21 34
M  V30 34 2 10 35
M  V30 35 1 35 36
M  V30 36 2 36 37
M  V30 37 1 37 38
M  V30 38 1 5 39
M  V30 39 1 39 40
M  V30 40 1 40 2
M  V30 41 2 38 6
M  V30 42 1 37 9
M  V30 43 1 34 11
M  V30 44 1 29 24
M  V30 45 1 1 41
M  V30 46 1 1 42
M  V30 47 1 1 43
M  V30 48 1 3 44
M  V30 49 1 3 45
M  V30 50 1 4 46
M  V30 51 1 4 47
M  V30 52 1 7 48
M  V30 53 1 8 49
M  V30 54 1 12 50
M  V30 55 1 13 51
M  V30 56 1 17 52
M  V30 57 1 18 53
M  V30 58 1 18 54
M  V30 59 1 19 55
M  V30 60 1 19 56
M  V30 61 1 20 57
M  V30 62 1 20 58
M  V30 63 1 23 59
M  V30 64 1 23 60
M  V30 65 1 25 61
M  V30 66 1 26 62
M  V30 67 1 27 63
M  V30 68 1 28 64
M  V30 69 1 34 65
M  V30 70 1 35 66
M  V30 71 1 38 67
M  V30 72 1 39 68
M  V30 73 1 39 69
M  V30 74 1 40 70
M  V30 75 1 40 71
M  V30 END BOND
M  V30 END CTAB
M  END
>  <Dataset>  (386) 
ChEMBL_Kinases

>  <Ligand_Instance>  (386) 
nan

>  <PDB_ID>  (386) 
nan

>  <Standardized_SMILES>  (386) 
CN1CCN(c2ccn3c(-c4ccc(C(=O)NCCN)c(OCc5ccccc5C(F)(F)F)c4)cnc3c2)CC1

>  <Name>  (386) 
nan

>  <Pocket>  (386) 
nan

>  <ATP_Site>  (386) 
nan

>  <Peripheral>  (386) 
nan

>  <Num_H_Atoms_ProtBoundConf>  (386) 
nan

>  <Num_Resolved_Atoms>  (386) 
nan

>  <Num_Not_Resolved_Atoms>  (386) 
nan

$$$$
CHEMBL4098693
     RDKit          3D

  0  0  0  0  0  0  0  0  0  0999 V3000
M  V30 BEGIN CTAB
M  V30 COUNTS 63 66 0 0 0
M  V30 BEGIN ATOM
M  V30 1 C -2.123109 -1.409333 0.050165 0
M  V30 2 C -0.714992 -1.120030 -0.328409 0
M  V30 3 C 0.209245 -0.703350 0.608567 0
M  V30 4 C 1.502327 -0.440947 0.202320 0
M  V30 5 N 2.376873 -0.012510 1.271730 0
M  V30 6 C 2.406222 1.415283 1.474781 0
M  V30 7 O 1.666789 2.060140 0.689499 0
M  V30 8 N 3.172039 2.110632 2.449308 0
M  V30 9 C 3.048415 3.550352 2.475465 0
M  V30 10 C 2.152242 4.314269 3.197189 0
M  V30 11 C 2.365845 5.656470 2.941291 0
M  V30 12 C 1.639238 6.829982 3.495952 0
M  V30 13 C 0.468333 7.176049 2.607625 0
M  V30 14 C 2.599277 7.996118 3.472230 0
M  V30 15 C 1.190696 6.517422 4.904707 0
M  V30 16 O 3.364297 5.664108 2.089962 0
M  V30 17 N 3.778658 4.477755 1.802108 0
M  V30 18 C 1.874839 -0.590062 -1.118415 0
M  V30 19 C 0.927610 -1.010175 -2.040727 0
M  V30 20 C -0.386150 -1.282762 -1.659308 0
M  V30 21 O -1.217661 -1.691074 -2.682627 0
M  V30 22 C -1.886467 -2.869570 -2.808923 0
M  V30 23 C -1.948183 -3.995825 -2.015518 0
M  V30 24 C -2.723595 -5.069731 -2.394080 0
M  V30 25 N -2.749243 -6.201464 -1.540062 0
M  V30 26 C -3.553122 -7.364071 -1.865581 0
M  V30 27 C -2.600360 -8.500311 -2.163173 0
M  V30 28 C -1.584417 -8.678788 -1.055034 0
M  V30 29 C -1.830183 -7.751781 0.098686 0
M  V30 30 C -2.002129 -6.304555 -0.303906 0
M  V30 31 N -3.443077 -5.087235 -3.520273 0
M  V30 32 C -3.378783 -3.970305 -4.302632 0
M  V30 33 N -2.629103 -2.905868 -3.957186 0
M  V30 34 H -2.796125 -1.340968 -0.829454 0
M  V30 35 H -2.443538 -0.575949 0.737367 0
M  V30 36 H -2.235824 -2.392917 0.533576 0
M  V30 37 H -0.125637 -0.597662 1.643791 0
M  V30 38 H 2.996143 -0.568518 1.927184 0
M  V30 39 H 3.763317 1.501789 3.066233 0
M  V30 40 H 1.406654 3.893712 3.855687 0
M  V30 41 H 0.470119 6.634620 1.640583 0
M  V30 42 H -0.462750 6.857287 3.132602 0
M  V30 43 H 0.381729 8.279142 2.480963 0
M  V30 44 H 3.317515 7.846945 4.307431 0
M  V30 45 H 3.094705 7.994380 2.478261 0
M  V30 46 H 2.008716 8.937020 3.612368 0
M  V30 47 H 0.323997 7.175587 5.139785 0
M  V30 48 H 0.876619 5.467032 5.040253 0
M  V30 49 H 1.982711 6.817191 5.641820 0
M  V30 50 H 2.904692 -0.364626 -1.354409 0
M  V30 51 H 1.343070 -1.088162 -3.040214 0
M  V30 52 H -1.344319 -3.912746 -1.131136 0
M  V30 53 H -4.252142 -7.616228 -1.035109 0
M  V30 54 H -4.151556 -7.137687 -2.746564 0
M  V30 55 H -2.054214 -8.215526 -3.085861 0
M  V30 56 H -3.159440 -9.426841 -2.394646 0
M  V30 57 H -1.730190 -9.709961 -0.671400 0
M  V30 58 H -0.546193 -8.663171 -1.445948 0
M  V30 59 H -0.896619 -7.792971 0.730177 0
M  V30 60 H -2.631625 -8.138047 0.744544 0
M  V30 61 H -1.052647 -5.749671 -0.305753 0
M  V30 62 H -2.647930 -5.845137 0.476575 0
M  V30 63 H -3.967073 -4.009320 -5.204142 0
M  V30 END ATOM
M  V30 BEGIN BOND
M  V30 1 1 1 2
M  V30 2 2 2 3
M  V30 3 1 3 4
M  V30 4 1 4 5
M  V30 5 1 5 6
M  V30 6 2 6 7
M  V30 7 1 6 8
M  V30 8 1 8 9
M  V30 9 1 9 10
M  V30 10 2 10 11
M  V30 11 1 11 12
M  V30 12 1 12 13
M  V30 13 1 12 14
M  V30 14 1 12 15
M  V30 15 1 11 16
M  V30 16 1 16 17
M  V30 17 2 4 18
M  V30 18 1 18 19
M  V30 19 2 19 20
M  V30 20 1 20 21
M  V30 21 1 21 22
M  V30 22 2 22 23
M  V30 23 1 23 24
M  V30 24 1 24 25
M  V30 25 1 25 26
M  V30 26 1 26 27
M  V30 27 1 27 28
M  V30 28 1 28 29
M  V30 29 1 29 30
M  V30 30 2 24 31
M  V30 31 1 31 32
M  V30 32 2 32 33
M  V30 33 1 20 2
M  V30 34 1 33 22
M  V30 35 2 17 9
M  V30 36 1 30 25
M  V30 37 1 1 34
M  V30 38 1 1 35
M  V30 39 1 1 36
M  V30 40 1 3 37
M  V30 41 1 5 38
M  V30 42 1 8 39
M  V30 43 1 10 40
M  V30 44 1 13 41
M  V30 45 1 13 42
M  V30 46 1 13 43
M  V30 47 1 14 44
M  V30 48 1 14 45
M  V30 49 1 14 46
M  V30 50 1 15 47
M  V30 51 1 15 48
M  V30 52 1 15 49
M  V30 53 1 18 50
M  V30 54 1 19 51
M  V30 55 1 23 52
M  V30 56 1 26 53
M  V30 57 1 26 54
M  V30 58 1 27 55
M  V30 59 1 27 56
M  V30 60 1 28 57
M  V30 61 1 28 58
M  V30 62 1 29 59
M  V30 63 1 29 60
M  V30 64 1 30 61
M  V30 65 1 30 62
M  V30 66 1 32 63
M  V30 END BOND
M  V30 END CTAB
M  END
>  <Dataset>  (387) 
ChEMBL_Kinases

>  <Ligand_Instance>  (387) 
nan

>  <PDB_ID>  (387) 
nan

>  <Standardized_SMILES>  (387) 
Cc1cc(NC(=O)Nc2cc(C(C)(C)C)on2)ccc1Oc1cc(N2CCCCC2)ncn1

>  <Name>  (387) 
nan

>  <Pocket>  (387) 
nan

>  <ATP_Site>  (387) 
nan

>  <Peripheral>  (387) 
nan

>  <Num_H_Atoms_ProtBoundConf>  (387) 
nan

>  <Num_Resolved_Atoms>  (387) 
nan

>  <Num_Not_Resolved_Atoms>  (387) 
nan

$$$$
CHEMBL4098678
     RDKit          3D

  0  0  0  0  0  0  0  0  0  0999 V3000
M  V30 BEGIN CTAB
M  V30 COUNTS 40 42 0 0 0
M  V30 BEGIN ATOM
M  V30 1 C -0.266362 -2.713509 3.684155 0
M  V30 2 C -0.939135 -2.496796 2.341195 0 CFG=2
M  V30 3 C -0.819076 -3.795525 1.550339 0
M  V30 4 N 0.593630 -4.143224 1.583476 0
M  V30 5 C 1.307836 -3.101448 0.871346 0
M  V30 6 C 1.154332 -1.836103 1.695272 0
M  V30 7 N -0.259189 -1.475563 1.593867 0
M  V30 8 C -0.566787 -0.306220 0.851355 0
M  V30 9 N 0.518876 0.352424 0.409994 0
M  V30 10 C 0.431187 1.491062 -0.319980 0
M  V30 11 C 1.654673 2.148080 -0.763433 0
M  V30 12 C 1.662347 3.304450 -1.506157 0
M  V30 13 C 2.827058 3.938943 -1.935473 0
M  V30 14 N 4.010208 3.391850 -1.606290 0
M  V30 15 C 4.023130 2.260237 -0.879774 0
M  V30 16 C 2.883932 1.613852 -0.443339 0
M  V30 17 C -0.827829 1.964111 -0.602731 0
M  V30 18 C -1.967191 1.320170 -0.170310 0
M  V30 19 O -3.124487 1.717431 -0.406079 0
M  V30 20 N -1.763181 0.202212 0.544224 0
M  V30 21 C -2.928851 -0.514178 1.008021 0
M  V30 22 H -1.028482 -3.124608 4.412890 0
M  V30 23 H 0.069743 -1.773155 4.165394 0
M  V30 24 H 0.514417 -3.495974 3.635216 0
M  V30 25 H -1.992303 -2.358828 2.549553 0
M  V30 26 H -1.168306 -3.576282 0.536430 0
M  V30 27 H -1.448481 -4.532640 2.094983 0
M  V30 28 H 0.669304 -5.047253 1.060727 0
M  V30 29 H 0.746777 -2.944365 -0.078109 0
M  V30 30 H 2.359119 -3.363433 0.668841 0
M  V30 31 H 1.768707 -1.030487 1.198277 0
M  V30 32 H 1.497497 -1.971508 2.740470 0
M  V30 33 H 0.734143 3.741075 -1.769075 0
M  V30 34 H 2.742097 4.862139 -2.526901 0
M  V30 35 H 5.029606 1.893210 -0.663117 0
M  V30 36 H 3.013794 0.712869 0.133156 0
M  V30 37 H -0.966608 2.851971 -1.170736 0
M  V30 38 H -2.954222 -1.549870 0.612284 0
M  V30 39 H -3.118037 -0.387055 2.071685 0
M  V30 40 H -3.870407 -0.076508 0.534179 0
M  V30 END ATOM
M  V30 BEGIN BOND
M  V30 1 1 1 2
M  V30 2 1 2 3
M  V30 3 1 3 4
M  V30 4 1 4 5
M  V30 5 1 5 6
M  V30 6 1 6 7
M  V30 7 1 7 8
M  V30 8 2 8 9
M  V30 9 1 9 10
M  V30 10 1 10 11
M  V30 11 2 11 12
M  V30 12 1 12 13
M  V30 13 2 13 14
M  V30 14 1 14 15
M  V30 15 2 15 16
M  V30 16 2 10 17
M  V30 17 1 17 18
M  V30 18 2 18 19
M  V30 19 1 18 20
M  V30 20 1 20 21
M  V30 21 1 7 2
M  V30 22 1 20 8
M  V30 23 1 16 11
M  V30 24 1 1 22
M  V30 25 1 1 23
M  V30 26 1 1 24
M  V30 27 1 2 25 CFG=1
M  V30 28 1 3 26
M  V30 29 1 3 27
M  V30 30 1 4 28
M  V30 31 1 5 29
M  V30 32 1 5 30
M  V30 33 1 6 31
M  V30 34 1 6 32
M  V30 35 1 12 33
M  V30 36 1 13 34
M  V30 37 1 15 35
M  V30 38 1 16 36
M  V30 39 1 17 37
M  V30 40 1 21 38
M  V30 41 1 21 39
M  V30 42 1 21 40
M  V30 END BOND
M  V30 END CTAB
M  END
>  <Dataset>  (388) 
ChEMBL_Kinases

>  <Ligand_Instance>  (388) 
nan

>  <PDB_ID>  (388) 
nan

>  <Standardized_SMILES>  (388) 
C[C@@H]1CNCCN1c1nc(-c2ccncc2)cc(=O)n1C

>  <Name>  (388) 
nan

>  <Pocket>  (388) 
nan

>  <ATP_Site>  (388) 
nan

>  <Peripheral>  (388) 
nan

>  <Num_H_Atoms_ProtBoundConf>  (388) 
nan

>  <Num_Resolved_Atoms>  (388) 
nan

>  <Num_Not_Resolved_Atoms>  (388) 
nan

$$$$
CHEMBL4800017
     RDKit          3D

  0  0  0  0  0  0  0  0  0  0999 V3000
M  V30 BEGIN CTAB
M  V30 COUNTS 56 59 0 0 0
M  V30 BEGIN ATOM
M  V30 1 C 3.951506 -0.746319 2.465252 0
M  V30 2 O 2.898842 0.050915 1.966152 0
M  V30 3 C 2.038841 0.805583 2.666707 0
M  V30 4 O 2.776151 0.296817 3.584636 0
M  V30 5 C 1.091276 1.623425 3.283837 0
M  V30 6 S 0.873917 1.969517 5.053977 0
M  V30 7 C -0.608596 3.140099 4.710682 0
M  V30 8 C -0.658725 3.052203 3.364265 0
M  V30 9 C 0.151013 2.317054 2.558803 0
M  V30 10 N -0.042437 2.360642 1.159621 0
M  V30 11 C 0.882645 2.720620 0.151260 0
M  V30 12 N 1.185172 1.596527 -0.568040 0
M  V30 13 C 2.041716 1.580134 -1.601300 0
M  V30 14 N 2.313250 0.377726 -2.356083 0
M  V30 15 C 1.497320 -0.705296 -1.881801 0
M  V30 16 C 1.679605 -1.637487 -0.886705 0
M  V30 17 C 0.709948 -2.575994 -0.621186 0
M  V30 18 C -0.479331 -2.645700 -1.314075 0
M  V30 19 N -1.453654 -3.644336 -0.998186 0
M  V30 20 C -2.847756 -3.629825 -1.397577 0
M  V30 21 C -3.627980 -3.419140 -0.097590 0
M  V30 22 N -3.524908 -4.573954 0.712337 0
M  V30 23 C -4.628688 -5.462890 0.755559 0
M  V30 24 C -2.229951 -5.119082 0.835260 0
M  V30 25 C -1.250502 -4.843404 -0.249456 0
M  V30 26 C -0.682612 -1.713446 -2.321978 0
M  V30 27 C 0.295406 -0.749161 -2.607421 0
M  V30 28 N 2.627842 2.736718 -1.936156 0
M  V30 29 C 2.409958 3.897114 -1.306005 0
M  V30 30 C 1.528576 3.865467 -0.259601 0
M  V30 31 N 1.153439 4.971516 0.529605 0 CHG=1 VAL=4
M  V30 32 O 1.070797 6.202483 0.348791 0
M  V30 33 O 0.716907 5.433216 1.727830 0 CHG=-1 VAL=1
M  V30 34 H 3.623105 -1.609249 3.060020 0
M  V30 35 H 4.741669 -0.145441 3.000201 0
M  V30 36 H 4.497633 -1.129225 1.551282 0
M  V30 37 H -1.033434 3.568005 5.572739 0
M  V30 38 H -1.499734 3.709449 3.074818 0
M  V30 39 H -1.004950 2.087562 0.798750 0
M  V30 40 H 3.021589 0.420323 -3.111913 0
M  V30 41 H 2.624505 -1.505445 -0.409591 0
M  V30 42 H 0.992835 -3.233767 0.183087 0
M  V30 43 H -3.076238 -2.776795 -2.084129 0
M  V30 44 H -3.191736 -4.586841 -1.825420 0
M  V30 45 H -4.660489 -3.098885 -0.269331 0
M  V30 46 H -3.143408 -2.577956 0.480391 0
M  V30 47 H -5.568566 -4.893087 0.630670 0
M  V30 48 H -4.575768 -6.317056 0.027203 0
M  V30 49 H -4.682447 -5.867695 1.807001 0
M  V30 50 H -2.290973 -6.226464 0.989068 0
M  V30 51 H -1.795043 -4.750201 1.812111 0
M  V30 52 H -0.233647 -4.808644 0.209669 0
M  V30 53 H -1.240853 -5.680998 -0.988709 0
M  V30 54 H -1.603464 -1.712581 -2.914527 0
M  V30 55 H 0.024279 -0.065678 -3.427692 0
M  V30 56 H 2.839653 4.863066 -1.514269 0
M  V30 END ATOM
M  V30 BEGIN BOND
M  V30 1 1 1 2
M  V30 2 1 2 3
M  V30 3 2 3 4
M  V30 4 1 3 5
M  V30 5 1 5 6
M  V30 6 1 6 7
M  V30 7 2 7 8
M  V30 8 1 8 9
M  V30 9 1 9 10
M  V30 10 1 10 11
M  V30 11 2 11 12
M  V30 12 1 12 13
M  V30 13 1 13 14
M  V30 14 1 14 15
M  V30 15 2 15 16
M  V30 16 1 16 17
M  V30 17 2 17 18
M  V30 18 1 18 19
M  V30 19 1 19 20
M  V30 20 1 20 21
M  V30 21 1 21 22
M  V30 22 1 22 23
M  V30 23 1 22 24
M  V30 24 1 24 25
M  V30 25 1 18 26
M  V30 26 2 26 27
M  V30 27 2 13 28
M  V30 28 1 28 29
M  V30 29 2 29 30
M  V30 30 1 30 31
M  V30 31 2 31 32
M  V30 32 1 31 33
M  V30 33 2 9 5
M  V30 34 1 30 11
M  V30 35 1 27 15
M  V30 36 1 25 19
M  V30 37 1 1 34
M  V30 38 1 1 35
M  V30 39 1 1 36
M  V30 40 1 7 37
M  V30 41 1 8 38
M  V30 42 1 10 39
M  V30 43 1 14 40
M  V30 44 1 16 41
M  V30 45 1 17 42
M  V30 46 1 20 43
M  V30 47 1 20 44
M  V30 48 1 21 45
M  V30 49 1 21 46
M  V30 50 1 23 47
M  V30 51 1 23 48
M  V30 52 1 23 49
M  V30 53 1 24 50
M  V30 54 1 24 51
M  V30 55 1 25 52
M  V30 56 1 25 53
M  V30 57 1 26 54
M  V30 58 1 27 55
M  V30 59 1 29 56
M  V30 END BOND
M  V30 END CTAB
M  END
>  <Dataset>  (389) 
ChEMBL_Kinases

>  <Ligand_Instance>  (389) 
nan

>  <PDB_ID>  (389) 
nan

>  <Standardized_SMILES>  (389) 
COC(=O)c1sccc1Nc1nc(Nc2ccc(N3CCN(C)CC3)cc2)ncc1[N+](=O)[O-]

>  <Name>  (389) 
nan

>  <Pocket>  (389) 
nan

>  <ATP_Site>  (389) 
nan

>  <Peripheral>  (389) 
nan

>  <Num_H_Atoms_ProtBoundConf>  (389) 
nan

>  <Num_Resolved_Atoms>  (389) 
nan

>  <Num_Not_Resolved_Atoms>  (389) 
nan

$$$$
CHEMBL4098656
     RDKit          3D

  0  0  0  0  0  0  0  0  0  0999 V3000
M  V30 BEGIN CTAB
M  V30 COUNTS 67 71 0 0 0
M  V30 BEGIN ATOM
M  V30 1 C 2.777195 0.275428 4.689095 0
M  V30 2 C 4.100122 0.896025 4.366312 0
M  V30 3 C 5.085305 0.838320 5.359745 0
M  V30 4 C 6.336219 1.363108 5.203412 0
M  V30 5 C 6.626309 1.967352 4.022880 0
M  V30 6 C 5.678877 2.053336 2.995154 0
M  V30 7 C 5.952189 2.707030 1.688424 0
M  V30 8 C 4.416078 1.522053 3.156750 0
M  V30 9 C 3.327485 1.534288 2.177559 0
M  V30 10 N 3.108869 0.280274 1.530717 0
M  V30 11 C 2.120210 0.022116 0.549253 0
M  V30 12 O 1.450505 1.081657 0.324952 0
M  V30 13 C 1.866127 -1.237494 -0.127861 0
M  V30 14 C 0.820259 -1.223214 -1.032520 0
M  V30 15 C 0.430039 -2.322934 -1.761830 0
M  V30 16 C -0.700688 -2.230521 -2.711840 0 CFG=2
M  V30 17 C -0.251291 -1.318381 -3.845773 0
M  V30 18 C -1.492741 -0.738534 -4.534009 0
M  V30 19 N -2.584837 -1.657990 -4.361938 0
M  V30 20 C -3.063627 -1.793388 -3.021828 0
M  V30 21 C -1.943899 -1.617833 -2.039461 0 CFG=1
M  V30 22 C -2.195702 -2.425431 -0.784202 0
M  V30 23 O -3.208040 -2.094585 0.019049 0
M  V30 24 C -4.505346 -1.933729 0.150730 0
M  V30 25 C -5.640722 -2.055297 -0.607940 0
M  V30 26 C -6.936067 -1.818312 -0.227370 0
M  V30 27 C -7.075818 -1.410763 1.082080 0
M  V30 28 C -6.040668 -1.241185 1.969962 0
M  V30 29 C -4.759711 -1.510990 1.475886 0
M  V30 30 O -6.585854 -0.826994 3.176222 0
M  V30 31 C -7.901056 -0.371363 2.933369 0
M  V30 32 O -8.253351 -1.095049 1.760580 0
M  V30 33 C 1.114573 -3.524867 -1.592584 0
M  V30 34 C 2.157598 -3.573320 -0.702451 0
M  V30 35 C 2.495372 -2.435989 -0.005512 0
M  V30 36 F 3.518271 -2.489270 0.863473 0
M  V30 37 H 2.357632 -0.176225 3.750557 0
M  V30 38 H 2.087373 0.946943 5.193843 0
M  V30 39 H 2.962626 -0.617017 5.352116 0
M  V30 40 H 4.869674 0.354387 6.320364 0
M  V30 41 H 7.073311 1.299487 5.998167 0
M  V30 42 H 7.611010 2.404975 3.839721 0
M  V30 43 H 7.071217 2.825310 1.642332 0
M  V30 44 H 5.558381 3.731134 1.632895 0
M  V30 45 H 5.696843 2.074511 0.820454 0
M  V30 46 H 3.456069 2.330994 1.388317 0
M  V30 47 H 2.357668 1.802071 2.680789 0
M  V30 48 H 3.739793 -0.494800 1.819500 0
M  V30 49 H 0.238723 -0.306240 -1.214916 0
M  V30 50 H -0.891451 -3.218502 -3.135946 0
M  V30 51 H 0.420491 -0.522212 -3.530223 0
M  V30 52 H 0.270174 -1.954060 -4.583302 0
M  V30 53 H -1.731387 0.198751 -4.006174 0
M  V30 54 H -1.294897 -0.567103 -5.604075 0
M  V30 55 H -3.345058 -1.540348 -5.045261 0
M  V30 56 H -3.547456 -2.794348 -2.932367 0
M  V30 57 H -3.867868 -1.046962 -2.835102 0
M  V30 58 H -1.736491 -0.581285 -1.776285 0
M  V30 59 H -2.191060 -3.505189 -1.116469 0
M  V30 60 H -1.216487 -2.326405 -0.202436 0
M  V30 61 H -5.445460 -2.380635 -1.602581 0
M  V30 62 H -7.726387 -1.960935 -0.946836 0
M  V30 63 H -4.011355 -1.342173 2.272798 0
M  V30 64 H -7.895361 0.727844 2.740437 0
M  V30 65 H -8.606729 -0.597868 3.762222 0
M  V30 66 H 0.794940 -4.379759 -2.173686 0
M  V30 67 H 2.710101 -4.478111 -0.542568 0
M  V30 END ATOM
M  V30 BEGIN BOND
M  V30 1 1 1 2
M  V30 2 2 2 3
M  V30 3 1 3 4
M  V30 4 2 4 5
M  V30 5 1 5 6
M  V30 6 1 6 7
M  V30 7 2 6 8
M  V30 8 1 8 9
M  V30 9 1 9 10
M  V30 10 1 10 11
M  V30 11 2 11 12
M  V30 12 1 11 13
M  V30 13 2 13 14
M  V30 14 1 14 15
M  V30 15 1 15 16
M  V30 16 1 16 17
M  V30 17 1 17 18
M  V30 18 1 18 19
M  V30 19 1 19 20
M  V30 20 1 20 21
M  V30 21 1 21 22
M  V30 22 1 22 23
M  V30 23 1 23 24
M  V30 24 2 24 25
M  V30 25 1 25 26
M  V30 26 2 26 27
M  V30 27 1 27 28
M  V30 28 2 28 29
M  V30 29 1 28 30
M  V30 30 1 30 31
M  V30 31 1 31 32
M  V30 32 2 15 33
M  V30 33 1 33 34
M  V30 34 2 34 35
M  V30 35 1 35 36
M  V30 36 1 8 2
M  V30 37 1 35 13
M  V30 38 1 21 16
M  V30 39 1 29 24
M  V30 40 1 32 27
M  V30 41 1 1 37
M  V30 42 1 1 38
M  V30 43 1 1 39
M  V30 44 1 3 40
M  V30 45 1 4 41
M  V30 46 1 5 42
M  V30 47 1 7 43
M  V30 48 1 7 44
M  V30 49 1 7 45
M  V30 50 1 9 46
M  V30 51 1 9 47
M  V30 52 1 10 48
M  V30 53 1 14 49
M  V30 54 1 16 50 CFG=3
M  V30 55 1 17 51
M  V30 56 1 17 52
M  V30 57 1 18 53
M  V30 58 1 18 54
M  V30 59 1 19 55
M  V30 60 1 20 56
M  V30 61 1 20 57
M  V30 62 1 21 58 CFG=1
M  V30 63 1 22 59
M  V30 64 1 22 60
M  V30 65 1 25 61
M  V30 66 1 26 62
M  V30 67 1 29 63
M  V30 68 1 31 64
M  V30 69 1 31 65
M  V30 70 1 33 66
M  V30 71 1 34 67
M  V30 END BOND
M  V30 END CTAB
M  END
>  <Dataset>  (390) 
ChEMBL_Kinases

>  <Ligand_Instance>  (390) 
nan

>  <PDB_ID>  (390) 
nan

>  <Standardized_SMILES>  (390) 
Cc1cccc(C)c1CNC(=O)c1cc([C@@H]2CCNC[C@H]2COc2ccc3c(c2)OCO3)ccc1F

>  <Name>  (390) 
nan

>  <Pocket>  (390) 
nan

>  <ATP_Site>  (390) 
nan

>  <Peripheral>  (390) 
nan

>  <Num_H_Atoms_ProtBoundConf>  (390) 
nan

>  <Num_Resolved_Atoms>  (390) 
nan

>  <Num_Not_Resolved_Atoms>  (390) 
nan

$$$$
CHEMBL4099230
     RDKit          3D

  0  0  0  0  0  0  0  0  0  0999 V3000
M  V30 BEGIN CTAB
M  V30 COUNTS 24 26 0 0 0
M  V30 BEGIN ATOM
M  V30 1 O 0.212775 -4.448383 0.783110 0
M  V30 2 C 1.068600 -3.572953 1.066697 0
M  V30 3 N 2.295261 -3.838090 1.718000 0
M  V30 4 C 3.185558 -2.770497 1.987340 0
M  V30 5 S 4.719577 -2.812294 2.528111 0
M  V30 6 S 2.236230 -1.302269 1.596512 0
M  V30 7 C 0.906923 -2.161627 0.760849 0
M  V30 8 C 0.044708 -1.538403 0.022660 0
M  V30 9 C -0.102367 -0.126810 -0.267555 0
M  V30 10 C -0.237344 0.395271 -1.547473 0
M  V30 11 N -0.374225 1.740552 -1.491175 0
M  V30 12 C -0.336775 2.162499 -0.195631 0
M  V30 13 N -0.434492 3.366582 0.386440 0
M  V30 14 C -0.373888 3.486647 1.721056 0
M  V30 15 C -0.208452 2.350385 2.514704 0
M  V30 16 C -0.111019 1.129098 1.887996 0
M  V30 17 C -0.170917 0.998414 0.521221 0
M  V30 18 H 2.589195 -4.809627 2.019655 0
M  V30 19 H -0.708823 -2.159372 -0.473233 0
M  V30 20 H -0.249145 -0.083166 -2.517330 0
M  V30 21 H -0.494496 2.423583 -2.280394 0
M  V30 22 H -0.445773 4.437163 2.271651 0
M  V30 23 H -0.158449 2.440545 3.607401 0
M  V30 24 H -0.000523 0.284497 2.533400 0
M  V30 END ATOM
M  V30 BEGIN BOND
M  V30 1 2 1 2
M  V30 2 1 2 3
M  V30 3 1 3 4
M  V30 4 2 4 5
M  V30 5 1 4 6
M  V30 6 1 6 7
M  V30 7 2 7 8
M  V30 8 1 8 9
M  V30 9 2 9 10
M  V30 10 1 10 11
M  V30 11 1 11 12
M  V30 12 2 12 13
M  V30 13 1 13 14
M  V30 14 2 14 15
M  V30 15 1 15 16
M  V30 16 2 16 17
M  V30 17 1 7 2
M  V30 18 1 17 9
M  V30 19 1 17 12
M  V30 20 1 3 18
M  V30 21 1 8 19
M  V30 22 1 10 20
M  V30 23 1 11 21
M  V30 24 1 14 22
M  V30 25 1 15 23
M  V30 26 1 16 24
M  V30 END BOND
M  V30 END CTAB
M  END
>  <Dataset>  (391) 
ChEMBL_Kinases

>  <Ligand_Instance>  (391) 
nan

>  <PDB_ID>  (391) 
nan

>  <Standardized_SMILES>  (391) 
O=C1NC(=S)S/C1=C\c1c[nH]c2ncccc12

>  <Name>  (391) 
nan

>  <Pocket>  (391) 
nan

>  <ATP_Site>  (391) 
nan

>  <Peripheral>  (391) 
nan

>  <Num_H_Atoms_ProtBoundConf>  (391) 
nan

>  <Num_Resolved_Atoms>  (391) 
nan

>  <Num_Not_Resolved_Atoms>  (391) 
nan

$$$$
CHEMBL480385
     RDKit          3D

  0  0  0  0  0  0  0  0  0  0999 V3000
M  V30 BEGIN CTAB
M  V30 COUNTS 58 64 0 0 0
M  V30 BEGIN ATOM
M  V30 1 C 5.905062 -0.598740 2.031071 0
M  V30 2 N 5.949035 0.505548 2.936147 0
M  V30 3 C 6.523894 1.709845 2.398415 0
M  V30 4 C 5.517357 2.643690 1.814252 0
M  V30 5 N 4.280737 1.982630 1.445629 0
M  V30 6 C 3.741221 1.798008 0.145931 0
M  V30 7 C 4.479068 2.274479 -0.902427 0
M  V30 8 C 4.033936 2.138592 -2.213443 0
M  V30 9 C 2.836034 1.521399 -2.516366 0
M  V30 10 C 2.116620 1.053557 -1.452791 0
M  V30 11 N 0.943307 0.415509 -1.317175 0
M  V30 12 C 0.613138 0.142245 -0.077506 0
M  V30 13 C -0.490256 -0.501041 0.612328 0
M  V30 14 N -0.618156 -0.675028 1.958993 0
M  V30 15 N -1.738981 -1.296508 2.258042 0
M  V30 16 C -2.447118 -1.587474 1.151527 0
M  V30 17 C -3.651576 -2.209112 0.889907 0
M  V30 18 C -4.111915 -2.352585 -0.404272 0
M  V30 19 C -5.395381 -3.020612 -0.610686 0
M  V30 20 C -6.184005 -2.648069 -1.682075 0
M  V30 21 C -7.409029 -3.257205 -1.912518 0
M  V30 22 C -7.811532 -4.256737 -1.023305 0
M  V30 23 C -8.915877 -5.060483 -0.923573 0
M  V30 24 N -8.841732 -5.884044 0.129081 0
M  V30 25 N -7.671438 -5.604947 0.714658 0
M  V30 26 C -7.006830 -4.627075 0.058013 0
M  V30 27 C -5.802283 -4.009280 0.261833 0
M  V30 28 C -3.328514 -1.854297 -1.426689 0
M  V30 29 C -2.132068 -1.239856 -1.127202 0
M  V30 30 C -1.646969 -1.081765 0.148986 0
M  V30 31 N 1.645472 0.639911 0.620840 0
M  V30 32 C 2.555411 1.187208 -0.156817 0
M  V30 33 C 3.716112 1.545145 2.707899 0
M  V30 34 C 4.680119 0.744834 3.550748 0
M  V30 35 H 5.588901 -0.259812 1.032631 0
M  V30 36 H 5.099412 -1.286376 2.418765 0
M  V30 37 H 6.866345 -1.157282 1.957816 0
M  V30 38 H 7.252798 1.400975 1.619501 0
M  V30 39 H 7.094681 2.208655 3.196593 0
M  V30 40 H 5.334484 3.446745 2.590937 0
M  V30 41 H 5.989718 3.138044 0.951698 0
M  V30 42 H 5.424689 2.779020 -0.905555 0
M  V30 43 H 4.570815 2.495432 -3.106582 0
M  V30 44 H 2.433842 1.383491 -3.509189 0
M  V30 45 H 0.378245 0.177611 -2.142193 0
M  V30 46 H -2.010322 -1.518639 3.242801 0
M  V30 47 H -4.189885 -2.565818 1.770381 0
M  V30 48 H -5.911377 -1.877124 -2.397796 0
M  V30 49 H -8.085396 -3.023459 -2.728016 0
M  V30 50 H -9.738500 -5.008845 -1.634553 0
M  V30 51 H -7.366030 -6.121506 1.579320 0
M  V30 52 H -5.183767 -4.305841 1.107236 0
M  V30 53 H -3.725443 -1.987375 -2.423795 0
M  V30 54 H -1.601665 -0.888911 -1.990019 0
M  V30 55 H 3.486939 2.482911 3.302883 0
M  V30 56 H 2.746408 1.038141 2.617336 0
M  V30 57 H 4.214137 -0.277722 3.682206 0
M  V30 58 H 4.742712 1.152089 4.567406 0
M  V30 END ATOM
M  V30 BEGIN BOND
M  V30 1 1 1 2
M  V30 2 1 2 3
M  V30 3 1 3 4
M  V30 4 1 4 5
M  V30 5 1 5 6
M  V30 6 2 6 7
M  V30 7 1 7 8
M  V30 8 2 8 9
M  V30 9 1 9 10
M  V30 10 1 10 11
M  V30 11 1 11 12
M  V30 12 1 12 13
M  V30 13 2 13 14
M  V30 14 1 14 15
M  V30 15 1 15 16
M  V30 16 2 16 17
M  V30 17 1 17 18
M  V30 18 1 18 19
M  V30 19 2 19 20
M  V30 20 1 20 21
M  V30 21 2 21 22
M  V30 22 1 22 23
M  V30 23 2 23 24
M  V30 24 1 24 25
M  V30 25 1 25 26
M  V30 26 2 26 27
M  V30 27 2 18 28
M  V30 28 1 28 29
M  V30 29 2 29 30
M  V30 30 2 12 31
M  V30 31 1 31 32
M  V30 32 1 5 33
M  V30 33 1 33 34
M  V30 34 1 34 2
M  V30 35 1 32 6
M  V30 36 2 32 10
M  V30 37 1 30 13
M  V30 38 1 30 16
M  V30 39 1 27 19
M  V30 40 1 26 22
M  V30 41 1 1 35
M  V30 42 1 1 36
M  V30 43 1 1 37
M  V30 44 1 3 38
M  V30 45 1 3 39
M  V30 46 1 4 40
M  V30 47 1 4 41
M  V30 48 1 7 42
M  V30 49 1 8 43
M  V30 50 1 9 44
M  V30 51 1 11 45
M  V30 52 1 15 46
M  V30 53 1 17 47
M  V30 54 1 20 48
M  V30 55 1 21 49
M  V30 56 1 23 50
M  V30 57 1 25 51
M  V30 58 1 27 52
M  V30 59 1 28 53
M  V30 60 1 29 54
M  V30 61 1 33 55
M  V30 62 1 33 56
M  V30 63 1 34 57
M  V30 64 1 34 58
M  V30 END BOND
M  V30 END CTAB
M  END
>  <Dataset>  (392) 
ChEMBL_Kinases

>  <Ligand_Instance>  (392) 
nan

>  <PDB_ID>  (392) 
nan

>  <Standardized_SMILES>  (392) 
CN1CCN(c2cccc3[nH]c(-c4n[nH]c5cc(-c6ccc7cn[nH]c7c6)ccc45)nc23)CC1

>  <Name>  (392) 
nan

>  <Pocket>  (392) 
nan

>  <ATP_Site>  (392) 
nan

>  <Peripheral>  (392) 
nan

>  <Num_H_Atoms_ProtBoundConf>  (392) 
nan

>  <Num_Resolved_Atoms>  (392) 
nan

>  <Num_Not_Resolved_Atoms>  (392) 
nan

$$$$
CHEMBL480442
     RDKit          3D

  0  0  0  0  0  0  0  0  0  0999 V3000
M  V30 BEGIN CTAB
M  V30 COUNTS 55 57 0 0 0
M  V30 BEGIN ATOM
M  V30 1 C -0.261856 -4.193323 3.729225 0
M  V30 2 C 0.271443 -2.838127 3.962801 0
M  V30 3 C -0.948825 -1.900468 4.151605 0
M  V30 4 C 1.218059 -2.229139 3.024327 0
M  V30 5 C 2.461167 -1.699467 3.250507 0
M  V30 6 N 2.699758 -1.081991 2.054739 0
M  V30 7 N 1.730872 -1.221849 1.208392 0
M  V30 8 C 1.653207 -0.709701 -0.057204 0
M  V30 9 N 2.685537 0.268988 -0.401944 0
M  V30 10 C 2.003136 1.372527 0.172897 0
M  V30 11 C 2.628748 2.666398 0.368158 0
M  V30 12 C 2.587271 3.718800 -0.545243 0
M  V30 13 C 3.115618 4.892062 -0.040576 0
M  V30 14 C 3.648108 5.096813 1.216342 0
M  V30 15 Cl 4.248941 6.645243 1.762099 0
M  V30 16 C 3.666448 4.044858 2.061507 0
M  V30 17 C 3.154636 2.791041 1.660396 0
M  V30 18 N 0.556761 -0.963892 -0.774518 0
M  V30 19 C -0.443214 -1.685806 -0.257190 0
M  V30 20 N -1.699159 -2.068170 -0.759069 0
M  V30 21 C -2.934833 -2.439245 -1.251527 0 CFG=1
M  V30 22 C -4.143031 -1.937012 -0.438457 0
M  V30 23 O -5.354960 -2.305551 -0.986633 0
M  V30 24 C -3.138882 -2.171253 -2.708615 0
M  V30 25 C -2.078968 -2.987711 -3.478596 0
M  V30 26 C -2.874339 -0.699626 -3.087597 0
M  V30 27 N -0.297570 -2.148980 0.989842 0
M  V30 28 C 0.726051 -1.975203 1.790195 0
M  V30 29 H -0.570441 -4.613863 4.760524 0
M  V30 30 H 0.487261 -4.927255 3.339845 0
M  V30 31 H -1.176673 -4.165764 3.152980 0
M  V30 32 H 0.759972 -2.765459 4.993738 0
M  V30 33 H -0.950218 -1.319521 3.177137 0
M  V30 34 H -1.887155 -2.451339 4.122245 0
M  V30 35 H -0.775385 -1.198022 4.950527 0
M  V30 36 H 2.973672 -1.832452 4.184451 0
M  V30 37 H 3.611605 0.146581 -0.910713 0
M  V30 38 H 1.054163 1.514813 -0.492587 0
M  V30 39 H 1.470123 1.039005 1.131751 0
M  V30 40 H 2.171552 3.565383 -1.534844 0
M  V30 41 H 3.110221 5.737741 -0.693912 0
M  V30 42 H 4.075221 4.160321 3.046039 0
M  V30 43 H 3.203644 2.009530 2.414952 0
M  V30 44 H -2.059093 -1.065783 -0.539856 0
M  V30 45 H -3.062985 -3.599061 -1.113292 0
M  V30 46 H -4.094078 -0.853688 -0.357767 0
M  V30 47 H -4.078175 -2.327555 0.626411 0
M  V30 48 H -5.289597 -3.303745 -1.104528 0
M  V30 49 H -4.156458 -2.386875 -3.054658 0
M  V30 50 H -1.652900 -2.420546 -4.321676 0
M  V30 51 H -1.249420 -3.217194 -2.794970 0
M  V30 52 H -2.567370 -3.923552 -3.848847 0
M  V30 53 H -3.563351 -0.341529 -3.857549 0
M  V30 54 H -1.847003 -0.616566 -3.550985 0
M  V30 55 H -2.872175 -0.024757 -2.233037 0
M  V30 END ATOM
M  V30 BEGIN BOND
M  V30 1 1 1 2
M  V30 2 1 2 3
M  V30 3 1 2 4
M  V30 4 1 4 5
M  V30 5 2 5 6
M  V30 6 1 6 7
M  V30 7 1 7 8
M  V30 8 1 8 9
M  V30 9 1 9 10
M  V30 10 1 10 11
M  V30 11 2 11 12
M  V30 12 1 12 13
M  V30 13 2 13 14
M  V30 14 1 14 15
M  V30 15 1 14 16
M  V30 16 2 16 17
M  V30 17 2 8 18
M  V30 18 1 18 19
M  V30 19 1 19 20
M  V30 20 1 20 21
M  V30 21 1 21 22
M  V30 22 1 22 23
M  V30 23 1 21 24
M  V30 24 1 24 25
M  V30 25 1 24 26
M  V30 26 2 19 27
M  V30 27 1 27 28
M  V30 28 2 28 4
M  V30 29 1 28 7
M  V30 30 1 17 11
M  V30 31 1 1 29
M  V30 32 1 1 30
M  V30 33 1 1 31
M  V30 34 1 2 32
M  V30 35 1 3 33
M  V30 36 1 3 34
M  V30 37 1 3 35
M  V30 38 1 5 36
M  V30 39 1 9 37
M  V30 40 1 10 38
M  V30 41 1 10 39
M  V30 42 1 12 40
M  V30 43 1 13 41
M  V30 44 1 16 42
M  V30 45 1 17 43
M  V30 46 1 20 44
M  V30 47 1 21 45 CFG=3
M  V30 48 1 22 46
M  V30 49 1 22 47
M  V30 50 1 23 48
M  V30 51 1 24 49
M  V30 52 1 25 50
M  V30 53 1 25 51
M  V30 54 1 25 52
M  V30 55 1 26 53
M  V30 56 1 26 54
M  V30 57 1 26 55
M  V30 END BOND
M  V30 END CTAB
M  END
>  <Dataset>  (393) 
ChEMBL_Kinases

>  <Ligand_Instance>  (393) 
nan

>  <PDB_ID>  (393) 
nan

>  <Standardized_SMILES>  (393) 
CC(C)c1cnn2c(NCc3ccc(Cl)cc3)nc(N[C@@H](CO)C(C)C)nc12

>  <Name>  (393) 
nan

>  <Pocket>  (393) 
nan

>  <ATP_Site>  (393) 
nan

>  <Peripheral>  (393) 
nan

>  <Num_H_Atoms_ProtBoundConf>  (393) 
nan

>  <Num_Resolved_Atoms>  (393) 
nan

>  <Num_Not_Resolved_Atoms>  (393) 
nan

$$$$
CHEMBL480581
     RDKit          3D

  0  0  0  0  0  0  0  0  0  0999 V3000
M  V30 BEGIN CTAB
M  V30 COUNTS 50 54 0 0 0
M  V30 BEGIN ATOM
M  V30 1 C 0.364322 -3.720080 4.731321 0
M  V30 2 C 0.507956 -3.551793 3.266827 0
M  V30 3 N 0.195269 -2.416879 2.606350 0
M  V30 4 C 0.344594 -2.315481 1.255839 0
M  V30 5 C 0.052307 -1.138665 0.455563 0
M  V30 6 N 1.094227 -0.312799 0.138956 0
M  V30 7 C 0.646217 0.718409 -0.621303 0
M  V30 8 N 1.595498 1.723237 -1.059396 0
M  V30 9 C 2.696986 1.499863 -2.011128 0
M  V30 10 C 3.953362 1.611716 -1.199873 0
M  V30 11 N 3.818848 2.231286 0.072289 0
M  V30 12 C 3.770811 1.335654 1.186446 0
M  V30 13 C 2.905724 3.328221 0.168768 0
M  V30 14 C 1.676249 3.145625 -0.682481 0
M  V30 15 N -0.670903 0.566524 -0.796435 0
M  V30 16 C -1.022113 -0.559015 -0.140927 0
M  V30 17 C -2.369109 -1.102042 -0.052984 0
M  V30 18 C -2.830176 -2.319324 -0.456843 0
M  V30 19 C -4.144808 -2.657947 -0.299561 0
M  V30 20 C -5.027098 -1.768520 0.271177 0
M  V30 21 N -6.336947 -1.797241 0.558001 0
M  V30 22 C -6.709955 -0.640223 1.126110 0
M  V30 23 N -5.592814 0.135119 1.195260 0
M  V30 24 N -4.561970 -0.552015 0.673594 0
M  V30 25 C -3.253436 -0.176141 0.534394 0
M  V30 26 C 0.835697 -3.429243 0.560682 0
M  V30 27 C 1.170262 -4.616786 1.200795 0
M  V30 28 C 0.994244 -4.655144 2.581537 0
M  V30 29 F 1.329077 -5.825939 3.180486 0
M  V30 30 H 1.323206 -4.092548 5.182497 0
M  V30 31 H 0.168035 -2.716512 5.168696 0
M  V30 32 H -0.399713 -4.476870 5.011683 0
M  V30 33 H 2.709018 2.279655 -2.800238 0
M  V30 34 H 2.627952 0.479210 -2.452850 0
M  V30 35 H 4.730003 2.150811 -1.826253 0
M  V30 36 H 4.399516 0.592513 -1.043738 0
M  V30 37 H 3.899853 0.296053 0.778861 0
M  V30 38 H 2.767829 1.400239 1.670285 0
M  V30 39 H 4.562176 1.470547 1.943090 0
M  V30 40 H 2.569310 3.367217 1.231278 0
M  V30 41 H 3.417841 4.243267 -0.157814 0
M  V30 42 H 1.736272 3.794304 -1.580692 0
M  V30 43 H 0.796666 3.449932 -0.090602 0
M  V30 44 H -1.226088 1.243595 -1.348272 0
M  V30 45 H -2.086622 -2.972787 -0.900307 0
M  V30 46 H -4.504473 -3.612749 -0.615704 0
M  V30 47 H -7.587275 -0.157325 1.529480 0
M  V30 48 H -2.990188 0.834133 0.889890 0
M  V30 49 H 0.996586 -3.459447 -0.531586 0
M  V30 50 H 1.559295 -5.495052 0.668095 0
M  V30 END ATOM
M  V30 BEGIN BOND
M  V30 1 1 1 2
M  V30 2 2 2 3
M  V30 3 1 3 4
M  V30 4 1 4 5
M  V30 5 1 5 6
M  V30 6 2 6 7
M  V30 7 1 7 8
M  V30 8 1 8 9
M  V30 9 1 9 10
M  V30 10 1 10 11
M  V30 11 1 11 12
M  V30 12 1 11 13
M  V30 13 1 13 14
M  V30 14 1 7 15
M  V30 15 1 15 16
M  V30 16 1 16 17
M  V30 17 1 17 18
M  V30 18 2 18 19
M  V30 19 1 19 20
M  V30 20 2 20 21
M  V30 21 1 21 22
M  V30 22 2 22 23
M  V30 23 1 23 24
M  V30 24 1 24 25
M  V30 25 2 4 26
M  V30 26 1 26 27
M  V30 27 2 27 28
M  V30 28 1 28 29
M  V30 29 1 28 2
M  V30 30 2 16 5
M  V30 31 2 25 17
M  V30 32 1 14 8
M  V30 33 1 24 20
M  V30 34 1 1 30
M  V30 35 1 1 31
M  V30 36 1 1 32
M  V30 37 1 9 33
M  V30 38 1 9 34
M  V30 39 1 10 35
M  V30 40 1 10 36
M  V30 41 1 12 37
M  V30 42 1 12 38
M  V30 43 1 12 39
M  V30 44 1 13 40
M  V30 45 1 13 41
M  V30 46 1 14 42
M  V30 47 1 14 43
M  V30 48 1 15 44
M  V30 49 1 18 45
M  V30 50 1 19 46
M  V30 51 1 22 47
M  V30 52 1 25 48
M  V30 53 1 26 49
M  V30 54 1 27 50
M  V30 END BOND
M  V30 END CTAB
M  END
>  <Dataset>  (394) 
ChEMBL_Kinases

>  <Ligand_Instance>  (394) 
nan

>  <PDB_ID>  (394) 
nan

>  <Standardized_SMILES>  (394) 
Cc1nc(-c2nc(N3CCN(C)CC3)[nH]c2-c2ccc3ncnn3c2)ccc1F

>  <Name>  (394) 
nan

>  <Pocket>  (394) 
nan

>  <ATP_Site>  (394) 
nan

>  <Peripheral>  (394) 
nan

>  <Num_H_Atoms_ProtBoundConf>  (394) 
nan

>  <Num_Resolved_Atoms>  (394) 
nan

>  <Num_Not_Resolved_Atoms>  (394) 
nan

$$$$
CHEMBL4097361
     RDKit          3D

  0  0  0  0  0  0  0  0  0  0999 V3000
M  V30 BEGIN CTAB
M  V30 COUNTS 56 59 0 0 0
M  V30 BEGIN ATOM
M  V30 1 C 2.613986 -0.157034 8.435946 0
M  V30 2 O 2.059271 -0.772424 7.311976 0
M  V30 3 C 2.292980 -0.340258 6.026872 0
M  V30 4 C 1.869226 -0.769773 4.757633 0
M  V30 5 C 2.342590 -0.047804 3.711106 0
M  V30 6 C 3.150840 0.998221 3.847924 0
M  V30 7 C 3.869713 1.934495 3.040646 0
M  V30 8 C 4.943757 2.642107 3.600964 0
M  V30 9 C 5.710686 3.571084 2.932919 0
M  V30 10 N 5.403169 3.813079 1.652993 0
M  V30 11 C 4.397950 3.197309 1.018223 0
M  V30 12 C 3.669354 2.284687 1.733465 0
M  V30 13 C 2.521811 1.717734 1.051848 0
M  V30 14 C 2.181663 1.849152 -0.224619 0
M  V30 15 C 1.051943 1.321060 -1.002271 0
M  V30 16 O 0.958761 1.599112 -2.220422 0
M  V30 17 N 0.029430 0.508005 -0.503681 0
M  V30 18 C -1.110588 -0.075509 -1.105400 0
M  V30 19 C -1.984088 -0.853350 -0.376082 0
M  V30 20 C -3.102634 -1.440072 -0.914489 0
M  V30 21 C -3.413238 -1.273755 -2.248254 0
M  V30 22 C -4.627737 -1.931178 -2.730813 0
M  V30 23 N -4.488943 -3.271297 -3.184309 0
M  V30 24 C -3.608629 -3.503326 -4.275414 0
M  V30 25 C -2.574895 -4.584220 -3.966329 0
M  V30 26 O -3.155124 -5.761708 -3.546432 0
M  V30 27 C -4.309886 -5.614300 -2.814104 0
M  V30 28 C -4.376692 -4.258746 -2.138967 0
M  V30 29 C -2.575492 -0.504807 -3.029632 0
M  V30 30 C -1.471822 0.053661 -2.425183 0
M  V30 31 S 3.359007 1.095057 5.613266 0
M  V30 32 H 1.873971 0.550085 8.868849 0
M  V30 33 H 2.873699 -0.965780 9.162175 0
M  V30 34 H 3.507922 0.453185 8.191902 0
M  V30 35 H 1.221588 -1.623821 4.827847 0
M  V30 36 H 2.022182 -0.433728 2.770236 0
M  V30 37 H 5.275256 2.515183 4.637399 0
M  V30 38 H 6.527760 4.090780 3.402623 0
M  V30 39 H 4.310585 3.524984 0.005237 0
M  V30 40 H 1.703676 1.125033 1.387476 0
M  V30 41 H 2.877946 2.472529 -0.829068 0
M  V30 42 H 0.133435 0.287349 0.531405 0
M  V30 43 H -1.795017 -1.026682 0.695075 0
M  V30 44 H -3.737759 -2.037354 -0.270168 0
M  V30 45 H -5.383985 -1.956384 -1.893673 0
M  V30 46 H -5.121424 -1.353368 -3.541659 0
M  V30 47 H -3.071300 -2.647151 -4.675659 0
M  V30 48 H -4.215099 -3.949416 -5.117924 0
M  V30 49 H -1.800511 -4.257457 -3.273964 0
M  V30 50 H -2.079285 -4.792175 -4.954700 0
M  V30 51 H -4.432595 -6.443347 -2.094897 0
M  V30 52 H -5.171750 -5.637604 -3.540996 0
M  V30 53 H -5.325247 -4.277720 -1.537809 0
M  V30 54 H -3.513757 -4.118522 -1.484810 0
M  V30 55 H -2.809312 -0.364515 -4.071791 0
M  V30 56 H -0.873840 0.634830 -3.099642 0
M  V30 END ATOM
M  V30 BEGIN BOND
M  V30 1 1 1 2
M  V30 2 1 2 3
M  V30 3 2 3 4
M  V30 4 1 4 5
M  V30 5 2 5 6
M  V30 6 1 6 7
M  V30 7 2 7 8
M  V30 8 1 8 9
M  V30 9 2 9 10
M  V30 10 1 10 11
M  V30 11 2 11 12
M  V30 12 1 12 13
M  V30 13 2 13 14
M  V30 14 1 14 15
M  V30 15 2 15 16
M  V30 16 1 15 17
M  V30 17 1 17 18
M  V30 18 2 18 19
M  V30 19 1 19 20
M  V30 20 2 20 21
M  V30 21 1 21 22
M  V30 22 1 22 23
M  V30 23 1 23 24
M  V30 24 1 24 25
M  V30 25 1 25 26
M  V30 26 1 26 27
M  V30 27 1 27 28
M  V30 28 1 21 29
M  V30 29 2 29 30
M  V30 30 1 6 31
M  V30 31 1 31 3
M  V30 32 1 12 7
M  V30 33 1 30 18
M  V30 34 1 28 23
M  V30 35 1 1 32
M  V30 36 1 1 33
M  V30 37 1 1 34
M  V30 38 1 4 35
M  V30 39 1 5 36
M  V30 40 1 8 37
M  V30 41 1 9 38
M  V30 42 1 11 39
M  V30 43 1 13 40
M  V30 44 1 14 41
M  V30 45 1 17 42
M  V30 46 1 19 43
M  V30 47 1 20 44
M  V30 48 1 22 45
M  V30 49 1 22 46
M  V30 50 1 24 47
M  V30 51 1 24 48
M  V30 52 1 25 49
M  V30 53 1 25 50
M  V30 54 1 27 51
M  V30 55 1 27 52
M  V30 56 1 28 53
M  V30 57 1 28 54
M  V30 58 1 29 55
M  V30 59 1 30 56
M  V30 END BOND
M  V30 END CTAB
M  END
>  <Dataset>  (395) 
ChEMBL_Kinases

>  <Ligand_Instance>  (395) 
nan

>  <PDB_ID>  (395) 
nan

>  <Standardized_SMILES>  (395) 
COc1ccc(-c2ccncc2/C=C/C(=O)Nc2ccc(CN3CCOCC3)cc2)s1

>  <Name>  (395) 
nan

>  <Pocket>  (395) 
nan

>  <ATP_Site>  (395) 
nan

>  <Peripheral>  (395) 
nan

>  <Num_H_Atoms_ProtBoundConf>  (395) 
nan

>  <Num_Resolved_Atoms>  (395) 
nan

>  <Num_Not_Resolved_Atoms>  (395) 
nan

$$$$
CHEMBL480582
     RDKit          3D

  0  0  0  0  0  0  0  0  0  0999 V3000
M  V30 BEGIN CTAB
M  V30 COUNTS 52 56 0 0 0
M  V30 BEGIN ATOM
M  V30 1 C 2.875822 -3.659176 3.014620 0
M  V30 2 C 2.357020 -4.303776 1.787425 0
M  V30 3 O 1.447655 -5.167904 1.851913 0
M  V30 4 N 2.911335 -3.922625 0.534456 0
M  V30 5 C 3.955770 -2.957777 0.228729 0
M  V30 6 C 3.453131 -1.862546 -0.721402 0
M  V30 7 N 2.060329 -2.165986 -0.990762 0
M  V30 8 C 1.019606 -1.245650 -0.683765 0
M  V30 9 N 1.216284 -0.035958 -0.129049 0
M  V30 10 C 0.002902 0.572718 0.023815 0
M  V30 11 C -0.133309 1.904811 0.600852 0
M  V30 12 C -0.573011 3.098854 0.054699 0
M  V30 13 C -0.604388 4.219366 0.830901 0
M  V30 14 C -0.211584 4.203973 2.146272 0
M  V30 15 F -0.280185 5.371481 2.833273 0
M  V30 16 C 0.222473 3.007118 2.670980 0
M  V30 17 C 0.650085 2.998326 4.108759 0
M  V30 18 N 0.249864 1.906811 1.897359 0
M  V30 19 C -0.901504 -0.318463 -0.457897 0
M  V30 20 C -2.341729 -0.092928 -0.496481 0
M  V30 21 C -3.095533 0.828644 -1.207960 0
M  V30 22 C -4.465114 0.817906 -1.046045 0
M  V30 23 C -5.086430 -0.079363 -0.202483 0
M  V30 24 N -6.388531 -0.251829 0.091505 0
M  V30 25 C -6.477601 -1.266281 0.976829 0
M  V30 26 N -5.225658 -1.687021 1.200421 0
M  V30 27 N -4.348036 -0.988436 0.499741 0
M  V30 28 C -3.010931 -0.987196 0.349739 0
M  V30 29 N -0.286122 -1.450483 -0.900100 0
M  V30 30 C 1.787818 -3.458796 -1.589527 0
M  V30 31 C 2.466622 -4.499149 -0.719895 0
M  V30 32 H 2.545758 -4.241163 3.913697 0
M  V30 33 H 2.471113 -2.621816 3.104611 0
M  V30 34 H 3.978820 -3.609735 3.023781 0
M  V30 35 H 4.825859 -3.493601 -0.216253 0
M  V30 36 H 4.306042 -2.517648 1.191555 0
M  V30 37 H 4.038343 -1.874259 -1.664927 0
M  V30 38 H 3.600725 -0.903921 -0.221983 0
M  V30 39 H -0.849724 2.974587 -0.984723 0
M  V30 40 H -0.963167 5.098396 0.310760 0
M  V30 41 H 0.123058 3.757184 4.696714 0
M  V30 42 H 0.418668 1.952877 4.468762 0
M  V30 43 H 1.759045 3.064294 4.139961 0
M  V30 44 H -2.489052 1.451309 -1.814953 0
M  V30 45 H -4.979623 1.571764 -1.639058 0
M  V30 46 H -7.364419 -1.687542 1.439065 0
M  V30 47 H -2.531575 -1.763846 0.966825 0
M  V30 48 H -0.791801 -2.248394 -1.302415 0
M  V30 49 H 2.292811 -3.435939 -2.598895 0
M  V30 50 H 0.702076 -3.587528 -1.666457 0
M  V30 51 H 3.290278 -5.011682 -1.255911 0
M  V30 52 H 1.734057 -5.298545 -0.463388 0
M  V30 END ATOM
M  V30 BEGIN BOND
M  V30 1 1 1 2
M  V30 2 2 2 3
M  V30 3 1 2 4
M  V30 4 1 4 5
M  V30 5 1 5 6
M  V30 6 1 6 7
M  V30 7 1 7 8
M  V30 8 2 8 9
M  V30 9 1 9 10
M  V30 10 1 10 11
M  V30 11 2 11 12
M  V30 12 1 12 13
M  V30 13 2 13 14
M  V30 14 1 14 15
M  V30 15 1 14 16
M  V30 16 1 16 17
M  V30 17 2 16 18
M  V30 18 2 10 19
M  V30 19 1 19 20
M  V30 20 1 20 21
M  V30 21 2 21 22
M  V30 22 1 22 23
M  V30 23 2 23 24
M  V30 24 1 24 25
M  V30 25 2 25 26
M  V30 26 1 26 27
M  V30 27 1 27 28
M  V30 28 1 19 29
M  V30 29 1 7 30
M  V30 30 1 30 31
M  V30 31 1 31 4
M  V30 32 1 29 8
M  V30 33 1 18 11
M  V30 34 2 28 20
M  V30 35 1 27 23
M  V30 36 1 1 32
M  V30 37 1 1 33
M  V30 38 1 1 34
M  V30 39 1 5 35
M  V30 40 1 5 36
M  V30 41 1 6 37
M  V30 42 1 6 38
M  V30 43 1 12 39
M  V30 44 1 13 40
M  V30 45 1 17 41
M  V30 46 1 17 42
M  V30 47 1 17 43
M  V30 48 1 21 44
M  V30 49 1 22 45
M  V30 50 1 25 46
M  V30 51 1 28 47
M  V30 52 1 29 48
M  V30 53 1 30 49
M  V30 54 1 30 50
M  V30 55 1 31 51
M  V30 56 1 31 52
M  V30 END BOND
M  V30 END CTAB
M  END
>  <Dataset>  (396) 
ChEMBL_Kinases

>  <Ligand_Instance>  (396) 
nan

>  <PDB_ID>  (396) 
nan

>  <Standardized_SMILES>  (396) 
CC(=O)N1CCN(c2nc(-c3ccc(F)c(C)n3)c(-c3ccc4ncnn4c3)[nH]2)CC1

>  <Name>  (396) 
nan

>  <Pocket>  (396) 
nan

>  <ATP_Site>  (396) 
nan

>  <Peripheral>  (396) 
nan

>  <Num_H_Atoms_ProtBoundConf>  (396) 
nan

>  <Num_Resolved_Atoms>  (396) 
nan

>  <Num_Not_Resolved_Atoms>  (396) 
nan

$$$$
CHEMBL480583
     RDKit          3D

  0  0  0  0  0  0  0  0  0  0999 V3000
M  V30 BEGIN CTAB
M  V30 COUNTS 53 57 0 0 0
M  V30 BEGIN ATOM
M  V30 1 C -5.966399 0.781745 1.042248 0
M  V30 2 C -4.851994 0.339604 0.154871 0
M  V30 3 N -3.653667 -0.025369 0.665957 0
M  V30 4 C -2.626982 -0.428764 -0.090942 0
M  V30 5 C -1.362358 -0.808305 0.535523 0
M  V30 6 N -0.755955 0.228796 1.189158 0
M  V30 7 C 0.402866 -0.237231 1.727047 0
M  V30 8 N 1.404160 0.417137 2.494265 0
M  V30 9 C 2.596246 -0.152529 3.027746 0
M  V30 10 C 3.829240 0.641570 2.843932 0
M  V30 11 N 3.703633 2.022786 2.557896 0
M  V30 12 S 5.059253 2.668739 1.708424 0
M  V30 13 C 5.261601 1.874077 0.132324 0
M  V30 14 O 4.874358 4.149649 1.531985 0
M  V30 15 O 6.289563 2.475588 2.551868 0
M  V30 16 C 2.456576 2.477431 2.045348 0
M  V30 17 C 1.351433 1.833107 2.856211 0
M  V30 18 N 0.535346 -1.544232 1.424594 0
M  V30 19 C -0.541635 -1.908983 0.692799 0
M  V30 20 C -1.016086 -3.132608 0.060871 0
M  V30 21 C -2.209921 -3.762357 0.407898 0
M  V30 22 C -2.603298 -4.926647 -0.232420 0
M  V30 23 C -1.824956 -5.489010 -1.225876 0
M  V30 24 N -1.924367 -6.588977 -2.023299 0
M  V30 25 C -0.818757 -6.608548 -2.820443 0
M  V30 26 N -0.077158 -5.538748 -2.500766 0
M  V30 27 N -0.681151 -4.847842 -1.528634 0
M  V30 28 C -0.244926 -3.713510 -0.942368 0
M  V30 29 C -2.739435 -0.496336 -1.480559 0
M  V30 30 C -3.967595 -0.124258 -2.033201 0
M  V30 31 C -5.000127 0.285564 -1.216589 0
M  V30 32 F -6.178536 0.637253 -1.808575 0
M  V30 33 H -6.683372 -0.038099 1.266295 0
M  V30 34 H -5.485134 1.076913 2.012296 0
M  V30 35 H -6.502851 1.661453 0.667041 0
M  V30 36 H 2.751083 -1.221785 2.703209 0
M  V30 37 H 2.425857 -0.248256 4.139642 0
M  V30 38 H 4.502502 0.551983 3.743316 0
M  V30 39 H 4.391414 0.180963 1.979677 0
M  V30 40 H 6.143391 1.207631 0.146851 0
M  V30 41 H 4.331172 1.357902 -0.196839 0
M  V30 42 H 5.454235 2.661847 -0.626580 0
M  V30 43 H 2.324920 2.156598 0.983104 0
M  V30 44 H 2.398780 3.577462 2.163441 0
M  V30 45 H 1.508167 1.949395 3.941097 0
M  V30 46 H 0.405036 2.298344 2.510106 0
M  V30 47 H 1.243824 -2.283043 1.621568 0
M  V30 48 H -2.791684 -3.304650 1.179926 0
M  V30 49 H -3.547734 -5.423550 0.042668 0
M  V30 50 H -0.752521 -7.427796 -3.514441 0
M  V30 51 H 0.681974 -3.235013 -1.220000 0
M  V30 52 H -1.906282 -0.824053 -2.098713 0
M  V30 53 H -4.025683 -0.187020 -3.123353 0
M  V30 END ATOM
M  V30 BEGIN BOND
M  V30 1 1 1 2
M  V30 2 2 2 3
M  V30 3 1 3 4
M  V30 4 1 4 5
M  V30 5 1 5 6
M  V30 6 2 6 7
M  V30 7 1 7 8
M  V30 8 1 8 9
M  V30 9 1 9 10
M  V30 10 1 10 11
M  V30 11 1 11 12
M  V30 12 1 12 13
M  V30 13 2 12 14
M  V30 14 2 12 15
M  V30 15 1 11 16
M  V30 16 1 16 17
M  V30 17 1 7 18
M  V30 18 1 18 19
M  V30 19 1 19 20
M  V30 20 1 20 21
M  V30 21 2 21 22
M  V30 22 1 22 23
M  V30 23 2 23 24
M  V30 24 1 24 25
M  V30 25 2 25 26
M  V30 26 1 26 27
M  V30 27 1 27 28
M  V30 28 2 4 29
M  V30 29 1 29 30
M  V30 30 2 30 31
M  V30 31 1 31 32
M  V30 32 1 31 2
M  V30 33 2 19 5
M  V30 34 2 28 20
M  V30 35 1 17 8
M  V30 36 1 27 23
M  V30 37 1 1 33
M  V30 38 1 1 34
M  V30 39 1 1 35
M  V30 40 1 9 36
M  V30 41 1 9 37
M  V30 42 1 10 38
M  V30 43 1 10 39
M  V30 44 1 13 40
M  V30 45 1 13 41
M  V30 46 1 13 42
M  V30 47 1 16 43
M  V30 48 1 16 44
M  V30 49 1 17 45
M  V30 50 1 17 46
M  V30 51 1 18 47
M  V30 52 1 21 48
M  V30 53 1 22 49
M  V30 54 1 25 50
M  V30 55 1 28 51
M  V30 56 1 29 52
M  V30 57 1 30 53
M  V30 END BOND
M  V30 END CTAB
M  END
>  <Dataset>  (397) 
ChEMBL_Kinases

>  <Ligand_Instance>  (397) 
nan

>  <PDB_ID>  (397) 
nan

>  <Standardized_SMILES>  (397) 
Cc1nc(-c2nc(N3CCN(S(C)(=O)=O)CC3)[nH]c2-c2ccc3ncnn3c2)ccc1F

>  <Name>  (397) 
nan

>  <Pocket>  (397) 
nan

>  <ATP_Site>  (397) 
nan

>  <Peripheral>  (397) 
nan

>  <Num_H_Atoms_ProtBoundConf>  (397) 
nan

>  <Num_Resolved_Atoms>  (397) 
nan

>  <Num_Not_Resolved_Atoms>  (397) 
nan

$$$$
CHEMBL4097277
     RDKit          3D

  0  0  0  0  0  0  0  0  0  0999 V3000
M  V30 BEGIN CTAB
M  V30 COUNTS 40 41 0 0 0
M  V30 BEGIN ATOM
M  V30 1 C 0.461650 -6.312164 1.427928 0
M  V30 2 O 1.048047 -5.580954 0.375177 0
M  V30 3 C 1.452652 -4.269529 0.445270 0
M  V30 4 C 2.027298 -3.517753 -0.551675 0
M  V30 5 C 2.380003 -2.194523 -0.312846 0
M  V30 6 O 2.954767 -1.555948 -1.421830 0
M  V30 7 C 2.180745 -1.579162 0.897583 0
M  V30 8 C 2.583011 -0.198151 1.043818 0
M  V30 9 O 3.779591 -0.083803 1.443854 0
M  V30 10 C 1.744140 0.937208 0.773980 0
M  V30 11 C 0.501407 0.835030 0.358652 0
M  V30 12 C -0.387901 1.951970 0.071822 0
M  V30 13 C -0.014803 3.271384 0.207520 0
M  V30 14 C -0.863661 4.338762 -0.066172 0
M  V30 15 C -2.132163 4.002060 -0.491805 0
M  V30 16 C -3.064267 5.080235 -0.793084 0
M  V30 17 O -2.831158 6.291058 -0.704780 0
M  V30 18 O -4.359755 4.838376 -1.227078 0
M  V30 19 C -2.574369 2.704893 -0.650349 0
M  V30 20 C -1.673707 1.701376 -0.358851 0
M  V30 21 C 1.603340 -2.319163 1.914478 0
M  V30 22 O 1.391264 -1.719691 3.147951 0
M  V30 23 C 0.796545 -2.452907 4.224349 0
M  V30 24 C 1.255410 -3.634406 1.669103 0
M  V30 25 H 1.138144 -6.402758 2.303335 0
M  V30 26 H 0.180404 -7.301623 0.994025 0
M  V30 27 H -0.453683 -5.748828 1.755794 0
M  V30 28 H 2.173449 -4.029603 -1.499366 0
M  V30 29 H 3.815613 -1.991701 -1.742834 0
M  V30 30 H 2.159142 1.924172 0.921007 0
M  V30 31 H 0.154399 -0.179496 0.234020 0
M  V30 32 H 0.975706 3.527547 0.539767 0
M  V30 33 H -0.536318 5.362695 0.051735 0
M  V30 34 H -4.854506 5.473788 -1.865795 0
M  V30 35 H -3.574865 2.459562 -0.985940 0
M  V30 36 H -2.015722 0.662857 -0.481772 0
M  V30 37 H 1.325614 -3.438891 4.349517 0
M  V30 38 H -0.266210 -2.667270 4.046026 0
M  V30 39 H 0.910498 -1.881707 5.167804 0
M  V30 40 H 0.813725 -4.151388 2.495489 0
M  V30 END ATOM
M  V30 BEGIN BOND
M  V30 1 1 1 2
M  V30 2 1 2 3
M  V30 3 2 3 4
M  V30 4 1 4 5
M  V30 5 1 5 6
M  V30 6 2 5 7
M  V30 7 1 7 8
M  V30 8 2 8 9
M  V30 9 1 8 10
M  V30 10 2 10 11
M  V30 11 1 11 12
M  V30 12 2 12 13
M  V30 13 1 13 14
M  V30 14 2 14 15
M  V30 15 1 15 16
M  V30 16 2 16 17
M  V30 17 1 16 18
M  V30 18 1 15 19
M  V30 19 2 19 20
M  V30 20 1 7 21
M  V30 21 1 21 22
M  V30 22 1 22 23
M  V30 23 2 21 24
M  V30 24 1 24 3
M  V30 25 1 20 12
M  V30 26 1 1 25
M  V30 27 1 1 26
M  V30 28 1 1 27
M  V30 29 1 4 28
M  V30 30 1 6 29
M  V30 31 1 10 30
M  V30 32 1 11 31
M  V30 33 1 13 32
M  V30 34 1 14 33
M  V30 35 1 18 34
M  V30 36 1 19 35
M  V30 37 1 20 36
M  V30 38 1 23 37
M  V30 39 1 23 38
M  V30 40 1 23 39
M  V30 41 1 24 40
M  V30 END BOND
M  V30 END CTAB
M  END
>  <Dataset>  (398) 
ChEMBL_Kinases

>  <Ligand_Instance>  (398) 
nan

>  <PDB_ID>  (398) 
nan

>  <Standardized_SMILES>  (398) 
COc1cc(O)c(C(=O)/C=C/c2ccc(C(=O)O)cc2)c(OC)c1

>  <Name>  (398) 
nan

>  <Pocket>  (398) 
nan

>  <ATP_Site>  (398) 
nan

>  <Peripheral>  (398) 
nan

>  <Num_H_Atoms_ProtBoundConf>  (398) 
nan

>  <Num_Resolved_Atoms>  (398) 
nan

>  <Num_Not_Resolved_Atoms>  (398) 
nan

$$$$
CHEMBL4097265
     RDKit          3D

  0  0  0  0  0  0  0  0  0  0999 V3000
M  V30 BEGIN CTAB
M  V30 COUNTS 41 43 0 0 0
M  V30 BEGIN ATOM
M  V30 1 N 3.914069 0.266540 3.833451 0
M  V30 2 C 3.879368 -0.653522 3.098425 0
M  V30 3 C 3.858293 -1.771659 2.222650 0
M  V30 4 C 4.865791 -2.739864 2.123570 0
M  V30 5 N 4.490218 -3.636037 1.194218 0
M  V30 6 C 3.280379 -3.330278 0.654539 0
M  V30 7 N 2.433612 -3.813047 -0.257506 0
M  V30 8 C 1.260685 -3.211381 -0.544848 0
M  V30 9 N 0.385298 -3.773120 -1.535769 0
M  V30 10 N 0.910988 -2.066785 0.110879 0
M  V30 11 C 1.739571 -1.536426 1.047674 0
M  V30 12 N 1.192944 -0.347252 1.604642 0
M  V30 13 C 1.560607 1.074134 1.684746 0
M  V30 14 C 0.569357 1.922808 0.912313 0
M  V30 15 N -0.744418 1.427740 1.042998 0
M  V30 16 C -1.612154 1.468230 -0.027586 0
M  V30 17 C -2.986795 0.935601 0.156092 0
M  V30 18 C -3.808081 1.062227 -1.134080 0
M  V30 19 O -5.092940 0.558973 -0.944233 0
M  V30 20 C -0.981657 0.675000 2.198427 0
M  V30 21 C -0.071474 -0.546113 2.285597 0
M  V30 22 C 2.930993 -2.174662 1.318971 0
M  V30 23 H 5.787776 -2.797756 2.669336 0
M  V30 24 H 5.026229 -4.494038 0.877869 0
M  V30 25 H -0.567294 -4.208536 -1.452245 0
M  V30 26 H 0.707158 -3.771742 -2.527428 0
M  V30 27 H 2.552180 1.292273 1.289568 0
M  V30 28 H 1.570533 1.333060 2.761964 0
M  V30 29 H 0.598537 2.924484 1.428334 0
M  V30 30 H 0.834650 2.094271 -0.129857 0
M  V30 31 H -1.712485 2.524987 -0.398322 0
M  V30 32 H -1.150622 0.924100 -0.902803 0
M  V30 33 H -3.562511 1.510255 0.910668 0
M  V30 34 H -3.053910 -0.110949 0.441290 0
M  V30 35 H -3.238991 0.553502 -1.930508 0
M  V30 36 H -3.893624 2.131536 -1.443428 0
M  V30 37 H -5.024707 -0.431677 -0.768345 0
M  V30 38 H -0.808820 1.357954 3.082832 0
M  V30 39 H -2.042695 0.367432 2.290936 0
M  V30 40 H 0.178678 -0.654048 3.373115 0
M  V30 41 H -0.621902 -1.432267 1.936939 0
M  V30 END ATOM
M  V30 BEGIN BOND
M  V30 1 3 1 2
M  V30 2 1 2 3
M  V30 3 2 3 4
M  V30 4 1 4 5
M  V30 5 1 5 6
M  V30 6 2 6 7
M  V30 7 1 7 8
M  V30 8 1 8 9
M  V30 9 2 8 10
M  V30 10 1 10 11
M  V30 11 1 11 12
M  V30 12 1 12 13
M  V30 13 1 13 14
M  V30 14 1 14 15
M  V30 15 1 15 16
M  V30 16 1 16 17
M  V30 17 1 17 18
M  V30 18 1 18 19
M  V30 19 1 15 20
M  V30 20 1 20 21
M  V30 21 2 11 22
M  V30 22 1 22 3
M  V30 23 1 22 6
M  V30 24 1 21 12
M  V30 25 1 4 23
M  V30 26 1 5 24
M  V30 27 1 9 25
M  V30 28 1 9 26
M  V30 29 1 13 27
M  V30 30 1 13 28
M  V30 31 1 14 29
M  V30 32 1 14 30
M  V30 33 1 16 31
M  V30 34 1 16 32
M  V30 35 1 17 33
M  V30 36 1 17 34
M  V30 37 1 18 35
M  V30 38 1 18 36
M  V30 39 1 19 37
M  V30 40 1 20 38
M  V30 41 1 20 39
M  V30 42 1 21 40
M  V30 43 1 21 41
M  V30 END BOND
M  V30 END CTAB
M  END
>  <Dataset>  (399) 
ChEMBL_Kinases

>  <Ligand_Instance>  (399) 
nan

>  <PDB_ID>  (399) 
nan

>  <Standardized_SMILES>  (399) 
N#Cc1c[nH]c2nc(N)nc(N3CCN(CCCO)CC3)c12

>  <Name>  (399) 
nan

>  <Pocket>  (399) 
nan

>  <ATP_Site>  (399) 
nan

>  <Peripheral>  (399) 
nan

>  <Num_H_Atoms_ProtBoundConf>  (399) 
nan

>  <Num_Resolved_Atoms>  (399) 
nan

>  <Num_Not_Resolved_Atoms>  (399) 
nan

$$$$
CHEMBL480731
     RDKit          3D

  0  0  0  0  0  0  0  0  0  0999 V3000
M  V30 BEGIN CTAB
M  V30 COUNTS 49 52 0 0 0
M  V30 BEGIN ATOM
M  V30 1 C 3.047044 -3.087006 4.614549 0
M  V30 2 O 3.789586 -2.712209 3.494029 0
M  V30 3 C 4.096386 -3.837555 2.753791 0
M  V30 4 C 4.905040 -3.553327 1.511844 0
M  V30 5 C 4.167463 -2.658670 0.622352 0
M  V30 6 O 3.247932 -2.726815 1.471449 0
M  V30 7 N 3.451744 -1.797171 -0.229817 0
M  V30 8 C 2.197259 -1.148447 -0.298518 0
M  V30 9 N 2.011452 0.097303 0.213757 0
M  V30 10 C 0.723971 0.438340 -0.009274 0
M  V30 11 C 0.150401 1.699895 0.384161 0
M  V30 12 C -0.006252 2.642444 -0.638918 0
M  V30 13 C -0.555568 3.906595 -0.407903 0
M  V30 14 C -0.957804 4.243852 0.866918 0
M  V30 15 F -1.501389 5.454576 1.166230 0
M  V30 16 C -0.789037 3.292784 1.850575 0
M  V30 17 C -1.219864 3.616902 3.243361 0
M  V30 18 N -0.259251 2.073516 1.627120 0
M  V30 19 C 0.166561 -0.639152 -0.662437 0
M  V30 20 C -1.234992 -0.663107 -1.080082 0
M  V30 21 C -1.885785 0.105812 -2.006908 0
M  V30 22 C -3.234731 -0.068501 -2.255637 0
M  V30 23 C -3.940134 -1.044473 -1.548944 0
M  V30 24 N -5.257668 -1.223651 -1.781255 0
M  V30 25 C -5.948966 -2.171473 -1.096104 0
M  V30 26 C -5.324107 -2.964185 -0.154941 0
M  V30 27 N -3.989092 -2.791780 0.089916 0
M  V30 28 C -3.291781 -1.839696 -0.598327 0
M  V30 29 C -1.928069 -1.648526 -0.360872 0
M  V30 30 N 1.071527 -1.638742 -0.852219 0
M  V30 31 H 2.102798 -3.592518 4.324839 0
M  V30 32 H 2.848604 -2.231889 5.283948 0
M  V30 33 H 3.608366 -3.828446 5.243081 0
M  V30 34 H 3.142978 -4.314955 2.439659 0
M  V30 35 H 4.639794 -4.545129 3.435164 0
M  V30 36 H 5.917710 -3.145133 1.773066 0
M  V30 37 H 5.118917 -4.535326 1.028715 0
M  V30 38 H 4.364339 -1.950140 -0.704465 0
M  V30 39 H 0.280892 2.460228 -1.662382 0
M  V30 40 H -0.676519 4.626769 -1.202312 0
M  V30 41 H -1.055314 2.794577 3.939340 0
M  V30 42 H -0.636423 4.476240 3.583440 0
M  V30 43 H -2.309838 3.812671 3.177158 0
M  V30 44 H -1.256027 0.812055 -2.483235 0
M  V30 45 H -3.699744 0.565909 -2.998529 0
M  V30 46 H -7.007515 -2.278829 -1.317981 0
M  V30 47 H -5.903944 -3.710403 0.371568 0
M  V30 48 H -1.519228 -2.318795 0.398881 0
M  V30 49 H 0.931179 -2.561870 -1.312251 0
M  V30 END ATOM
M  V30 BEGIN BOND
M  V30 1 1 1 2
M  V30 2 1 2 3
M  V30 3 1 3 4
M  V30 4 1 4 5
M  V30 5 2 5 6
M  V30 6 1 5 7
M  V30 7 1 7 8
M  V30 8 2 8 9
M  V30 9 1 9 10
M  V30 10 1 10 11
M  V30 11 2 11 12
M  V30 12 1 12 13
M  V30 13 2 13 14
M  V30 14 1 14 15
M  V30 15 1 14 16
M  V30 16 1 16 17
M  V30 17 2 16 18
M  V30 18 2 10 19
M  V30 19 1 19 20
M  V30 20 2 20 21
M  V30 21 1 21 22
M  V30 22 2 22 23
M  V30 23 1 23 24
M  V30 24 2 24 25
M  V30 25 1 25 26
M  V30 26 2 26 27
M  V30 27 1 27 28
M  V30 28 2 28 29
M  V30 29 1 19 30
M  V30 30 1 30 8
M  V30 31 1 18 11
M  V30 32 1 29 20
M  V30 33 1 28 23
M  V30 34 1 1 31
M  V30 35 1 1 32
M  V30 36 1 1 33
M  V30 37 1 3 34
M  V30 38 1 3 35
M  V30 39 1 4 36
M  V30 40 1 4 37
M  V30 41 1 7 38
M  V30 42 1 12 39
M  V30 43 1 13 40
M  V30 44 1 17 41
M  V30 45 1 17 42
M  V30 46 1 17 43
M  V30 47 1 21 44
M  V30 48 1 22 45
M  V30 49 1 25 46
M  V30 50 1 26 47
M  V30 51 1 29 48
M  V30 52 1 30 49
M  V30 END BOND
M  V30 END CTAB
M  END
>  <Dataset>  (400) 
ChEMBL_Kinases

>  <Ligand_Instance>  (400) 
nan

>  <PDB_ID>  (400) 
nan

>  <Standardized_SMILES>  (400) 
COCCC(=O)Nc1nc(-c2ccc(F)c(C)n2)c(-c2ccc3nccnc3c2)[nH]1

>  <Name>  (400) 
nan

>  <Pocket>  (400) 
nan

>  <ATP_Site>  (400) 
nan

>  <Peripheral>  (400) 
nan

>  <Num_H_Atoms_ProtBoundConf>  (400) 
nan

>  <Num_Resolved_Atoms>  (400) 
nan

>  <Num_Not_Resolved_Atoms>  (400) 
nan

$$$$
CHEMBL4097186
     RDKit          3D

  0  0  0  0  0  0  0  0  0  0999 V3000
M  V30 BEGIN CTAB
M  V30 COUNTS 55 59 0 0 0
M  V30 BEGIN ATOM
M  V30 1 O -0.770003 -2.190800 2.708394 0
M  V30 2 C -1.560703 -1.986860 1.768303 0
M  V30 3 C -1.345496 -0.938750 0.788064 0
M  V30 4 C -0.359733 0.004801 0.618314 0
M  V30 5 C -0.683277 0.743242 -0.500051 0
M  V30 6 C 0.083044 1.868428 -1.070620 0
M  V30 7 C -0.403662 2.484914 -2.198918 0
M  V30 8 C 0.354240 3.528856 -2.685957 0
M  V30 9 N 1.487501 3.878279 -2.057493 0
M  V30 10 C 1.947357 3.252663 -0.943120 0
M  V30 11 N 3.155600 3.675357 -0.329376 0
M  V30 12 C 3.662493 3.036727 0.841943 0
M  V30 13 C 2.638237 3.160327 1.965242 0
M  V30 14 C 3.289415 2.810144 3.304364 0
M  V30 15 O 4.138107 1.738192 3.052546 0
M  V30 16 C 3.704560 0.914629 2.027158 0
M  V30 17 C 3.918424 1.550280 0.654081 0
M  V30 18 N 1.222562 2.237609 -0.458653 0
M  V30 19 N -1.844202 0.233898 -0.974339 0
M  V30 20 C -2.271679 -0.785179 -0.217530 0
M  V30 21 C -3.489143 -1.614732 -0.383797 0
M  V30 22 C -3.878094 -2.255828 0.930452 0
M  V30 23 N -2.719082 -2.801137 1.637729 0
M  V30 24 C -2.751272 -4.155994 2.198941 0
M  V30 25 C -2.253581 -5.101436 1.137952 0
M  V30 26 C -3.189770 -5.655157 0.264861 0
M  V30 27 C -2.814899 -6.531965 -0.736893 0
M  V30 28 C -1.483311 -6.864361 -0.872789 0
M  V30 29 C -0.544405 -6.316867 -0.006788 0
M  V30 30 C -0.916323 -5.433577 1.003539 0
M  V30 31 H 0.490090 0.121724 1.252179 0
M  V30 32 H -1.320419 2.184430 -2.687372 0
M  V30 33 H 0.012199 4.049073 -3.576247 0
M  V30 34 H 3.685604 4.470018 -0.742475 0
M  V30 35 H 4.584999 3.514435 1.202472 0
M  V30 36 H 2.217191 4.179426 1.996092 0
M  V30 37 H 1.857125 2.380080 1.829659 0
M  V30 38 H 2.493876 2.478105 3.995566 0
M  V30 39 H 3.799052 3.683405 3.706778 0
M  V30 40 H 2.681016 0.545818 2.173470 0
M  V30 41 H 4.364090 0.017615 2.051578 0
M  V30 42 H 3.255760 1.066795 -0.061415 0
M  V30 43 H 4.964153 1.378603 0.313931 0
M  V30 44 H -2.315675 0.620357 -1.831561 0
M  V30 45 H -4.310813 -0.966053 -0.700825 0
M  V30 46 H -3.289997 -2.457364 -1.083271 0
M  V30 47 H -4.664911 -3.014564 0.807328 0
M  V30 48 H -4.296232 -1.451767 1.574248 0
M  V30 49 H -3.767340 -4.470386 2.483102 0
M  V30 50 H -2.117445 -4.260731 3.088983 0
M  V30 51 H -4.257721 -5.412876 0.343953 0
M  V30 52 H -3.555695 -6.958137 -1.413009 0
M  V30 53 H -1.198993 -7.549789 -1.657693 0
M  V30 54 H 0.515787 -6.566173 -0.096127 0
M  V30 55 H -0.203524 -5.008684 1.672343 0
M  V30 END ATOM
M  V30 BEGIN BOND
M  V30 1 2 1 2
M  V30 2 1 2 3
M  V30 3 1 3 4
M  V30 4 2 4 5
M  V30 5 1 5 6
M  V30 6 2 6 7
M  V30 7 1 7 8
M  V30 8 2 8 9
M  V30 9 1 9 10
M  V30 10 1 10 11
M  V30 11 1 11 12
M  V30 12 1 12 13
M  V30 13 1 13 14
M  V30 14 1 14 15
M  V30 15 1 15 16
M  V30 16 1 16 17
M  V30 17 2 10 18
M  V30 18 1 5 19
M  V30 19 1 19 20
M  V30 20 1 20 21
M  V30 21 1 21 22
M  V30 22 1 22 23
M  V30 23 1 23 24
M  V30 24 1 24 25
M  V30 25 2 25 26
M  V30 26 1 26 27
M  V30 27 2 27 28
M  V30 28 1 28 29
M  V30 29 2 29 30
M  V30 30 1 23 2
M  V30 31 1 30 25
M  V30 32 2 20 3
M  V30 33 1 18 6
M  V30 34 1 17 12
M  V30 35 1 4 31
M  V30 36 1 7 32
M  V30 37 1 8 33
M  V30 38 1 11 34
M  V30 39 1 12 35
M  V30 40 1 13 36
M  V30 41 1 13 37
M  V30 42 1 14 38
M  V30 43 1 14 39
M  V30 44 1 16 40
M  V30 45 1 16 41
M  V30 46 1 17 42
M  V30 47 1 17 43
M  V30 48 1 19 44
M  V30 49 1 21 45
M  V30 50 1 21 46
M  V30 51 1 22 47
M  V30 52 1 22 48
M  V30 53 1 24 49
M  V30 54 1 24 50
M  V30 55 1 26 51
M  V30 56 1 27 52
M  V30 57 1 28 53
M  V30 58 1 29 54
M  V30 59 1 30 55
M  V30 END BOND
M  V30 END CTAB
M  END
>  <Dataset>  (401) 
ChEMBL_Kinases

>  <Ligand_Instance>  (401) 
nan

>  <PDB_ID>  (401) 
nan

>  <Standardized_SMILES>  (401) 
O=C1c2cc(-c3ccnc(NC4CCOCC4)n3)[nH]c2CCN1Cc1ccccc1

>  <Name>  (401) 
nan

>  <Pocket>  (401) 
nan

>  <ATP_Site>  (401) 
nan

>  <Peripheral>  (401) 
nan

>  <Num_H_Atoms_ProtBoundConf>  (401) 
nan

>  <Num_Resolved_Atoms>  (401) 
nan

>  <Num_Not_Resolved_Atoms>  (401) 
nan

$$$$
CHEMBL4097172
     RDKit          3D

  0  0  0  0  0  0  0  0  0  0999 V3000
M  V30 BEGIN CTAB
M  V30 COUNTS 42 46 0 0 0
M  V30 BEGIN ATOM
M  V30 1 N 3.302725 -4.604141 4.445691 0
M  V30 2 C 2.822885 -3.810014 3.359148 0
M  V30 3 O 3.982268 -3.472131 3.022236 0
M  V30 4 C 1.417208 -3.653205 3.024720 0
M  V30 5 C 0.548359 -4.327186 3.812884 0
M  V30 6 C -0.786404 -4.236589 3.555510 0
M  V30 7 C -1.153753 -3.438041 2.475159 0
M  V30 8 N -0.237141 -2.783826 1.717753 0
M  V30 9 C 1.084702 -2.853645 1.948313 0
M  V30 10 N 2.016594 -2.135955 1.146118 0
M  V30 11 C 1.541407 -1.359932 0.050199 0
M  V30 12 N 0.964433 -0.174466 0.304409 0
M  V30 13 C 0.489702 0.623586 -0.688402 0
M  V30 14 C -0.134743 1.877077 -0.289116 0
M  V30 15 C -0.230690 2.235281 1.030907 0
M  V30 16 C -0.799115 3.344112 1.603704 0
M  V30 17 C -1.356674 4.224549 0.664577 0
M  V30 18 C -1.305182 3.941532 -0.707549 0
M  V30 19 C -0.700839 2.782130 -1.174326 0
M  V30 20 O -1.953760 5.025097 -1.351918 0
M  V30 21 C -2.863597 5.594390 -0.386380 0
M  V30 22 O -2.029930 5.459804 0.784314 0
M  V30 23 C 0.583631 0.245006 -2.006062 0
M  V30 24 C 1.185502 -0.987698 -2.242477 0
M  V30 25 N 1.414249 -1.608445 -3.407258 0
M  V30 26 C 2.025608 -2.788705 -3.184878 0
M  V30 27 C 2.157851 -2.851317 -1.792269 0
M  V30 28 N 1.641921 -1.748216 -1.236592 0
M  V30 29 H 3.590067 -4.364675 5.417615 0
M  V30 30 H 3.394583 -5.647040 4.253885 0
M  V30 31 H 0.863265 -4.947703 4.655414 0
M  V30 32 H -1.488223 -4.774945 4.182438 0
M  V30 33 H -2.235861 -3.370913 2.275645 0
M  V30 34 H 3.037242 -2.176185 1.354830 0
M  V30 35 H 0.206295 1.548175 1.766478 0
M  V30 36 H -0.831336 3.552795 2.659374 0
M  V30 37 H -0.673585 2.591510 -2.218069 0
M  V30 38 H -3.038628 6.663178 -0.575853 0
M  V30 39 H -3.775145 4.981975 -0.286724 0
M  V30 40 H 0.210712 0.870928 -2.803619 0
M  V30 41 H 2.369803 -3.568251 -3.871569 0
M  V30 42 H 2.608485 -3.670447 -1.256547 0
M  V30 END ATOM
M  V30 BEGIN BOND
M  V30 1 1 1 2
M  V30 2 2 2 3
M  V30 3 1 2 4
M  V30 4 2 4 5
M  V30 5 1 5 6
M  V30 6 2 6 7
M  V30 7 1 7 8
M  V30 8 2 8 9
M  V30 9 1 9 10
M  V30 10 1 10 11
M  V30 11 2 11 12
M  V30 12 1 12 13
M  V30 13 1 13 14
M  V30 14 2 14 15
M  V30 15 1 15 16
M  V30 16 2 16 17
M  V30 17 1 17 18
M  V30 18 2 18 19
M  V30 19 1 18 20
M  V30 20 1 20 21
M  V30 21 1 21 22
M  V30 22 2 13 23
M  V30 23 1 23 24
M  V30 24 2 24 25
M  V30 25 1 25 26
M  V30 26 2 26 27
M  V30 27 1 27 28
M  V30 28 1 9 4
M  V30 29 1 28 11
M  V30 30 1 19 14
M  V30 31 1 28 24
M  V30 32 1 22 17
M  V30 33 1 1 29
M  V30 34 1 1 30
M  V30 35 1 5 31
M  V30 36 1 6 32
M  V30 37 1 7 33
M  V30 38 1 10 34
M  V30 39 1 15 35
M  V30 40 1 16 36
M  V30 41 1 19 37
M  V30 42 1 21 38
M  V30 43 1 21 39
M  V30 44 1 23 40
M  V30 45 1 26 41
M  V30 46 1 27 42
M  V30 END BOND
M  V30 END CTAB
M  END
>  <Dataset>  (402) 
ChEMBL_Kinases

>  <Ligand_Instance>  (402) 
nan

>  <PDB_ID>  (402) 
nan

>  <Standardized_SMILES>  (402) 
NC(=O)c1cccnc1Nc1nc(-c2ccc3c(c2)OCO3)cc2nccn12

>  <Name>  (402) 
nan

>  <Pocket>  (402) 
nan

>  <ATP_Site>  (402) 
nan

>  <Peripheral>  (402) 
nan

>  <Num_H_Atoms_ProtBoundConf>  (402) 
nan

>  <Num_Resolved_Atoms>  (402) 
nan

>  <Num_Not_Resolved_Atoms>  (402) 
nan

$$$$
CHEMBL4098331
     RDKit          3D

  0  0  0  0  0  0  0  0  0  0999 V3000
M  V30 BEGIN CTAB
M  V30 COUNTS 61 65 0 0 0
M  V30 BEGIN ATOM
M  V30 1 N 5.041473 -2.278680 3.494947 0
M  V30 2 C 4.071656 -2.875218 2.639093 0
M  V30 3 O 4.306277 -4.044813 2.261362 0
M  V30 4 C 2.924997 -2.055286 2.305890 0
M  V30 5 C 2.731199 -0.782136 2.757393 0
M  V30 6 N 1.616801 -0.205400 2.335031 0
M  V30 7 C 0.661514 -0.700280 1.530222 0
M  V30 8 N -0.424874 0.157188 1.278062 0
M  V30 9 C -0.203867 1.547451 0.778345 0
M  V30 10 C 1.216989 1.881864 0.575851 0
M  V30 11 C 1.274896 3.304138 0.063700 0
M  V30 12 C 1.367384 4.451863 0.820734 0
M  V30 13 C 1.410274 5.674085 0.186356 0
M  V30 14 C 1.362864 5.787985 -1.200686 0
M  V30 15 C 1.270105 4.606864 -1.913211 0
M  V30 16 C 1.224175 3.347181 -1.305690 0
M  V30 17 C -1.774461 -0.076286 1.438352 0 CFG=1
M  V30 18 C -2.426604 0.108451 0.073630 0
M  V30 19 C -3.569259 -0.856320 -0.154345 0
M  V30 20 C -4.550992 -0.651982 0.941018 0
M  V30 21 N -3.880788 -0.832565 2.206367 0
M  V30 22 C -2.474679 -1.179500 2.018193 0
M  V30 23 C 0.796288 -1.979985 1.039083 0
M  V30 24 C 0.000320 -2.713965 0.217670 0
M  V30 25 C 0.335919 -3.965990 -0.142684 0
M  V30 26 C -0.278319 -4.961514 -0.970808 0
M  V30 27 C 0.340023 -6.183846 -1.146417 0
M  V30 28 C -0.255795 -7.138225 -1.944171 0
M  V30 29 C -1.470493 -6.867856 -2.565592 0
M  V30 30 C -2.080047 -5.644285 -2.384029 0
M  V30 31 C -1.464061 -4.689923 -1.573894 0
M  V30 32 S 1.888528 -4.246524 0.684052 0
M  V30 33 C 2.020762 -2.675804 1.475589 0
M  V30 34 H 5.238082 -1.274336 3.697250 0
M  V30 35 H 5.722488 -2.867730 4.062926 0
M  V30 36 H 3.458066 -0.323313 3.406772 0
M  V30 37 H -0.585729 2.265703 1.568552 0
M  V30 38 H -0.787845 1.796572 -0.103160 0
M  V30 39 H 1.809224 1.999483 1.534432 0
M  V30 40 H 1.807286 1.195306 -0.026402 0
M  V30 41 H 1.399653 4.290189 1.888975 0
M  V30 42 H 1.483094 6.562991 0.797202 0
M  V30 43 H 1.396395 6.742136 -1.696365 0
M  V30 44 H 1.232562 4.688243 -3.004481 0
M  V30 45 H 1.152203 2.518023 -1.969542 0
M  V30 46 H -2.185779 0.789788 2.062691 0
M  V30 47 H -1.721323 -0.055076 -0.756264 0
M  V30 48 H -2.862733 1.114851 -0.064520 0
M  V30 49 H -4.015979 -0.527186 -1.143280 0
M  V30 50 H -3.258105 -1.895288 -0.352858 0
M  V30 51 H -5.471957 -1.258057 0.851229 0
M  V30 52 H -4.879987 0.423792 0.866024 0
M  V30 53 H -3.982944 0.019176 2.809816 0
M  V30 54 H -2.153714 -1.297479 3.103145 0
M  V30 55 H -2.539489 -2.154275 1.520635 0
M  V30 56 H -0.911371 -2.352094 -0.186125 0
M  V30 57 H 1.290889 -6.442908 -0.681593 0
M  V30 58 H 0.192750 -8.116389 -2.113222 0
M  V30 59 H -1.915593 -7.640695 -3.188608 0
M  V30 60 H -3.020431 -5.400549 -2.849586 0
M  V30 61 H -1.925732 -3.722182 -1.417625 0
M  V30 END ATOM
M  V30 BEGIN BOND
M  V30 1 1 1 2
M  V30 2 2 2 3
M  V30 3 1 2 4
M  V30 4 2 4 5
M  V30 5 1 5 6
M  V30 6 2 6 7
M  V30 7 1 7 8
M  V30 8 1 8 9
M  V30 9 1 9 10
M  V30 10 1 10 11
M  V30 11 2 11 12
M  V30 12 1 12 13
M  V30 13 2 13 14
M  V30 14 1 14 15
M  V30 15 2 15 16
M  V30 16 1 8 17
M  V30 17 1 17 18
M  V30 18 1 18 19
M  V30 19 1 19 20
M  V30 20 1 20 21
M  V30 21 1 21 22
M  V30 22 1 7 23
M  V30 23 1 23 24
M  V30 24 2 24 25
M  V30 25 1 25 26
M  V30 26 2 26 27
M  V30 27 1 27 28
M  V30 28 2 28 29
M  V30 29 1 29 30
M  V30 30 2 30 31
M  V30 31 1 25 32
M  V30 32 1 32 33
M  V30 33 1 33 4
M  V30 34 1 16 11
M  V30 35 1 22 17
M  V30 36 2 33 23
M  V30 37 1 31 26
M  V30 38 1 1 34
M  V30 39 1 1 35
M  V30 40 1 5 36
M  V30 41 1 9 37
M  V30 42 1 9 38
M  V30 43 1 10 39
M  V30 44 1 10 40
M  V30 45 1 12 41
M  V30 46 1 13 42
M  V30 47 1 14 43
M  V30 48 1 15 44
M  V30 49 1 16 45
M  V30 50 1 17 46 CFG=1
M  V30 51 1 18 47
M  V30 52 1 18 48
M  V30 53 1 19 49
M  V30 54 1 19 50
M  V30 55 1 20 51
M  V30 56 1 20 52
M  V30 57 1 21 53
M  V30 58 1 22 54
M  V30 59 1 22 55
M  V30 60 1 24 56
M  V30 61 1 27 57
M  V30 62 1 28 58
M  V30 63 1 29 59
M  V30 64 1 30 60
M  V30 65 1 31 61
M  V30 END BOND
M  V30 END CTAB
M  END
>  <Dataset>  (403) 
ChEMBL_Kinases

>  <Ligand_Instance>  (403) 
nan

>  <PDB_ID>  (403) 
nan

>  <Standardized_SMILES>  (403) 
NC(=O)c1cnc(N(CCc2ccccc2)[C@H]2CCCNC2)c2cc(-c3ccccc3)sc12

>  <Name>  (403) 
nan

>  <Pocket>  (403) 
nan

>  <ATP_Site>  (403) 
nan

>  <Peripheral>  (403) 
nan

>  <Num_H_Atoms_ProtBoundConf>  (403) 
nan

>  <Num_Resolved_Atoms>  (403) 
nan

>  <Num_Not_Resolved_Atoms>  (403) 
nan

$$$$
CHEMBL480742
     RDKit          3D

  0  0  0  0  0  0  0  0  0  0999 V3000
M  V30 BEGIN CTAB
M  V30 COUNTS 37 40 0 0 0
M  V30 BEGIN ATOM
M  V30 1 C -0.381588 -4.203615 -1.260365 0
M  V30 2 C 0.441192 -3.695280 -0.109013 0
M  V30 3 N 1.028573 -2.487716 -0.226781 0
M  V30 4 C 1.757224 -2.057292 0.813991 0
M  V30 5 C 2.412294 -0.781330 0.751569 0
M  V30 6 N 3.730443 -0.561311 0.808610 0
M  V30 7 C 3.954636 0.775016 0.714953 0
M  V30 8 N 5.180232 1.528851 0.724258 0
M  V30 9 N 2.741957 1.354093 0.600232 0
M  V30 10 C 1.756392 0.411961 0.619610 0
M  V30 11 C 0.341822 0.753713 0.513936 0
M  V30 12 C -0.038541 1.385788 -0.673597 0
M  V30 13 C -1.337899 1.784549 -0.948281 0
M  V30 14 C -2.299678 1.531948 0.025374 0
M  V30 15 N -3.584786 1.891011 -0.169440 0
M  V30 16 C -4.528166 1.646747 0.778620 0
M  V30 17 C -4.159248 1.014963 1.970414 0
M  V30 18 N -2.870608 0.654357 2.167134 0
M  V30 19 C -1.951680 0.909420 1.206688 0
M  V30 20 C -0.650391 0.527588 1.444015 0
M  V30 21 C 1.915342 -2.803387 1.973648 0
M  V30 22 C 1.326905 -4.029263 2.110453 0
M  V30 23 C 0.581851 -4.459517 1.034630 0
M  V30 24 F -0.019497 -5.683387 1.141483 0
M  V30 25 H -1.435917 -3.939715 -1.017757 0
M  V30 26 H -0.040266 -3.725243 -2.209330 0
M  V30 27 H -0.278918 -5.299468 -1.321304 0
M  V30 28 H 5.991002 1.061671 0.267320 0
M  V30 29 H 5.172943 2.478276 1.181009 0
M  V30 30 H 2.578746 2.392512 0.507807 0
M  V30 31 H 0.691180 1.599643 -1.460973 0
M  V30 32 H -1.586846 2.270893 -1.882103 0
M  V30 33 H -5.537361 1.968335 0.540418 0
M  V30 34 H -4.952504 0.845180 2.691877 0
M  V30 35 H -0.294069 0.032982 2.347281 0
M  V30 36 H 2.514480 -2.416667 2.792772 0
M  V30 37 H 1.428397 -4.632732 2.993815 0
M  V30 END ATOM
M  V30 BEGIN BOND
M  V30 1 1 1 2
M  V30 2 2 2 3
M  V30 3 1 3 4
M  V30 4 1 4 5
M  V30 5 1 5 6
M  V30 6 2 6 7
M  V30 7 1 7 8
M  V30 8 1 7 9
M  V30 9 1 9 10
M  V30 10 1 10 11
M  V30 11 2 11 12
M  V30 12 1 12 13
M  V30 13 2 13 14
M  V30 14 1 14 15
M  V30 15 2 15 16
M  V30 16 1 16 17
M  V30 17 2 17 18
M  V30 18 1 18 19
M  V30 19 2 19 20
M  V30 20 2 4 21
M  V30 21 1 21 22
M  V30 22 2 22 23
M  V30 23 1 23 24
M  V30 24 1 23 2
M  V30 25 2 10 5
M  V30 26 1 20 11
M  V30 27 1 19 14
M  V30 28 1 1 25
M  V30 29 1 1 26
M  V30 30 1 1 27
M  V30 31 1 8 28
M  V30 32 1 8 29
M  V30 33 1 9 30
M  V30 34 1 12 31
M  V30 35 1 13 32
M  V30 36 1 16 33
M  V30 37 1 17 34
M  V30 38 1 20 35
M  V30 39 1 21 36
M  V30 40 1 22 37
M  V30 END BOND
M  V30 END CTAB
M  END
>  <Dataset>  (404) 
ChEMBL_Kinases

>  <Ligand_Instance>  (404) 
nan

>  <PDB_ID>  (404) 
nan

>  <Standardized_SMILES>  (404) 
Cc1nc(-c2nc(N)[nH]c2-c2ccc3nccnc3c2)ccc1F

>  <Name>  (404) 
nan

>  <Pocket>  (404) 
nan

>  <ATP_Site>  (404) 
nan

>  <Peripheral>  (404) 
nan

>  <Num_H_Atoms_ProtBoundConf>  (404) 
nan

>  <Num_Resolved_Atoms>  (404) 
nan

>  <Num_Not_Resolved_Atoms>  (404) 
nan

$$$$
CHEMBL4097123
     RDKit          3D

  0  0  0  0  0  0  0  0  0  0999 V3000
M  V30 BEGIN CTAB
M  V30 COUNTS 61 64 0 0 0
M  V30 BEGIN ATOM
M  V30 1 C 6.297744 -2.155795 5.371404 0
M  V30 2 O 6.314592 -0.751231 5.288293 0
M  V30 3 C 5.733140 -0.049656 4.240344 0
M  V30 4 C 5.097071 -0.716916 3.208363 0
M  V30 5 C 4.524616 -0.004624 2.175086 0
M  V30 6 C 3.860616 -0.587981 1.090046 0
M  V30 7 C 3.314498 0.229337 0.094169 0
M  V30 8 O 2.674872 -0.410222 -0.945512 0
M  V30 9 C 1.362880 -0.289260 -1.308334 0
M  V30 10 C 0.327595 0.428345 -0.747698 0
M  V30 11 C -0.941442 0.408943 -1.285980 0
M  V30 12 C -1.201163 -0.341535 -2.413431 0
M  V30 13 N -2.577531 -0.233202 -2.820216 0
M  V30 14 C -3.395894 -1.218951 -2.220805 0
M  V30 15 O -2.816533 -2.018651 -1.447258 0
M  V30 16 N -4.790481 -1.359500 -2.430444 0
M  V30 17 C -5.707363 -2.295246 -1.894611 0
M  V30 18 C -7.015916 -2.215786 -2.251638 0
M  V30 19 C -7.958723 -3.093750 -1.768341 0
M  V30 20 C -9.364299 -2.922051 -2.219914 0
M  V30 21 F -9.649225 -1.573963 -2.095242 0
M  V30 22 F -10.236641 -3.699123 -1.490669 0
M  V30 23 F -9.420102 -3.232876 -3.559183 0
M  V30 24 C -7.626477 -4.104950 -0.892989 0
M  V30 25 C -6.307782 -4.218072 -0.507020 0
M  V30 26 C -5.917586 -5.285215 0.424994 0
M  V30 27 F -4.812876 -6.008990 -0.008445 0
M  V30 28 F -5.573685 -4.790205 1.676909 0
M  V30 29 F -6.933246 -6.182006 0.588247 0
M  V30 30 C -5.405888 -3.312124 -1.021659 0
M  V30 31 C -0.192516 -1.073062 -3.003511 0
M  V30 32 C 1.070308 -1.042162 -2.452217 0
M  V30 33 C 3.412577 1.604777 0.151102 0
M  V30 34 C 2.840156 2.475863 -0.908412 0
M  V30 35 N 4.051288 2.164010 1.195251 0
M  V30 36 C 4.574588 1.374486 2.150391 0
M  V30 37 C 5.218504 2.026996 3.196890 0
M  V30 38 C 5.803561 1.327330 4.250801 0
M  V30 39 O 6.451914 1.952805 5.307179 0
M  V30 40 C 6.586272 3.340007 5.425933 0
M  V30 41 H 7.167571 -2.506426 4.753920 0
M  V30 42 H 5.370001 -2.607511 5.018190 0
M  V30 43 H 6.421031 -2.483464 6.430593 0
M  V30 44 H 5.030156 -1.790679 3.179681 0
M  V30 45 H 3.795024 -1.662516 1.064038 0
M  V30 46 H 0.610155 0.976124 0.119086 0
M  V30 47 H -1.645741 1.013471 -0.746193 0
M  V30 48 H -3.032042 0.456759 -3.478637 0
M  V30 49 H -5.135447 -0.630906 -3.092303 0
M  V30 50 H -7.330217 -1.438016 -2.937969 0
M  V30 51 H -8.351399 -4.800303 -0.505405 0
M  V30 52 H -4.393123 -3.453858 -0.681886 0
M  V30 53 H -0.500562 -1.620063 -3.872912 0
M  V30 54 H 1.774147 -1.662886 -3.014251 0
M  V30 55 H 3.560160 3.262729 -1.225874 0
M  V30 56 H 2.665381 1.862548 -1.834122 0
M  V30 57 H 1.906683 2.960661 -0.561422 0
M  V30 58 H 5.327391 3.116900 3.295593 0
M  V30 59 H 5.708094 3.855844 5.841862 0
M  V30 60 H 6.896808 3.797888 4.445088 0
M  V30 61 H 7.456689 3.547295 6.096480 0
M  V30 END ATOM
M  V30 BEGIN BOND
M  V30 1 1 1 2
M  V30 2 1 2 3
M  V30 3 2 3 4
M  V30 4 1 4 5
M  V30 5 2 5 6
M  V30 6 1 6 7
M  V30 7 1 7 8
M  V30 8 1 8 9
M  V30 9 2 9 10
M  V30 10 1 10 11
M  V30 11 2 11 12
M  V30 12 1 12 13
M  V30 13 1 13 14
M  V30 14 2 14 15
M  V30 15 1 14 16
M  V30 16 1 16 17
M  V30 17 2 17 18
M  V30 18 1 18 19
M  V30 19 1 19 20
M  V30 20 1 20 21
M  V30 21 1 20 22
M  V30 22 1 20 23
M  V30 23 2 19 24
M  V30 24 1 24 25
M  V30 25 1 25 26
M  V30 26 1 26 27
M  V30 27 1 26 28
M  V30 28 1 26 29
M  V30 29 2 25 30
M  V30 30 1 12 31
M  V30 31 2 31 32
M  V30 32 2 7 33
M  V30 33 1 33 34
M  V30 34 1 33 35
M  V30 35 2 35 36
M  V30 36 1 36 37
M  V30 37 2 37 38
M  V30 38 1 38 39
M  V30 39 1 39 40
M  V30 40 1 38 3
M  V30 41 1 36 5
M  V30 42 1 32 9
M  V30 43 1 30 17
M  V30 44 1 1 41
M  V30 45 1 1 42
M  V30 46 1 1 43
M  V30 47 1 4 44
M  V30 48 1 6 45
M  V30 49 1 10 46
M  V30 50 1 11 47
M  V30 51 1 13 48
M  V30 52 1 16 49
M  V30 53 1 18 50
M  V30 54 1 24 51
M  V30 55 1 30 52
M  V30 56 1 31 53
M  V30 57 1 32 54
M  V30 58 1 34 55
M  V30 59 1 34 56
M  V30 60 1 34 57
M  V30 61 1 37 58
M  V30 62 1 40 59
M  V30 63 1 40 60
M  V30 64 1 40 61
M  V30 END BOND
M  V30 END CTAB
M  END
>  <Dataset>  (405) 
ChEMBL_Kinases

>  <Ligand_Instance>  (405) 
nan

>  <PDB_ID>  (405) 
nan

>  <Standardized_SMILES>  (405) 
COc1cc2cc(Oc3ccc(NC(=O)Nc4cc(C(F)(F)F)cc(C(F)(F)F)c4)cc3)c(C)nc2cc1OC

>  <Name>  (405) 
nan

>  <Pocket>  (405) 
nan

>  <ATP_Site>  (405) 
nan

>  <Peripheral>  (405) 
nan

>  <Num_H_Atoms_ProtBoundConf>  (405) 
nan

>  <Num_Resolved_Atoms>  (405) 
nan

>  <Num_Not_Resolved_Atoms>  (405) 
nan

$$$$
CHEMBL4097047
     RDKit          3D

  0  0  0  0  0  0  0  0  0  0999 V3000
M  V30 BEGIN CTAB
M  V30 COUNTS 29 31 0 0 0
M  V30 BEGIN ATOM
M  V30 1 C 0.129789 -0.880305 4.858053 0
M  V30 2 S 1.105613 0.265854 3.899688 0
M  V30 3 O 2.492917 0.231786 4.522589 0
M  V30 4 O 0.614314 1.658902 3.965171 0
M  V30 5 C 1.228267 -0.399321 2.304784 0
M  V30 6 S 2.554293 -1.467983 1.799036 0
M  V30 7 C 1.991286 -1.716100 0.107110 0
M  V30 8 C 2.728518 -2.537457 -0.792126 0
M  V30 9 N 2.239705 -2.696038 -2.106579 0
M  V30 10 O 3.783478 -3.103435 -0.423130 0
M  V30 11 C 0.810479 -0.952292 0.048119 0
M  V30 12 C 0.448173 -0.296544 1.174595 0
M  V30 13 C -0.792921 0.518101 1.145175 0
M  V30 14 S -1.620047 1.473171 2.276612 0
M  V30 15 N -3.015863 1.990548 1.171204 0
M  V30 16 C -2.591992 1.303465 0.046667 0
M  V30 17 C -1.484499 0.537238 -0.056438 0
M  V30 18 C -1.141770 -0.141774 -1.319207 0
M  V30 19 C 0.086145 -0.948774 -1.238373 0
M  V30 20 H 0.755507 -1.689038 5.286518 0
M  V30 21 H -0.628032 -1.408278 4.217559 0
M  V30 22 H -0.412820 -0.390773 5.676424 0
M  V30 23 H 2.459306 -3.371463 -2.871244 0
M  V30 24 H 1.889468 -2.824340 -3.075034 0
M  V30 25 H -3.412391 1.596030 -0.634717 0
M  V30 26 H -2.024092 -0.738486 -1.688914 0
M  V30 27 H -1.005615 0.645478 -2.098682 0
M  V30 28 H 0.756224 -0.691018 -2.096087 0
M  V30 29 H -0.220544 -2.019551 -1.450079 0
M  V30 END ATOM
M  V30 BEGIN BOND
M  V30 1 1 1 2
M  V30 2 2 2 3
M  V30 3 2 2 4
M  V30 4 1 2 5
M  V30 5 1 5 6
M  V30 6 1 6 7
M  V30 7 1 7 8
M  V30 8 1 8 9
M  V30 9 2 8 10
M  V30 10 2 7 11
M  V30 11 1 11 12
M  V30 12 1 12 13
M  V30 13 1 13 14
M  V30 14 1 14 15
M  V30 15 2 15 16
M  V30 16 1 16 17
M  V30 17 1 17 18
M  V30 18 1 18 19
M  V30 19 2 12 5
M  V30 20 2 17 13
M  V30 21 1 19 11
M  V30 22 1 1 20
M  V30 23 1 1 21
M  V30 24 1 1 22
M  V30 25 1 9 23
M  V30 26 1 9 24
M  V30 27 1 16 25
M  V30 28 1 18 26
M  V30 29 1 18 27
M  V30 30 1 19 28
M  V30 31 1 19 29
M  V30 END BOND
M  V30 END CTAB
M  END
>  <Dataset>  (406) 
ChEMBL_Kinases

>  <Ligand_Instance>  (406) 
nan

>  <PDB_ID>  (406) 
nan

>  <Standardized_SMILES>  (406) 
CS(=O)(=O)c1sc(C(N)=O)c2c1-c1sncc1CC2

>  <Name>  (406) 
nan

>  <Pocket>  (406) 
nan

>  <ATP_Site>  (406) 
nan

>  <Peripheral>  (406) 
nan

>  <Num_H_Atoms_ProtBoundConf>  (406) 
nan

>  <Num_Resolved_Atoms>  (406) 
nan

>  <Num_Not_Resolved_Atoms>  (406) 
nan

$$$$
CHEMBL4096984
     RDKit          3D

  0  0  0  0  0  0  0  0  0  0999 V3000
M  V30 BEGIN CTAB
M  V30 COUNTS 46 49 0 0 0
M  V30 BEGIN ATOM
M  V30 1 C 1.233313 -4.192980 1.936365 0
M  V30 2 N 0.028284 -3.446954 1.645517 0
M  V30 3 C 0.253368 -2.256124 1.016582 0
M  V30 4 N 1.497940 -1.682367 0.622404 0
M  V30 5 C 1.685419 -1.971556 -0.790518 0
M  V30 6 C 2.884870 -1.261334 -1.351251 0
M  V30 7 N 2.921174 0.072998 -0.868860 0
M  V30 8 C 3.003254 0.260497 0.533900 0
M  V30 9 C 2.301070 1.514195 0.988413 0
M  V30 10 C 0.997992 1.793415 0.554895 0
M  V30 11 C 0.412707 2.971851 1.008705 0
M  V30 12 C 1.056855 3.839627 1.842515 0
M  V30 13 F 0.397127 4.962013 2.228290 0
M  V30 14 C 2.339155 3.584974 2.281673 0
M  V30 15 C 2.895787 2.433070 1.830208 0
M  V30 16 C 2.514542 -0.934244 1.329739 0
M  V30 17 N -0.790167 -1.482826 0.692501 0
M  V30 18 C -2.070559 -1.730546 0.911149 0
M  V30 19 C -3.211005 -0.913286 0.550306 0
M  V30 20 C -3.137173 0.289022 -0.107396 0
M  V30 21 C -4.249604 1.061400 -0.447655 0
M  V30 22 N -5.438661 0.551833 -0.086294 0
M  V30 23 C -5.552558 -0.609944 0.552681 0
M  V30 24 N -4.459518 -1.323074 0.862113 0
M  V30 25 C -2.264710 -2.935263 1.545313 0
M  V30 26 C -1.249219 -3.776228 1.906187 0
M  V30 27 O -1.377030 -4.883473 2.484825 0
M  V30 28 H 1.793384 -4.473634 1.029586 0
M  V30 29 H 0.898489 -5.190156 2.354525 0
M  V30 30 H 1.845838 -3.745458 2.745259 0
M  V30 31 H 1.627911 -3.035841 -1.038053 0
M  V30 32 H 0.798764 -1.508601 -1.317670 0
M  V30 33 H 3.808911 -1.840633 -1.225179 0
M  V30 34 H 2.724321 -1.192119 -2.460416 0
M  V30 35 H 2.480866 0.794198 -1.436203 0
M  V30 36 H 4.066680 0.413212 0.804083 0
M  V30 37 H 0.494736 1.097951 -0.102403 0
M  V30 38 H -0.599705 3.168322 0.661505 0
M  V30 39 H 2.846581 4.282837 2.949371 0
M  V30 40 H 3.913685 2.197173 2.157824 0
M  V30 41 H 2.161335 -0.545742 2.298192 0
M  V30 42 H 3.381741 -1.617670 1.430095 0
M  V30 43 H -2.125651 0.638937 -0.368774 0
M  V30 44 H -4.144864 2.000949 -0.967190 0
M  V30 45 H -6.463396 -1.092304 0.879993 0
M  V30 46 H -3.243985 -3.332584 1.821046 0
M  V30 END ATOM
M  V30 BEGIN BOND
M  V30 1 1 1 2
M  V30 2 1 2 3
M  V30 3 1 3 4
M  V30 4 1 4 5
M  V30 5 1 5 6
M  V30 6 1 6 7
M  V30 7 1 7 8
M  V30 8 1 8 9
M  V30 9 2 9 10
M  V30 10 1 10 11
M  V30 11 2 11 12
M  V30 12 1 12 13
M  V30 13 1 12 14
M  V30 14 2 14 15
M  V30 15 1 8 16
M  V30 16 2 3 17
M  V30 17 1 17 18
M  V30 18 1 18 19
M  V30 19 2 19 20
M  V30 20 1 20 21
M  V30 21 2 21 22
M  V30 22 1 22 23
M  V30 23 2 23 24
M  V30 24 2 18 25
M  V30 25 1 25 26
M  V30 26 2 26 27
M  V30 27 1 26 2
M  V30 28 1 16 4
M  V30 29 1 24 19
M  V30 30 1 15 9
M  V30 31 1 1 28
M  V30 32 1 1 29
M  V30 33 1 1 30
M  V30 34 1 5 31
M  V30 35 1 5 32
M  V30 36 1 6 33
M  V30 37 1 6 34
M  V30 38 1 7 35
M  V30 39 1 8 36
M  V30 40 1 10 37
M  V30 41 1 11 38
M  V30 42 1 14 39
M  V30 43 1 15 40
M  V30 44 1 16 41
M  V30 45 1 16 42
M  V30 46 1 20 43
M  V30 47 1 21 44
M  V30 48 1 23 45
M  V30 49 1 25 46
M  V30 END BOND
M  V30 END CTAB
M  END
>  <Dataset>  (407) 
ChEMBL_Kinases

>  <Ligand_Instance>  (407) 
nan

>  <PDB_ID>  (407) 
nan

>  <Standardized_SMILES>  (407) 
Cn1c(N2CCNC(c3ccc(F)cc3)C2)nc(-c2ccncn2)cc1=O

>  <Name>  (407) 
nan

>  <Pocket>  (407) 
nan

>  <ATP_Site>  (407) 
nan

>  <Peripheral>  (407) 
nan

>  <Num_H_Atoms_ProtBoundConf>  (407) 
nan

>  <Num_Resolved_Atoms>  (407) 
nan

>  <Num_Not_Resolved_Atoms>  (407) 
nan

$$$$
CHEMBL480746
     RDKit          3D

  0  0  0  0  0  0  0  0  0  0999 V3000
M  V30 BEGIN CTAB
M  V30 COUNTS 41 44 0 0 0
M  V30 BEGIN ATOM
M  V30 1 O -0.380208 -1.840099 -0.246988 0
M  V30 2 C 0.036582 -2.669481 0.633596 0
M  V30 3 N 1.285088 -2.236337 1.159344 0
M  V30 4 C 1.761786 -1.000894 0.585457 0
M  V30 5 C 2.572932 -0.943629 -0.549136 0
M  V30 6 C 2.972715 0.298000 -1.014577 0
M  V30 7 F 3.750086 0.356697 -2.101627 0
M  V30 8 C 2.600774 1.477664 -0.401150 0
M  V30 9 C 2.994420 2.782474 -0.853103 0
M  V30 10 C 4.034591 3.682760 -0.640957 0
M  V30 11 N 3.842001 4.794777 -1.386159 0
M  V30 12 N 2.700572 4.618199 -2.066869 0
M  V30 13 C 2.154633 3.417191 -1.776049 0
M  V30 14 C 1.787716 1.446227 0.738120 0
M  V30 15 F 1.358658 2.524918 1.423936 0
M  V30 16 C 1.387236 0.190099 1.203425 0
M  V30 17 C -0.519705 -3.934664 1.175511 0
M  V30 18 C -1.848020 -4.276556 0.530032 0
M  V30 19 O -2.773637 -3.267441 0.812874 0
M  V30 20 C -2.553147 -2.198435 1.682440 0
M  V30 21 C -3.288726 -1.014377 1.589302 0
M  V30 22 C -3.049024 0.042371 2.472336 0
M  V30 23 C -2.061262 -0.181756 3.404735 0
M  V30 24 C -1.316848 -1.323191 3.532591 0
M  V30 25 C -1.576117 -2.348389 2.647112 0
M  V30 26 C -0.860808 -3.657334 2.644573 0
M  V30 27 H 1.774646 -2.812384 1.905451 0
M  V30 28 H 2.847242 -1.884017 -1.006981 0
M  V30 29 H 4.805476 3.378947 0.052328 0
M  V30 30 H 2.404057 5.407961 -2.705016 0
M  V30 31 H 1.219890 3.121329 -2.249993 0
M  V30 32 H 0.752192 0.123059 2.089984 0
M  V30 33 H 0.230459 -4.719560 1.106338 0
M  V30 34 H -1.707634 -4.322828 -0.578065 0
M  V30 35 H -2.172555 -5.259316 0.872962 0
M  V30 36 H -4.052148 -0.906962 0.829783 0
M  V30 37 H -3.609552 0.969102 2.415818 0
M  V30 38 H -1.818055 0.603177 4.130889 0
M  V30 39 H -0.551394 -1.468150 4.272118 0
M  V30 40 H -1.597557 -4.440038 2.931382 0
M  V30 41 H 0.015477 -3.625166 3.289315 0
M  V30 END ATOM
M  V30 BEGIN BOND
M  V30 1 2 1 2
M  V30 2 1 2 3
M  V30 3 1 3 4
M  V30 4 2 4 5
M  V30 5 1 5 6
M  V30 6 1 6 7
M  V30 7 2 6 8
M  V30 8 1 8 9
M  V30 9 1 9 10
M  V30 10 2 10 11
M  V30 11 1 11 12
M  V30 12 1 12 13
M  V30 13 1 8 14
M  V30 14 1 14 15
M  V30 15 2 14 16
M  V30 16 1 2 17
M  V30 17 1 17 18
M  V30 18 1 18 19
M  V30 19 1 19 20
M  V30 20 2 20 21
M  V30 21 1 21 22
M  V30 22 2 22 23
M  V30 23 1 23 24
M  V30 24 2 24 25
M  V30 25 1 25 26
M  V30 26 1 16 4
M  V30 27 1 26 17
M  V30 28 2 13 9
M  V30 29 1 25 20
M  V30 30 1 3 27
M  V30 31 1 5 28
M  V30 32 1 10 29
M  V30 33 1 12 30
M  V30 34 1 13 31
M  V30 35 1 16 32
M  V30 36 1 17 33
M  V30 37 1 18 34
M  V30 38 1 18 35
M  V30 39 1 21 36
M  V30 40 1 22 37
M  V30 41 1 23 38
M  V30 42 1 24 39
M  V30 43 1 26 40
M  V30 44 1 26 41
M  V30 END BOND
M  V30 END CTAB
M  END
>  <Dataset>  (408) 
ChEMBL_Kinases

>  <Ligand_Instance>  (408) 
nan

>  <PDB_ID>  (408) 
nan

>  <Standardized_SMILES>  (408) 
O=C(Nc1cc(F)c(-c2cn[nH]c2)c(F)c1)C1COc2ccccc2C1

>  <Name>  (408) 
nan

>  <Pocket>  (408) 
nan

>  <ATP_Site>  (408) 
nan

>  <Peripheral>  (408) 
nan

>  <Num_H_Atoms_ProtBoundConf>  (408) 
nan

>  <Num_Resolved_Atoms>  (408) 
nan

>  <Num_Not_Resolved_Atoms>  (408) 
nan

$$$$
CHEMBL409695
     RDKit          3D

  0  0  0  0  0  0  0  0  0  0999 V3000
M  V30 BEGIN CTAB
M  V30 COUNTS 72 74 0 0 0
M  V30 BEGIN ATOM
M  V30 1 C 0.820389 1.919863 2.016548 0
M  V30 2 C -0.303576 0.959887 2.122456 0
M  V30 3 C 0.037436 -0.313293 2.215970 0
M  V30 4 C 1.413038 -0.790056 2.224861 0
M  V30 5 O 2.016209 -1.868086 2.301286 0
M  V30 6 O 2.600034 -0.098485 2.140485 0
M  V30 7 C 3.873626 -0.658262 2.158670 0
M  V30 8 C 4.878991 0.457716 2.042906 0
M  V30 9 C 5.398852 0.971037 0.888262 0
M  V30 10 C 6.316084 1.999534 0.937269 0
M  V30 11 C 6.751677 2.556013 2.117492 0
M  V30 12 C 6.251934 2.066923 3.302215 0
M  V30 13 C 5.330960 1.032954 3.230638 0
M  V30 14 C -0.797801 -1.529939 2.288612 0
M  V30 15 C -0.756549 -2.356818 1.049974 0
M  V30 16 C -1.692429 -3.398389 1.068840 0
M  V30 17 C -1.803645 -4.262761 -0.002481 0
M  V30 18 C -0.997445 -4.131167 -1.128489 0
M  V30 19 C -1.068122 -5.026173 -2.309130 0
M  V30 20 C -0.111787 -6.160983 -2.069878 0
M  V30 21 C -2.457264 -5.624311 -2.477811 0
M  V30 22 C -0.767887 -4.287118 -3.593639 0
M  V30 23 C -0.077950 -3.100658 -1.136948 0
M  V30 24 C 0.031769 -2.242106 -0.072085 0
M  V30 25 N -2.217148 -1.166799 2.433411 0
M  V30 26 C -2.638300 0.188798 2.328650 0
M  V30 27 O -3.857146 0.419712 2.375393 0
M  V30 28 N -1.692559 1.242809 2.176051 0
M  V30 29 C -2.100749 2.604328 2.064580 0
M  V30 30 C -2.304679 3.014217 0.636463 0
M  V30 31 C -3.361622 2.207043 -0.088777 0
M  V30 32 C -3.423405 2.753755 -1.493015 0
M  V30 33 C -4.414378 2.098832 -2.383541 0
M  V30 34 C -4.220605 0.668639 -2.643781 0
M  V30 35 O -3.188355 0.110924 -2.134170 0
M  V30 36 O -4.022982 -0.677000 -2.878856 0
M  V30 37 H 1.450319 1.766230 2.940932 0
M  V30 38 H 0.488045 2.949882 2.053900 0
M  V30 39 H 1.486367 1.691562 1.158114 0
M  V30 40 H 4.050137 -1.186626 3.120119 0
M  V30 41 H 4.008294 -1.408801 1.338140 0
M  V30 42 H 5.029344 0.504064 -0.022074 0
M  V30 43 H 6.705736 2.380225 -0.001936 0
M  V30 44 H 7.474194 3.364479 2.126844 0
M  V30 45 H 6.560086 2.467458 4.254563 0
M  V30 46 H 4.954839 0.668586 4.187843 0
M  V30 47 H -0.589526 -2.151960 3.202446 0
M  V30 48 H -2.422264 -3.697562 1.830489 0
M  V30 49 H -2.488266 -5.102779 -0.102041 0
M  V30 50 H 0.108706 -6.742972 -2.995773 0
M  V30 51 H -0.665299 -6.891144 -1.410772 0
M  V30 52 H 0.806149 -5.874084 -1.524770 0
M  V30 53 H -2.554727 -6.598649 -1.938864 0
M  V30 54 H -3.177513 -4.875077 -2.140378 0
M  V30 55 H -2.665952 -5.857956 -3.544580 0
M  V30 56 H 0.332944 -4.108580 -3.731507 0
M  V30 57 H -1.048381 -4.941262 -4.444816 0
M  V30 58 H -1.356974 -3.375378 -3.673057 0
M  V30 59 H 0.602269 -2.897648 -1.953599 0
M  V30 60 H 0.722506 -1.429054 -0.039846 0
M  V30 61 H -2.923902 -1.897278 2.614654 0
M  V30 62 H -1.409806 3.297655 2.564164 0
M  V30 63 H -3.092299 2.700128 2.585395 0
M  V30 64 H -1.383553 2.916791 0.027341 0
M  V30 65 H -2.581570 4.091722 0.603551 0
M  V30 66 H -3.036350 1.154618 -0.135954 0
M  V30 67 H -4.347287 2.272574 0.419981 0
M  V30 68 H -3.691192 3.841243 -1.429087 0
M  V30 69 H -2.405073 2.764244 -1.967310 0
M  V30 70 H -4.382746 2.635854 -3.374092 0
M  V30 71 H -5.433749 2.291578 -1.971038 0
M  V30 72 H -4.685854 -1.220799 -3.464782 0
M  V30 END ATOM
M  V30 BEGIN BOND
M  V30 1 1 1 2
M  V30 2 2 2 3
M  V30 3 1 3 4
M  V30 4 2 4 5
M  V30 5 1 4 6
M  V30 6 1 6 7
M  V30 7 1 7 8
M  V30 8 2 8 9
M  V30 9 1 9 10
M  V30 10 2 10 11
M  V30 11 1 11 12
M  V30 12 2 12 13
M  V30 13 1 3 14
M  V30 14 1 14 15
M  V30 15 2 15 16
M  V30 16 1 16 17
M  V30 17 2 17 18
M  V30 18 1 18 19
M  V30 19 1 19 20
M  V30 20 1 19 21
M  V30 21 1 19 22
M  V30 22 1 18 23
M  V30 23 2 23 24
M  V30 24 1 14 25
M  V30 25 1 25 26
M  V30 26 2 26 27
M  V30 27 1 26 28
M  V30 28 1 28 29
M  V30 29 1 29 30
M  V30 30 1 30 31
M  V30 31 1 31 32
M  V30 32 1 32 33
M  V30 33 1 33 34
M  V30 34 2 34 35
M  V30 35 1 34 36
M  V30 36 1 28 2
M  V30 37 1 13 8
M  V30 38 1 24 15
M  V30 39 1 1 37
M  V30 40 1 1 38
M  V30 41 1 1 39
M  V30 42 1 7 40
M  V30 43 1 7 41
M  V30 44 1 9 42
M  V30 45 1 10 43
M  V30 46 1 11 44
M  V30 47 1 12 45
M  V30 48 1 13 46
M  V30 49 1 14 47
M  V30 50 1 16 48
M  V30 51 1 17 49
M  V30 52 1 20 50
M  V30 53 1 20 51
M  V30 54 1 20 52
M  V30 55 1 21 53
M  V30 56 1 21 54
M  V30 57 1 21 55
M  V30 58 1 22 56
M  V30 59 1 22 57
M  V30 60 1 22 58
M  V30 61 1 23 59
M  V30 62 1 24 60
M  V30 63 1 25 61
M  V30 64 1 29 62
M  V30 65 1 29 63
M  V30 66 1 30 64
M  V30 67 1 30 65
M  V30 68 1 31 66
M  V30 69 1 31 67
M  V30 70 1 32 68
M  V30 71 1 32 69
M  V30 72 1 33 70
M  V30 73 1 33 71
M  V30 74 1 36 72
M  V30 END BOND
M  V30 END CTAB
M  END
>  <Dataset>  (409) 
ChEMBL_Kinases

>  <Ligand_Instance>  (409) 
nan

>  <PDB_ID>  (409) 
nan

>  <Standardized_SMILES>  (409) 
CC1=C(C(=O)OCc2ccccc2)C(c2ccc(C(C)(C)C)cc2)NC(=O)N1CCCCCC(=O)O

>  <Name>  (409) 
nan

>  <Pocket>  (409) 
nan

>  <ATP_Site>  (409) 
nan

>  <Peripheral>  (409) 
nan

>  <Num_H_Atoms_ProtBoundConf>  (409) 
nan

>  <Num_Resolved_Atoms>  (409) 
nan

>  <Num_Not_Resolved_Atoms>  (409) 
nan

$$$$
CHEMBL480787
     RDKit          3D

  0  0  0  0  0  0  0  0  0  0999 V3000
M  V30 BEGIN CTAB
M  V30 COUNTS 45 48 0 0 0
M  V30 BEGIN ATOM
M  V30 1 C -1.183576 -3.072568 4.054066 0
M  V30 2 O 0.016356 -3.817212 3.963789 0
M  V30 3 C 0.981128 -3.502042 3.003812 0
M  V30 4 N 2.109915 -4.226799 2.942695 0
M  V30 5 C 3.082145 -3.982206 2.046342 0
M  V30 6 C 2.927538 -2.946894 1.145534 0
M  V30 7 C 1.771967 -2.196869 1.200153 0
M  V30 8 C 1.353391 -1.059248 0.377181 0
M  V30 9 N 1.956758 0.137439 0.228259 0
M  V30 10 C 1.244741 0.915292 -0.628203 0
M  V30 11 C 1.616001 2.314470 -1.032443 0
M  V30 12 C 0.986283 3.252654 -0.067452 0
M  V30 13 C 1.733949 3.581615 1.052296 0
M  V30 14 C 1.256760 4.443742 2.021827 0
M  V30 15 C -0.004929 4.969302 1.829788 0
M  V30 16 C -0.759914 4.658229 0.732139 0
M  V30 17 C -2.076256 5.224411 0.559647 0
M  V30 18 N -3.141629 5.677481 0.438931 0
M  V30 19 C -0.272891 3.790132 -0.238783 0
M  V30 20 N 0.165164 0.188839 -1.028485 0
M  V30 21 C 0.220516 -1.028787 -0.416416 0
M  V30 22 C -0.714707 -2.147470 -0.531376 0
M  V30 23 C -0.112518 -3.283271 -1.073401 0
M  V30 24 C -0.838203 -4.447950 -1.260806 0
M  V30 25 C -2.175162 -4.449233 -0.894609 0
M  V30 26 F -2.902946 -5.576597 -1.069356 0
M  V30 27 C -2.769307 -3.320251 -0.357168 0
M  V30 28 C -2.031812 -2.173724 -0.178976 0
M  V30 29 N 0.817603 -2.487541 2.129327 0
M  V30 30 H -0.974480 -2.063324 4.426516 0
M  V30 31 H -1.638675 -3.079733 3.029211 0
M  V30 32 H -1.851381 -3.624029 4.749184 0
M  V30 33 H 4.012000 -4.525270 1.944147 0
M  V30 34 H 3.594479 -2.607086 0.363797 0
M  V30 35 H 2.857947 0.435340 0.708153 0
M  V30 36 H 2.722424 2.397724 -0.981324 0
M  V30 37 H 1.247220 2.499144 -2.073348 0
M  V30 38 H 2.734542 3.155530 1.189279 0
M  V30 39 H 1.856334 4.685148 2.884664 0
M  V30 40 H -0.440791 5.659862 2.563148 0
M  V30 41 H -0.844346 3.511176 -1.137966 0
M  V30 42 H 0.922939 -3.367543 -1.385263 0
M  V30 43 H -0.424086 -5.354821 -1.675563 0
M  V30 44 H -3.811145 -3.282336 -0.059104 0
M  V30 45 H -2.390511 -1.247731 0.226303 0
M  V30 END ATOM
M  V30 BEGIN BOND
M  V30 1 1 1 2
M  V30 2 1 2 3
M  V30 3 2 3 4
M  V30 4 1 4 5
M  V30 5 2 5 6
M  V30 6 1 6 7
M  V30 7 1 7 8
M  V30 8 1 8 9
M  V30 9 1 9 10
M  V30 10 1 10 11
M  V30 11 1 11 12
M  V30 12 2 12 13
M  V30 13 1 13 14
M  V30 14 2 14 15
M  V30 15 1 15 16
M  V30 16 1 16 17
M  V30 17 3 17 18
M  V30 18 2 16 19
M  V30 19 2 10 20
M  V30 20 1 20 21
M  V30 21 1 21 22
M  V30 22 2 22 23
M  V30 23 1 23 24
M  V30 24 2 24 25
M  V30 25 1 25 26
M  V30 26 1 25 27
M  V30 27 2 27 28
M  V30 28 2 7 29
M  V30 29 1 29 3
M  V30 30 2 21 8
M  V30 31 1 28 22
M  V30 32 1 19 12
M  V30 33 1 1 30
M  V30 34 1 1 31
M  V30 35 1 1 32
M  V30 36 1 5 33
M  V30 37 1 6 34
M  V30 38 1 9 35
M  V30 39 1 11 36
M  V30 40 1 11 37
M  V30 41 1 13 38
M  V30 42 1 14 39
M  V30 43 1 15 40
M  V30 44 1 19 41
M  V30 45 1 23 42
M  V30 46 1 24 43
M  V30 47 1 27 44
M  V30 48 1 28 45
M  V30 END BOND
M  V30 END CTAB
M  END
>  <Dataset>  (410) 
ChEMBL_Kinases

>  <Ligand_Instance>  (410) 
nan

>  <PDB_ID>  (410) 
nan

>  <Standardized_SMILES>  (410) 
COc1nccc(-c2[nH]c(Cc3cccc(C#N)c3)nc2-c2ccc(F)cc2)n1

>  <Name>  (410) 
nan

>  <Pocket>  (410) 
nan

>  <ATP_Site>  (410) 
nan

>  <Peripheral>  (410) 
nan

>  <Num_H_Atoms_ProtBoundConf>  (410) 
nan

>  <Num_Resolved_Atoms>  (410) 
nan

>  <Num_Not_Resolved_Atoms>  (410) 
nan

$$$$
CHEMBL4096722
     RDKit          3D

  0  0  0  0  0  0  0  0  0  0999 V3000
M  V30 BEGIN CTAB
M  V30 COUNTS 65 69 0 0 0
M  V30 BEGIN ATOM
M  V30 1 C 8.501236 3.403126 4.675527 0
M  V30 2 N 7.145666 3.329385 4.118322 0
M  V30 3 C 6.846426 3.786253 2.812774 0
M  V30 4 O 7.863871 4.257654 2.198529 0
M  V30 5 C 5.549257 3.759567 2.164691 0
M  V30 6 C 5.463205 4.307180 0.881028 0
M  V30 7 C 4.221457 4.276957 0.245524 0
M  V30 8 C 3.077263 3.733561 0.820783 0
M  V30 9 C 3.278384 3.220270 2.091862 0
M  V30 10 C 4.461081 3.204489 2.799556 0
M  V30 11 C 2.235626 2.591694 2.905791 0
M  V30 12 O 2.403813 2.408338 4.165261 0
M  V30 13 C 0.926529 2.107096 2.433630 0
M  V30 14 C 0.463701 1.041555 3.219220 0
M  V30 15 C -0.745797 0.543019 2.793473 0
M  V30 16 C -1.511820 0.974543 1.713569 0
M  V30 17 N -2.695621 0.271506 1.527631 0
M  V30 18 C -3.554679 0.006524 0.438077 0
M  V30 19 C -3.708220 -1.358480 0.101753 0
M  V30 20 C -4.504279 -1.868642 -0.941032 0
M  V30 21 N -4.534016 -3.292057 -1.125001 0
M  V30 22 C -3.726189 -4.148664 -1.914770 0
M  V30 23 O -2.836677 -3.485456 -2.551568 0
M  V30 24 C -3.946372 -5.593471 -1.942094 0
M  V30 25 C -4.931559 -6.333590 -1.265390 0
M  V30 26 C -4.938389 -7.697245 -1.441231 0
M  V30 27 C -4.042604 -8.376086 -2.236077 0
M  V30 28 O -4.160327 -9.762031 -2.329377 0
M  V30 29 C -3.245648 -10.485674 -3.140663 0
M  V30 30 C -3.053134 -7.659530 -2.919180 0
M  V30 31 C -3.027123 -6.264474 -2.754284 0
M  V30 32 C -5.190165 -0.920932 -1.692171 0
M  V30 33 F -5.947836 -1.415169 -2.692212 0
M  V30 34 C -5.055567 0.412652 -1.382056 0
M  V30 35 C -4.266105 0.880179 -0.351133 0
M  V30 36 F -4.147904 2.193313 -0.046300 0
M  V30 37 C -0.934014 2.020270 1.044581 0
M  V30 38 C 0.262507 2.639320 1.329013 0
M  V30 39 C 0.581002 3.740606 0.431655 0
M  V30 40 C 1.952148 3.853500 -0.103617 0
M  V30 41 H 9.184053 3.935772 4.009269 0
M  V30 42 H 8.494790 3.947276 5.659359 0
M  V30 43 H 8.890380 2.384033 4.890648 0
M  V30 44 H 6.365472 2.935479 4.682367 0
M  V30 45 H 6.335683 4.730153 0.421812 0
M  V30 46 H 4.201658 4.718429 -0.762094 0
M  V30 47 H 4.510377 2.770324 3.804459 0
M  V30 48 H 1.047347 0.706443 4.046499 0
M  V30 49 H -1.058999 -0.284881 3.442535 0
M  V30 50 H -3.159730 -0.213037 2.355735 0
M  V30 51 H -3.164756 -2.107638 0.700809 0
M  V30 52 H -5.316019 -3.686964 -0.538787 0
M  V30 53 H -5.564867 -5.698273 -0.682658 0
M  V30 54 H -5.733943 -8.160900 -0.876500 0
M  V30 55 H -3.553890 -11.540725 -3.268802 0
M  V30 56 H -3.209509 -9.981028 -4.141719 0
M  V30 57 H -2.246135 -10.508701 -2.638188 0
M  V30 58 H -2.350662 -8.187865 -3.545288 0
M  V30 59 H -2.228648 -5.766036 -3.315521 0
M  V30 60 H -5.605756 1.139733 -1.988042 0
M  V30 61 H -1.503752 2.376822 0.199919 0
M  V30 62 H 0.384177 4.700639 1.003933 0
M  V30 63 H -0.118154 3.770616 -0.439881 0
M  V30 64 H 2.024800 4.913782 -0.523533 0
M  V30 65 H 2.165893 3.197683 -0.975635 0
M  V30 END ATOM
M  V30 BEGIN BOND
M  V30 1 1 1 2
M  V30 2 1 2 3
M  V30 3 2 3 4
M  V30 4 1 3 5
M  V30 5 2 5 6
M  V30 6 1 6 7
M  V30 7 2 7 8
M  V30 8 1 8 9
M  V30 9 2 9 10
M  V30 10 1 9 11
M  V30 11 2 11 12
M  V30 12 1 11 13
M  V30 13 2 13 14
M  V30 14 1 14 15
M  V30 15 2 15 16
M  V30 16 1 16 17
M  V30 17 1 17 18
M  V30 18 2 18 19
M  V30 19 1 19 20
M  V30 20 1 20 21
M  V30 21 1 21 22
M  V30 22 2 22 23
M  V30 23 1 22 24
M  V30 24 2 24 25
M  V30 25 1 25 26
M  V30 26 2 26 27
M  V30 27 1 27 28
M  V30 28 1 28 29
M  V30 29 1 27 30
M  V30 30 2 30 31
M  V30 31 2 20 32
M  V30 32 1 32 33
M  V30 33 1 32 34
M  V30 34 2 34 35
M  V30 35 1 35 36
M  V30 36 1 16 37
M  V30 37 2 37 38
M  V30 38 1 38 39
M  V30 39 1 39 40
M  V30 40 1 10 5
M  V30 41 1 38 13
M  V30 42 1 40 8
M  V30 43 1 35 18
M  V30 44 1 31 24
M  V30 45 1 1 41
M  V30 46 1 1 42
M  V30 47 1 1 43
M  V30 48 1 2 44
M  V30 49 1 6 45
M  V30 50 1 7 46
M  V30 51 1 10 47
M  V30 52 1 14 48
M  V30 53 1 15 49
M  V30 54 1 17 50
M  V30 55 1 19 51
M  V30 56 1 21 52
M  V30 57 1 25 53
M  V30 58 1 26 54
M  V30 59 1 29 55
M  V30 60 1 29 56
M  V30 61 1 29 57
M  V30 62 1 30 58
M  V30 63 1 31 59
M  V30 64 1 34 60
M  V30 65 1 37 61
M  V30 66 1 39 62
M  V30 67 1 39 63
M  V30 68 1 40 64
M  V30 69 1 40 65
M  V30 END BOND
M  V30 END CTAB
M  END
>  <Dataset>  (411) 
ChEMBL_Kinases

>  <Ligand_Instance>  (411) 
nan

>  <PDB_ID>  (411) 
nan

>  <Standardized_SMILES>  (411) 
CNC(=O)c1ccc2c(c1)C(=O)c1ccc(Nc3cc(NC(=O)c4ccc(OC)cc4)c(F)cc3F)cc1CC2

>  <Name>  (411) 
nan

>  <Pocket>  (411) 
nan

>  <ATP_Site>  (411) 
nan

>  <Peripheral>  (411) 
nan

>  <Num_H_Atoms_ProtBoundConf>  (411) 
nan

>  <Num_Resolved_Atoms>  (411) 
nan

>  <Num_Not_Resolved_Atoms>  (411) 
nan

$$$$
CHEMBL4096683
     RDKit          3D

  0  0  0  0  0  0  0  0  0  0999 V3000
M  V30 BEGIN CTAB
M  V30 COUNTS 47 50 0 0 0
M  V30 BEGIN ATOM
M  V30 1 N -0.073391 -5.139178 1.206169 0
M  V30 2 C 1.041955 -4.308581 0.990448 0
M  V30 3 O 2.144522 -4.891556 0.876792 0
M  V30 4 C 0.998404 -2.856484 0.893578 0
M  V30 5 C 2.170933 -2.165734 0.679896 0
M  V30 6 C 2.112735 -0.798369 0.591109 0
M  V30 7 C 0.988482 -0.024116 0.694089 0
M  V30 8 N 0.927740 1.377339 0.602466 0
M  V30 9 C 2.020171 2.296115 0.380015 0 CFG=1
M  V30 10 C 3.026445 2.148653 1.468114 0
M  V30 11 C 4.457246 2.101822 1.086886 0
M  V30 12 C 4.726138 2.063637 -0.385846 0
M  V30 13 N 3.792434 2.891371 -1.100426 0
M  V30 14 C 2.515409 2.163525 -1.018698 0
M  V30 15 C -0.157160 -0.772230 0.908077 0
M  V30 16 C -1.495720 -0.393144 1.069234 0
M  V30 17 C -2.296750 -1.501125 1.260349 0
M  V30 18 C -3.742144 -1.526553 1.465198 0
M  V30 19 C -4.358355 -2.749156 1.638410 0
M  V30 20 C -5.723524 -2.803457 1.834038 0
M  V30 21 C -6.471506 -1.643218 1.856887 0
M  V30 22 C -5.792442 -0.439252 1.676166 0
M  V30 23 C -4.426161 -0.327508 1.476311 0
M  V30 24 N -1.440198 -2.531860 1.213122 0
M  V30 25 C -0.175130 -2.144281 1.007912 0
M  V30 26 H -0.343817 -5.383267 0.222679 0
M  V30 27 H -0.308599 -5.357878 0.195527 0
M  V30 28 H 3.099372 -2.724413 0.589098 0
M  V30 29 H 3.064644 -0.331330 0.425049 0
M  V30 30 H -0.048263 1.788435 0.712654 0
M  V30 31 H 1.573704 3.342471 0.418397 0
M  V30 32 H 2.804467 1.290036 2.138974 0
M  V30 33 H 2.904039 3.033307 2.165655 0
M  V30 34 H 5.038604 2.964052 1.475609 0
M  V30 35 H 4.981325 1.196940 1.501145 0
M  V30 36 H 5.787438 2.369724 -0.571090 0
M  V30 37 H 4.641267 1.025591 -0.766245 0
M  V30 38 H 3.698734 3.835720 -0.693073 0
M  V30 39 H 2.684645 1.143633 -1.378393 0
M  V30 40 H 1.847047 2.730800 -1.715832 0
M  V30 41 H -1.845042 0.628425 1.045859 0
M  V30 42 H -3.817406 -3.684948 1.628740 0
M  V30 43 H -6.210147 -3.770268 1.970922 0
M  V30 44 H -7.544519 -1.648116 2.007968 0
M  V30 45 H -6.412168 0.451413 1.700112 0
M  V30 46 H -3.971244 0.644677 1.343509 0
M  V30 47 H -1.804128 -3.515935 1.334032 0
M  V30 END ATOM
M  V30 BEGIN BOND
M  V30 1 1 1 2
M  V30 2 2 2 3
M  V30 3 1 2 4
M  V30 4 2 4 5
M  V30 5 1 5 6
M  V30 6 2 6 7
M  V30 7 1 7 8
M  V30 8 1 8 9
M  V30 9 1 9 10
M  V30 10 1 10 11
M  V30 11 1 11 12
M  V30 12 1 12 13
M  V30 13 1 13 14
M  V30 14 1 7 15
M  V30 15 1 15 16
M  V30 16 2 16 17
M  V30 17 1 17 18
M  V30 18 2 18 19
M  V30 19 1 19 20
M  V30 20 2 20 21
M  V30 21 1 21 22
M  V30 22 2 22 23
M  V30 23 1 17 24
M  V30 24 1 24 25
M  V30 25 1 25 4
M  V30 26 1 14 9
M  V30 27 2 25 15
M  V30 28 1 23 18
M  V30 29 1 1 26
M  V30 30 1 1 27
M  V30 31 1 5 28
M  V30 32 1 6 29
M  V30 33 1 8 30
M  V30 34 1 9 31 CFG=3
M  V30 35 1 10 32
M  V30 36 1 10 33
M  V30 37 1 11 34
M  V30 38 1 11 35
M  V30 39 1 12 36
M  V30 40 1 12 37
M  V30 41 1 13 38
M  V30 42 1 14 39
M  V30 43 1 14 40
M  V30 44 1 16 41
M  V30 45 1 19 42
M  V30 46 1 20 43
M  V30 47 1 21 44
M  V30 48 1 22 45
M  V30 49 1 23 46
M  V30 50 1 24 47
M  V30 END BOND
M  V30 END CTAB
M  END
>  <Dataset>  (412) 
ChEMBL_Kinases

>  <Ligand_Instance>  (412) 
nan

>  <PDB_ID>  (412) 
nan

>  <Standardized_SMILES>  (412) 
NC(=O)c1ccc(N[C@H]2CCCNC2)c2cc(-c3ccccc3)[nH]c12

>  <Name>  (412) 
nan

>  <Pocket>  (412) 
nan

>  <ATP_Site>  (412) 
nan

>  <Peripheral>  (412) 
nan

>  <Num_H_Atoms_ProtBoundConf>  (412) 
nan

>  <Num_Resolved_Atoms>  (412) 
nan

>  <Num_Not_Resolved_Atoms>  (412) 
nan

$$$$
CHEMBL4096668
     RDKit          3D

  0  0  0  0  0  0  0  0  0  0999 V3000
M  V30 BEGIN CTAB
M  V30 COUNTS 42 45 0 0 0
M  V30 BEGIN ATOM
M  V30 1 C 2.513809 -2.963192 0.587551 0
M  V30 2 O 2.190385 -1.741930 -0.043151 0
M  V30 3 C 1.526038 -1.759916 -1.256188 0
M  V30 4 C 1.186234 -2.964495 -1.844218 0
M  V30 5 C 0.530300 -3.080527 -3.046789 0
M  V30 6 C 0.193970 -1.903251 -3.701739 0
M  V30 7 C 0.507742 -0.673152 -3.161894 0
M  V30 8 N 0.202170 0.472436 -3.788182 0
M  V30 9 C 0.506438 1.680169 -3.293145 0
M  V30 10 C 1.158937 1.707865 -2.088928 0
M  V30 11 C 1.511052 0.567920 -1.374970 0
M  V30 12 N 2.177363 0.819095 -0.148130 0
M  V30 13 C 1.912620 0.616765 1.253109 0
M  V30 14 C 2.914817 0.698642 2.166605 0
M  V30 15 C 2.550058 0.511092 3.480239 0
M  V30 16 N 1.308645 0.259293 3.918087 0
M  V30 17 C 0.303818 0.171979 3.056865 0
M  V30 18 C -1.046552 -0.096471 3.476237 0
M  V30 19 C -2.164302 -0.208965 2.678287 0
M  V30 20 C -3.424474 -0.467010 3.148234 0
M  V30 21 C -3.604970 -0.628615 4.516495 0
M  V30 22 C -2.536161 -0.531094 5.384372 0
M  V30 23 Cl -2.767509 -0.733667 7.090547 0
M  V30 24 C -1.298891 -0.269952 4.841709 0
M  V30 25 C 0.623766 0.353235 1.729776 0
M  V30 26 C 1.162891 -0.630722 -1.956443 0
M  V30 27 H 3.009607 -3.640517 -0.120204 0
M  V30 28 H 3.219575 -2.731847 1.422148 0
M  V30 29 H 1.616024 -3.404422 1.071818 0
M  V30 30 H 1.424997 -3.909701 -1.376322 0
M  V30 31 H 0.267363 -4.024840 -3.501019 0
M  V30 32 H -0.326499 -1.961456 -4.657801 0
M  V30 33 H 0.235134 2.572503 -3.844155 0
M  V30 34 H 1.388514 2.713497 -1.720526 0
M  V30 35 H 3.094648 1.265188 -0.373146 0
M  V30 36 H 3.931268 0.899268 1.866113 0
M  V30 37 H 3.347525 0.573818 4.232059 0
M  V30 38 H -2.007496 -0.080947 1.618695 0
M  V30 39 H -4.248868 -0.538730 2.442374 0
M  V30 40 H -4.606985 -0.830603 4.856771 0
M  V30 41 H -0.490422 -0.201583 5.554560 0
M  V30 42 H -0.127686 0.302293 0.936014 0
M  V30 END ATOM
M  V30 BEGIN BOND
M  V30 1 1 1 2
M  V30 2 1 2 3
M  V30 3 2 3 4
M  V30 4 1 4 5
M  V30 5 2 5 6
M  V30 6 1 6 7
M  V30 7 2 7 8
M  V30 8 1 8 9
M  V30 9 2 9 10
M  V30 10 1 10 11
M  V30 11 1 11 12
M  V30 12 1 12 13
M  V30 13 2 13 14
M  V30 14 1 14 15
M  V30 15 2 15 16
M  V30 16 1 16 17
M  V30 17 1 17 18
M  V30 18 2 18 19
M  V30 19 1 19 20
M  V30 20 2 20 21
M  V30 21 1 21 22
M  V30 22 1 22 23
M  V30 23 2 22 24
M  V30 24 2 17 25
M  V30 25 2 11 26
M  V30 26 1 26 3
M  V30 27 1 26 7
M  V30 28 1 25 13
M  V30 29 1 24 18
M  V30 30 1 1 27
M  V30 31 1 1 28
M  V30 32 1 1 29
M  V30 33 1 4 30
M  V30 34 1 5 31
M  V30 35 1 6 32
M  V30 36 1 9 33
M  V30 37 1 10 34
M  V30 38 1 12 35
M  V30 39 1 14 36
M  V30 40 1 15 37
M  V30 41 1 19 38
M  V30 42 1 20 39
M  V30 43 1 21 40
M  V30 44 1 24 41
M  V30 45 1 25 42
M  V30 END BOND
M  V30 END CTAB
M  END
>  <Dataset>  (413) 
ChEMBL_Kinases

>  <Ligand_Instance>  (413) 
nan

>  <PDB_ID>  (413) 
nan

>  <Standardized_SMILES>  (413) 
COc1cccc2nccc(Nc3ccnc(-c4cccc(Cl)c4)c3)c12

>  <Name>  (413) 
nan

>  <Pocket>  (413) 
nan

>  <ATP_Site>  (413) 
nan

>  <Peripheral>  (413) 
nan

>  <Num_H_Atoms_ProtBoundConf>  (413) 
nan

>  <Num_Resolved_Atoms>  (413) 
nan

>  <Num_Not_Resolved_Atoms>  (413) 
nan

$$$$
CHEMBL4096615
     RDKit          3D

  0  0  0  0  0  0  0  0  0  0999 V3000
M  V30 BEGIN CTAB
M  V30 COUNTS 33 35 0 0 0
M  V30 BEGIN ATOM
M  V30 1 C -2.855679 -5.317286 2.064146 0
M  V30 2 C -2.224944 -4.087604 1.529154 0
M  V30 3 C -1.697752 -3.145602 2.387166 0
M  V30 4 C -1.103849 -1.988284 1.925871 0
M  V30 5 C -1.015426 -1.729630 0.573582 0
M  V30 6 C -0.421292 -0.562749 -0.068703 0
M  V30 7 C -0.909430 -0.092802 -1.270060 0
M  V30 8 N -0.413703 0.970719 -1.917760 0
M  V30 9 C 0.616664 1.655643 -1.414616 0
M  V30 10 N 1.160670 2.799136 -2.096393 0
M  V30 11 C 1.151544 1.224331 -0.199510 0
M  V30 12 C 2.276299 1.991831 0.322295 0
M  V30 13 C 3.447876 2.520586 -0.186953 0
M  V30 14 N 4.086303 3.139064 0.821908 0
M  V30 15 N 3.386816 3.032706 1.941167 0
M  V30 16 C 2.252380 2.327115 1.680217 0
M  V30 17 C 0.643537 0.130400 0.469068 0
M  V30 18 C -1.548090 -2.680694 -0.304912 0
M  V30 19 C -2.137510 -3.830785 0.176334 0
M  V30 20 H -3.522286 -5.799378 1.301358 0
M  V30 21 H -3.508884 -5.130675 2.944446 0
M  V30 22 H -2.094988 -6.089037 2.326887 0
M  V30 23 H -1.727750 -3.272792 3.442170 0
M  V30 24 H -0.672176 -1.210852 2.547341 0
M  V30 25 H -1.744245 -0.600596 -1.735261 0
M  V30 26 H 0.693676 3.525785 -1.539482 0
M  V30 27 H 1.825078 2.651067 -2.903518 0
M  V30 28 H 3.642910 2.359930 -1.239650 0
M  V30 29 H 3.809445 3.486062 2.780791 0
M  V30 30 H 1.612873 2.183596 2.523068 0
M  V30 31 H 1.066859 -0.196703 1.414397 0
M  V30 32 H -1.564863 -2.638490 -1.401123 0
M  V30 33 H -2.569085 -4.606083 -0.458316 0
M  V30 END ATOM
M  V30 BEGIN BOND
M  V30 1 1 1 2
M  V30 2 2 2 3
M  V30 3 1 3 4
M  V30 4 2 4 5
M  V30 5 1 5 6
M  V30 6 2 6 7
M  V30 7 1 7 8
M  V30 8 2 8 9
M  V30 9 1 9 10
M  V30 10 1 9 11
M  V30 11 1 11 12
M  V30 12 1 12 13
M  V30 13 2 13 14
M  V30 14 1 14 15
M  V30 15 1 15 16
M  V30 16 2 11 17
M  V30 17 1 5 18
M  V30 18 2 18 19
M  V30 19 1 19 2
M  V30 20 1 17 6
M  V30 21 2 16 12
M  V30 22 1 1 20
M  V30 23 1 1 21
M  V30 24 1 1 22
M  V30 25 1 3 23
M  V30 26 1 4 24
M  V30 27 1 7 25
M  V30 28 1 10 26
M  V30 29 1 10 27
M  V30 30 1 13 28
M  V30 31 1 15 29
M  V30 32 1 16 30
M  V30 33 1 17 31
M  V30 34 1 18 32
M  V30 35 1 19 33
M  V30 END BOND
M  V30 END CTAB
M  END
>  <Dataset>  (414) 
ChEMBL_Kinases

>  <Ligand_Instance>  (414) 
nan

>  <PDB_ID>  (414) 
nan

>  <Standardized_SMILES>  (414) 
Cc1ccc(-c2cnc(N)c(-c3cn[nH]c3)c2)cc1

>  <Name>  (414) 
nan

>  <Pocket>  (414) 
nan

>  <ATP_Site>  (414) 
nan

>  <Peripheral>  (414) 
nan

>  <Num_H_Atoms_ProtBoundConf>  (414) 
nan

>  <Num_Resolved_Atoms>  (414) 
nan

>  <Num_Not_Resolved_Atoms>  (414) 
nan

$$$$
CHEMBL4096612
     RDKit          3D

  0  0  0  0  0  0  0  0  0  0999 V3000
M  V30 BEGIN CTAB
M  V30 COUNTS 60 61 0 0 0
M  V30 BEGIN ATOM
M  V30 1 C 0.103203 2.702724 5.652145 0
M  V30 2 C 1.337015 2.226021 4.880107 0
M  V30 3 C 0.967946 1.002898 4.094842 0
M  V30 4 C 2.091373 0.432644 3.290384 0
M  V30 5 C 2.656517 1.378206 2.269331 0
M  V30 6 C 1.620224 1.821189 1.258665 0
M  V30 7 C 2.333694 2.758252 0.308900 0
M  V30 8 C 1.432342 3.300138 -0.769408 0
M  V30 9 C 0.883861 2.142775 -1.579635 0
M  V30 10 C -0.028000 2.621018 -2.686669 0
M  V30 11 C -0.579641 1.474131 -3.499306 0
M  V30 12 C -1.365135 0.528874 -2.700335 0
M  V30 13 O -1.712260 0.410359 -1.496887 0
M  V30 14 N -1.916907 -0.586059 -3.420798 0
M  V30 15 N -2.677253 -1.501011 -2.647669 0
M  V30 16 C -1.793000 -2.495971 -2.158588 0
M  V30 17 O -0.599458 -2.298827 -2.536814 0
M  V30 18 C -2.040379 -3.658327 -1.324079 0
M  V30 19 C -0.952240 -4.436206 -1.022502 0
M  V30 20 O 0.350090 -4.189500 -1.455834 0
M  V30 21 C -1.148328 -5.567271 -0.219510 0
M  V30 22 C -0.050545 -6.364114 0.092913 0
M  V30 23 C -0.150391 -7.493874 0.875363 0
M  V30 24 Cl 1.250455 -8.477335 1.251536 0
M  V30 25 C -1.362454 -7.869565 1.377186 0
M  V30 26 C -2.456308 -7.092154 1.077046 0
M  V30 27 C -2.363202 -5.963814 0.296933 0
M  V30 28 N -3.394863 -5.166252 -0.029474 0
M  V30 29 C -3.238454 -4.075772 -0.796974 0
M  V30 30 O -4.253178 -3.388453 -1.052524 0
M  V30 31 H -0.438804 3.489743 5.109132 0
M  V30 32 H -0.593538 1.829168 5.808713 0
M  V30 33 H 0.374189 3.041827 6.684088 0
M  V30 34 H 2.104931 2.012983 5.642536 0
M  V30 35 H 1.667346 3.066616 4.249535 0
M  V30 36 H 0.057437 1.218236 3.500928 0
M  V30 37 H 0.684545 0.224270 4.839601 0
M  V30 38 H 2.916472 0.207176 4.000965 0
M  V30 39 H 1.757269 -0.507598 2.835927 0
M  V30 40 H 3.126129 2.244814 2.737414 0
M  V30 41 H 3.417035 0.810413 1.695001 0
M  V30 42 H 1.264059 0.914102 0.730051 0
M  V30 43 H 0.758399 2.310540 1.725580 0
M  V30 44 H 3.142365 2.179735 -0.211611 0
M  V30 45 H 2.849746 3.572979 0.825542 0
M  V30 46 H 0.614205 3.843281 -0.237846 0
M  V30 47 H 1.933964 4.027332 -1.413351 0
M  V30 48 H 0.241875 1.547025 -0.900751 0
M  V30 49 H 1.697473 1.511619 -1.985944 0
M  V30 50 H 0.536285 3.273297 -3.383508 0
M  V30 51 H -0.839434 3.234577 -2.252598 0
M  V30 52 H -1.252542 1.943262 -4.259401 0
M  V30 53 H 0.223130 0.977527 -4.080732 0
M  V30 54 H -1.829845 -0.810832 -4.446264 0
M  V30 55 H -3.675006 -1.611072 -2.368412 0
M  V30 56 H 0.612150 -4.457752 -2.401790 0
M  V30 57 H 0.960963 -6.136349 -0.268049 0
M  V30 58 H -1.491311 -8.742496 1.992342 0
M  V30 59 H -3.461990 -7.318592 1.435889 0
M  V30 60 H -4.345547 -5.415520 0.333537 0
M  V30 END ATOM
M  V30 BEGIN BOND
M  V30 1 1 1 2
M  V30 2 1 2 3
M  V30 3 1 3 4
M  V30 4 1 4 5
M  V30 5 1 5 6
M  V30 6 1 6 7
M  V30 7 1 7 8
M  V30 8 1 8 9
M  V30 9 1 9 10
M  V30 10 1 10 11
M  V30 11 1 11 12
M  V30 12 2 12 13
M  V30 13 1 12 14
M  V30 14 1 14 15
M  V30 15 1 15 16
M  V30 16 2 16 17
M  V30 17 1 16 18
M  V30 18 2 18 19
M  V30 19 1 19 20
M  V30 20 1 19 21
M  V30 21 2 21 22
M  V30 22 1 22 23
M  V30 23 1 23 24
M  V30 24 2 23 25
M  V30 25 1 25 26
M  V30 26 2 26 27
M  V30 27 1 27 28
M  V30 28 1 28 29
M  V30 29 2 29 30
M  V30 30 1 29 18
M  V30 31 1 27 21
M  V30 32 1 1 31
M  V30 33 1 1 32
M  V30 34 1 1 33
M  V30 35 1 2 34
M  V30 36 1 2 35
M  V30 37 1 3 36
M  V30 38 1 3 37
M  V30 39 1 4 38
M  V30 40 1 4 39
M  V30 41 1 5 40
M  V30 42 1 5 41
M  V30 43 1 6 42
M  V30 44 1 6 43
M  V30 45 1 7 44
M  V30 46 1 7 45
M  V30 47 1 8 46
M  V30 48 1 8 47
M  V30 49 1 9 48
M  V30 50 1 9 49
M  V30 51 1 10 50
M  V30 52 1 10 51
M  V30 53 1 11 52
M  V30 54 1 11 53
M  V30 55 1 14 54
M  V30 56 1 15 55
M  V30 57 1 20 56
M  V30 58 1 22 57
M  V30 59 1 25 58
M  V30 60 1 26 59
M  V30 61 1 28 60
M  V30 END BOND
M  V30 END CTAB
M  END
>  <Dataset>  (415) 
ChEMBL_Kinases

>  <Ligand_Instance>  (415) 
nan

>  <PDB_ID>  (415) 
nan

>  <Standardized_SMILES>  (415) 
CCCCCCCCCCCC(=O)NNC(=O)c1c(O)c2cc(Cl)ccc2[nH]c1=O

>  <Name>  (415) 
nan

>  <Pocket>  (415) 
nan

>  <ATP_Site>  (415) 
nan

>  <Peripheral>  (415) 
nan

>  <Num_H_Atoms_ProtBoundConf>  (415) 
nan

>  <Num_Resolved_Atoms>  (415) 
nan

>  <Num_Not_Resolved_Atoms>  (415) 
nan

$$$$
CHEMBL4097157
     RDKit          3D

  0  0  0  0  0  0  0  0  0  0999 V3000
M  V30 BEGIN CTAB
M  V30 COUNTS 17 18 0 0 0
M  V30 BEGIN ATOM
M  V30 1 N -0.627893 -2.825731 3.409473 0
M  V30 2 C -0.019396 -1.912543 3.065110 0
M  V30 3 C 0.755806 -0.789173 2.638714 0
M  V30 4 C 1.666344 -0.133630 3.446015 0
M  V30 5 N 2.170016 0.838877 2.690939 0
M  V30 6 C 1.626547 0.823426 1.468622 0
M  V30 7 N 1.833879 1.607628 0.401500 0
M  V30 8 C 1.131298 1.347159 -0.704787 0
M  V30 9 N 1.360233 2.183829 -1.825534 0
M  V30 10 N 0.225237 0.340182 -0.809325 0
M  V30 11 C -0.005050 -0.459666 0.235692 0
M  V30 12 Cl -1.133622 -1.793259 0.261689 0
M  V30 13 C 0.710417 -0.203536 1.380224 0
M  V30 14 H 1.937950 -0.338080 4.474887 0
M  V30 15 H 2.892733 1.523395 3.008199 0
M  V30 16 H 2.070301 1.618624 -2.361536 0
M  V30 17 H 1.122150 3.079551 -2.302859 0
M  V30 END ATOM
M  V30 BEGIN BOND
M  V30 1 3 1 2
M  V30 2 1 2 3
M  V30 3 2 3 4
M  V30 4 1 4 5
M  V30 5 1 5 6
M  V30 6 2 6 7
M  V30 7 1 7 8
M  V30 8 1 8 9
M  V30 9 2 8 10
M  V30 10 1 10 11
M  V30 11 1 11 12
M  V30 12 2 11 13
M  V30 13 1 13 3
M  V30 14 1 13 6
M  V30 15 1 4 14
M  V30 16 1 5 15
M  V30 17 1 9 16
M  V30 18 1 9 17
M  V30 END BOND
M  V30 END CTAB
M  END
>  <Dataset>  (416) 
ChEMBL_Kinases

>  <Ligand_Instance>  (416) 
nan

>  <PDB_ID>  (416) 
nan

>  <Standardized_SMILES>  (416) 
N#Cc1c[nH]c2nc(N)nc(Cl)c12

>  <Name>  (416) 
nan

>  <Pocket>  (416) 
nan

>  <ATP_Site>  (416) 
nan

>  <Peripheral>  (416) 
nan

>  <Num_H_Atoms_ProtBoundConf>  (416) 
nan

>  <Num_Resolved_Atoms>  (416) 
nan

>  <Num_Not_Resolved_Atoms>  (416) 
nan

$$$$
CHEMBL4800457
     RDKit          3D

  0  0  0  0  0  0  0  0  0  0999 V3000
M  V30 BEGIN CTAB
M  V30 COUNTS 60 64 0 0 0
M  V30 BEGIN ATOM
M  V30 1 C 5.231834 -4.377582 2.116986 0
M  V30 2 O 4.898296 -3.121700 1.557442 0
M  V30 3 C 4.654275 -2.002528 2.337201 0
M  V30 4 C 4.740869 -2.119127 3.721109 0
M  V30 5 C 4.502033 -1.018583 4.515041 0
M  V30 6 C 4.184283 0.162618 3.894466 0
M  V30 7 C 4.086526 0.324522 2.513246 0
M  V30 8 N 3.767811 1.533666 2.024741 0
M  V30 9 C 3.683710 1.648936 0.678594 0
M  V30 10 N 3.334018 2.981900 0.253542 0
M  V30 11 C 1.956289 3.282057 0.059129 0
M  V30 12 C 1.532096 4.545464 -0.296439 0
M  V30 13 C 0.198953 4.844815 -0.490697 0
M  V30 14 C -0.765475 3.872586 -0.332229 0
M  V30 15 C -0.348426 2.600157 0.024938 0
M  V30 16 N -1.240465 1.481958 0.223964 0
M  V30 17 C -1.369459 0.851877 -1.048270 0
M  V30 18 O -0.700177 1.433604 -1.914081 0
M  V30 19 C -2.213376 -0.347365 -1.250118 0
M  V30 20 C -2.947861 -0.984581 -0.271764 0
M  V30 21 C -3.683637 -2.089755 -0.628752 0
M  V30 22 N -4.443609 -2.753419 0.374047 0
M  V30 23 C -4.432092 -2.518710 1.696020 0
M  V30 24 N -5.299231 -3.367710 2.296599 0
M  V30 25 C -5.860954 -4.143643 1.338898 0
M  V30 26 C -6.858638 -5.164785 1.763084 0
M  V30 27 C -5.318939 -3.749318 0.151986 0
M  V30 28 C -3.690054 -2.551990 -1.927659 0
M  V30 29 C -2.965686 -1.935242 -2.926196 0
M  V30 30 C -2.962007 -2.422736 -4.341098 0
M  V30 31 F -3.309317 -3.741053 -4.378535 0
M  V30 32 F -3.879864 -1.679071 -5.077315 0
M  V30 33 F -1.665952 -2.269221 -4.815653 0
M  V30 34 C -2.229296 -0.825480 -2.558879 0
M  V30 35 C 0.982045 2.322950 0.213436 0
M  V30 36 C 3.916657 0.566955 -0.151620 0
M  V30 37 C 4.240192 -0.655710 0.374037 0
M  V30 38 C 4.331161 -0.793435 1.754074 0
M  V30 39 H 5.111552 -5.144260 1.314894 0
M  V30 40 H 4.597678 -4.613550 3.010558 0
M  V30 41 H 6.273844 -4.381008 2.469133 0
M  V30 42 H 4.987555 -3.029585 4.232518 0
M  V30 43 H 4.556811 -1.053812 5.600043 0
M  V30 44 H 3.995092 1.036318 4.522611 0
M  V30 45 H 4.029598 3.741664 0.079482 0
M  V30 46 H 2.242475 5.360586 -0.438483 0
M  V30 47 H -0.180088 5.829372 -0.772202 0
M  V30 48 H -1.847788 4.025258 -0.467149 0
M  V30 49 H -1.761940 1.090097 1.065568 0
M  V30 50 H -2.894155 -0.567338 0.721512 0
M  V30 51 H -3.834519 -1.773523 2.236798 0
M  V30 52 H -7.044089 -5.924727 0.969878 0
M  V30 53 H -7.827893 -4.640180 1.910891 0
M  V30 54 H -6.530438 -5.707524 2.671002 0
M  V30 55 H -5.619649 -4.233035 -0.767101 0
M  V30 56 H -4.272842 -3.430311 -2.214764 0
M  V30 57 H -1.656667 -0.344395 -3.364725 0
M  V30 58 H 1.326877 1.339437 0.492310 0
M  V30 59 H 3.826492 0.756933 -1.210571 0
M  V30 60 H 4.422237 -1.502702 -0.270611 0
M  V30 END ATOM
M  V30 BEGIN BOND
M  V30 1 1 1 2
M  V30 2 1 2 3
M  V30 3 2 3 4
M  V30 4 1 4 5
M  V30 5 2 5 6
M  V30 6 1 6 7
M  V30 7 2 7 8
M  V30 8 1 8 9
M  V30 9 1 9 10
M  V30 10 1 10 11
M  V30 11 2 11 12
M  V30 12 1 12 13
M  V30 13 2 13 14
M  V30 14 1 14 15
M  V30 15 1 15 16
M  V30 16 1 16 17
M  V30 17 2 17 18
M  V30 18 1 17 19
M  V30 19 2 19 20
M  V30 20 1 20 21
M  V30 21 1 21 22
M  V30 22 1 22 23
M  V30 23 2 23 24
M  V30 24 1 24 25
M  V30 25 1 25 26
M  V30 26 2 25 27
M  V30 27 2 21 28
M  V30 28 1 28 29
M  V30 29 1 29 30
M  V30 30 1 30 31
M  V30 31 1 30 32
M  V30 32 1 30 33
M  V30 33 2 29 34
M  V30 34 2 15 35
M  V30 35 2 9 36
M  V30 36 1 36 37
M  V30 37 2 37 38
M  V30 38 1 38 3
M  V30 39 1 38 7
M  V30 40 1 35 11
M  V30 41 1 34 19
M  V30 42 1 27 22
M  V30 43 1 1 39
M  V30 44 1 1 40
M  V30 45 1 1 41
M  V30 46 1 4 42
M  V30 47 1 5 43
M  V30 48 1 6 44
M  V30 49 1 10 45
M  V30 50 1 12 46
M  V30 51 1 13 47
M  V30 52 1 14 48
M  V30 53 1 16 49
M  V30 54 1 20 50
M  V30 55 1 23 51
M  V30 56 1 26 52
M  V30 57 1 26 53
M  V30 58 1 26 54
M  V30 59 1 27 55
M  V30 60 1 28 56
M  V30 61 1 34 57
M  V30 62 1 35 58
M  V30 63 1 36 59
M  V30 64 1 37 60
M  V30 END BOND
M  V30 END CTAB
M  END
>  <Dataset>  (417) 
ChEMBL_Kinases

>  <Ligand_Instance>  (417) 
nan

>  <PDB_ID>  (417) 
nan

>  <Standardized_SMILES>  (417) 
COc1cccc2nc(Nc3cccc(NC(=O)c4cc(-n5cnc(C)c5)cc(C(F)(F)F)c4)c3)ccc12

>  <Name>  (417) 
nan

>  <Pocket>  (417) 
nan

>  <ATP_Site>  (417) 
nan

>  <Peripheral>  (417) 
nan

>  <Num_H_Atoms_ProtBoundConf>  (417) 
nan

>  <Num_Resolved_Atoms>  (417) 
nan

>  <Num_Not_Resolved_Atoms>  (417) 
nan

$$$$
CHEMBL4800472
     RDKit          3D

  0  0  0  0  0  0  0  0  0  0999 V3000
M  V30 BEGIN CTAB
M  V30 COUNTS 50 53 0 0 0
M  V30 BEGIN ATOM
M  V30 1 C 3.246842 1.418346 5.280872 0
M  V30 2 C 1.917257 0.747503 5.355171 0
M  V30 3 C 2.007418 -0.744226 5.252719 0
M  V30 4 S 2.680674 -1.352928 3.752832 0
M  V30 5 O 4.097810 -0.805039 3.656557 0
M  V30 6 O 2.822919 -2.842816 3.851116 0
M  V30 7 N 1.766042 -0.913712 2.366067 0
M  V30 8 C 1.418479 0.316897 1.763947 0
M  V30 9 C 2.347401 1.315254 1.670895 0
M  V30 10 C 2.042847 2.515908 1.083504 0
M  V30 11 C 0.759886 2.718239 0.570924 0
M  V30 12 F 0.564890 3.936439 0.012354 0
M  V30 13 C -0.203047 1.735343 0.644332 0
M  V30 14 C -1.502888 2.068283 0.113405 0
M  V30 15 O -1.729180 3.334530 0.134437 0
M  V30 16 C -2.630414 1.368964 -0.439699 0
M  V30 17 N -3.875764 1.827042 -0.416116 0
M  V30 18 N -4.681806 0.969614 -1.041673 0
M  V30 19 C -4.017868 -0.099991 -1.514211 0
M  V30 20 N -4.368075 -1.198811 -2.206330 0
M  V30 21 C -3.450605 -2.120621 -2.569392 0
M  V30 22 C -2.128719 -1.898468 -2.205312 0
M  V30 23 C -1.154004 -2.921062 -2.618172 0
M  V30 24 C -1.536264 -4.261910 -2.713297 0
M  V30 25 C -0.703565 -5.273767 -3.086641 0
M  V30 26 C 0.608846 -4.953019 -3.392630 0
M  V30 27 C 1.043056 -3.631998 -3.314357 0
M  V30 28 C 0.157624 -2.640502 -2.929677 0
M  V30 29 C -1.780291 -0.771181 -1.496601 0
M  V30 30 C -2.708400 0.174894 -1.119572 0
M  V30 31 C 0.164180 0.559243 1.244872 0
M  V30 32 F -0.710959 -0.432128 1.400092 0
M  V30 33 H 3.344582 2.155490 6.111449 0
M  V30 34 H 3.431856 1.850831 4.301933 0
M  V30 35 H 4.018014 0.630659 5.489919 0
M  V30 36 H 1.170687 1.178665 4.651251 0
M  V30 37 H 1.478222 0.954685 6.373265 0
M  V30 38 H 0.965693 -1.167850 5.342866 0
M  V30 39 H 2.566247 -1.116351 6.131790 0
M  V30 40 H 1.347411 -1.712647 1.798527 0
M  V30 41 H 3.348927 1.180360 2.049993 0
M  V30 42 H 2.809699 3.289259 1.028953 0
M  V30 43 H -5.700337 1.169318 -1.117770 0
M  V30 44 H -3.756921 -2.998771 -3.127000 0
M  V30 45 H -2.569662 -4.527108 -2.474548 0
M  V30 46 H -1.087362 -6.303368 -3.135625 0
M  V30 47 H 1.286644 -5.752298 -3.693767 0
M  V30 48 H 2.081276 -3.397895 -3.559306 0
M  V30 49 H 0.461046 -1.608722 -2.858787 0
M  V30 50 H -0.758824 -0.610012 -1.234294 0
M  V30 END ATOM
M  V30 BEGIN BOND
M  V30 1 1 1 2
M  V30 2 1 2 3
M  V30 3 1 3 4
M  V30 4 2 4 5
M  V30 5 2 4 6
M  V30 6 1 4 7
M  V30 7 1 7 8
M  V30 8 2 8 9
M  V30 9 1 9 10
M  V30 10 2 10 11
M  V30 11 1 11 12
M  V30 12 1 11 13
M  V30 13 1 13 14
M  V30 14 2 14 15
M  V30 15 1 14 16
M  V30 16 2 16 17
M  V30 17 1 17 18
M  V30 18 1 18 19
M  V30 19 2 19 20
M  V30 20 1 20 21
M  V30 21 2 21 22
M  V30 22 1 22 23
M  V30 23 2 23 24
M  V30 24 1 24 25
M  V30 25 2 25 26
M  V30 26 1 26 27
M  V30 27 2 27 28
M  V30 28 1 22 29
M  V30 29 2 29 30
M  V30 30 2 13 31
M  V30 31 1 31 32
M  V30 32 1 31 8
M  V30 33 1 30 16
M  V30 34 1 30 19
M  V30 35 1 28 23
M  V30 36 1 1 33
M  V30 37 1 1 34
M  V30 38 1 1 35
M  V30 39 1 2 36
M  V30 40 1 2 37
M  V30 41 1 3 38
M  V30 42 1 3 39
M  V30 43 1 7 40
M  V30 44 1 9 41
M  V30 45 1 10 42
M  V30 46 1 18 43
M  V30 47 1 21 44
M  V30 48 1 24 45
M  V30 49 1 25 46
M  V30 50 1 26 47
M  V30 51 1 27 48
M  V30 52 1 28 49
M  V30 53 1 29 50
M  V30 END BOND
M  V30 END CTAB
M  END
>  <Dataset>  (418) 
ChEMBL_Kinases

>  <Ligand_Instance>  (418) 
nan

>  <PDB_ID>  (418) 
nan

>  <Standardized_SMILES>  (418) 
CCCS(=O)(=O)Nc1ccc(F)c(C(=O)c2n[nH]c3ncc(-c4ccccc4)cc23)c1F

>  <Name>  (418) 
nan

>  <Pocket>  (418) 
nan

>  <ATP_Site>  (418) 
nan

>  <Peripheral>  (418) 
nan

>  <Num_H_Atoms_ProtBoundConf>  (418) 
nan

>  <Num_Resolved_Atoms>  (418) 
nan

>  <Num_Not_Resolved_Atoms>  (418) 
nan

$$$$
CHEMBL4800506
     RDKit          3D

  0  0  0  0  0  0  0  0  0  0999 V3000
M  V30 BEGIN CTAB
M  V30 COUNTS 34 36 0 0 0
M  V30 BEGIN ATOM
M  V30 1 C -1.195869 -3.682900 2.906209 0
M  V30 2 C 0.300719 -3.700708 2.935123 0
M  V30 3 O 0.805601 -2.636188 2.152598 0
M  V30 4 C 2.127603 -2.357772 1.960459 0
M  V30 5 O 2.959981 -3.127673 2.539022 0
M  V30 6 C 2.528390 -1.227882 1.128447 0
M  V30 7 C 3.875345 -0.979412 0.958749 0
M  V30 8 N 4.180342 0.087497 0.172321 0
M  V30 9 C 3.226922 0.838554 -0.393604 0
M  V30 10 N 3.635684 1.946498 -1.209294 0
M  V30 11 N 1.904910 0.624405 -0.249041 0
M  V30 12 N 0.776150 1.174141 -0.667817 0
M  V30 13 C -0.294668 0.497955 -0.178650 0
M  V30 14 C -1.685103 0.850091 -0.453933 0
M  V30 15 C -2.072030 2.159821 -0.650616 0
M  V30 16 C -3.408521 2.405012 -0.905982 0
M  V30 17 C -4.293471 1.340763 -0.953522 0
M  V30 18 C -3.918888 0.018810 -0.757763 0
M  V30 19 F -4.814637 -0.991016 -0.812563 0
M  V30 20 C -2.566867 -0.217551 -0.500588 0
M  V30 21 N 0.217740 -0.506052 0.569842 0
M  V30 22 C 1.577033 -0.427420 0.525982 0
M  V30 23 H -1.517637 -3.457783 1.856659 0
M  V30 24 H -1.638144 -2.962352 3.623430 0
M  V30 25 H -1.549451 -4.712005 3.124583 0
M  V30 26 H 0.697845 -3.614996 3.960459 0
M  V30 27 H 0.632878 -4.690408 2.559650 0
M  V30 28 H 4.613970 -1.605910 1.430233 0
M  V30 29 H 4.641986 2.157230 -1.382273 0
M  V30 30 H 2.943967 2.584136 -1.660962 0
M  V30 31 H -1.341169 2.952378 -0.602787 0
M  V30 32 H -3.760722 3.414891 -1.066957 0
M  V30 33 H -5.350368 1.546511 -1.156632 0
M  V30 34 H -2.241126 -1.244150 -0.342539 0
M  V30 END ATOM
M  V30 BEGIN BOND
M  V30 1 1 1 2
M  V30 2 1 2 3
M  V30 3 1 3 4
M  V30 4 2 4 5
M  V30 5 1 4 6
M  V30 6 2 6 7
M  V30 7 1 7 8
M  V30 8 2 8 9
M  V30 9 1 9 10
M  V30 10 1 9 11
M  V30 11 1 11 12
M  V30 12 2 12 13
M  V30 13 1 13 14
M  V30 14 2 14 15
M  V30 15 1 15 16
M  V30 16 2 16 17
M  V30 17 1 17 18
M  V30 18 1 18 19
M  V30 19 2 18 20
M  V30 20 1 13 21
M  V30 21 2 21 22
M  V30 22 1 22 6
M  V30 23 1 22 11
M  V30 24 1 20 14
M  V30 25 1 1 23
M  V30 26 1 1 24
M  V30 27 1 1 25
M  V30 28 1 2 26
M  V30 29 1 2 27
M  V30 30 1 7 28
M  V30 31 1 10 29
M  V30 32 1 10 30
M  V30 33 1 15 31
M  V30 34 1 16 32
M  V30 35 1 17 33
M  V30 36 1 20 34
M  V30 END BOND
M  V30 END CTAB
M  END
>  <Dataset>  (419) 
ChEMBL_Kinases

>  <Ligand_Instance>  (419) 
nan

>  <PDB_ID>  (419) 
nan

>  <Standardized_SMILES>  (419) 
CCOC(=O)c1cnc(N)n2nc(-c3cccc(F)c3)nc12

>  <Name>  (419) 
nan

>  <Pocket>  (419) 
nan

>  <ATP_Site>  (419) 
nan

>  <Peripheral>  (419) 
nan

>  <Num_H_Atoms_ProtBoundConf>  (419) 
nan

>  <Num_Resolved_Atoms>  (419) 
nan

>  <Num_Not_Resolved_Atoms>  (419) 
nan

$$$$
CHEMBL4098153
     RDKit          3D

  0  0  0  0  0  0  0  0  0  0999 V3000
M  V30 BEGIN CTAB
M  V30 COUNTS 65 67 0 0 0
M  V30 BEGIN ATOM
M  V30 1 C 2.277596 -3.361472 2.760847 0
M  V30 2 C 2.730327 -3.618884 1.359787 0
M  V30 3 N 3.353461 -2.512029 0.759584 0
M  V30 4 C 4.629909 -2.096188 1.205145 0
M  V30 5 C 4.591501 -1.480755 2.566668 0
M  V30 6 C 3.141623 -2.363599 -0.644007 0
M  V30 7 C 1.689601 -1.971514 -0.944862 0
M  V30 8 C 1.505279 -1.860078 -2.416885 0
M  V30 9 C 0.158359 -1.516220 -2.939907 0
M  V30 10 C -0.874842 -2.555622 -2.494167 0
M  V30 11 N -0.301183 -0.190122 -2.788236 0
M  V30 12 C -0.772887 0.606572 -1.737053 0
M  V30 13 N -0.915886 0.137516 -0.486617 0
M  V30 14 C -1.373760 0.811052 0.564241 0
M  V30 15 C -1.568218 0.341768 1.961005 0
M  V30 16 C -2.958249 -0.187504 2.055315 0
M  V30 17 C -3.354468 -0.706230 3.385038 0
M  V30 18 C -3.640093 0.237734 4.364878 0
M  V30 19 Cl -3.547650 1.987221 4.102339 0
M  V30 20 C -4.026931 -0.135870 5.648016 0
M  V30 21 C -4.129923 -1.477247 5.956724 0
M  V30 22 Cl -4.597414 -2.154578 7.499526 0
M  V30 23 C -3.849658 -2.426082 4.995502 0
M  V30 24 C -3.465059 -2.051753 3.719297 0
M  V30 25 Cl -3.086974 -3.156712 2.422579 0
M  V30 26 N -1.738133 2.108835 0.368581 0
M  V30 27 C -1.633732 2.678026 -0.851121 0
M  V30 28 C -2.017152 3.979839 -0.971034 0
M  V30 29 C -1.946330 4.638199 -2.172566 0
M  V30 30 C -1.464583 3.876484 -3.207752 0
M  V30 31 N -1.371091 4.513221 -4.457044 0
M  V30 32 C -1.077101 2.560841 -3.084078 0
M  V30 33 C -1.153443 1.923197 -1.889321 0
M  V30 34 H 1.243222 -3.824913 2.905901 0
M  V30 35 H 2.889167 -3.891499 3.525779 0
M  V30 36 H 2.124556 -2.309563 3.035410 0
M  V30 37 H 3.409189 -4.539696 1.379211 0
M  V30 38 H 1.847548 -3.980545 0.745531 0
M  V30 39 H 5.329597 -2.986685 1.225799 0
M  V30 40 H 5.087989 -1.322213 0.517172 0
M  V30 41 H 4.464718 -2.193505 3.392033 0
M  V30 42 H 3.762480 -0.713391 2.579585 0
M  V30 43 H 5.563606 -0.936468 2.788905 0
M  V30 44 H 3.828152 -1.592185 -1.051490 0
M  V30 45 H 3.307346 -3.322642 -1.142936 0
M  V30 46 H 1.000980 -2.649783 -0.458768 0
M  V30 47 H 1.582810 -0.931547 -0.506759 0
M  V30 48 H 1.814621 -2.865748 -2.842066 0
M  V30 49 H 2.277194 -1.164515 -2.831611 0
M  V30 50 H 0.229643 -1.737058 -4.064594 0
M  V30 51 H -0.476110 -3.559094 -2.739818 0
M  V30 52 H -1.806420 -2.455471 -3.111447 0
M  V30 53 H -1.179573 -2.410264 -1.456724 0
M  V30 54 H -0.271785 0.305058 -3.704493 0
M  V30 55 H -0.831206 -0.465680 2.142079 0
M  V30 56 H -1.324271 1.138177 2.691396 0
M  V30 57 H -3.040976 -1.003117 1.298437 0
M  V30 58 H -3.679691 0.600078 1.692696 0
M  V30 59 H -4.263178 0.544792 6.454279 0
M  V30 60 H -3.901322 -3.504477 5.140984 0
M  V30 61 H -2.389730 4.512079 -0.095801 0
M  V30 62 H -2.239111 5.655540 -2.303088 0
M  V30 63 H -2.321088 4.321875 -4.890081 0
M  V30 64 H -1.212603 5.001790 -5.341616 0
M  V30 65 H -0.719715 2.094819 -3.979537 0
M  V30 END ATOM
M  V30 BEGIN BOND
M  V30 1 1 1 2
M  V30 2 1 2 3
M  V30 3 1 3 4
M  V30 4 1 4 5
M  V30 5 1 3 6
M  V30 6 1 6 7
M  V30 7 1 7 8
M  V30 8 1 8 9
M  V30 9 1 9 10
M  V30 10 1 9 11
M  V30 11 1 11 12
M  V30 12 2 12 13
M  V30 13 1 13 14
M  V30 14 1 14 15
M  V30 15 1 15 16
M  V30 16 1 16 17
M  V30 17 2 17 18
M  V30 18 1 18 19
M  V30 19 1 18 20
M  V30 20 2 20 21
M  V30 21 1 21 22
M  V30 22 1 21 23
M  V30 23 2 23 24
M  V30 24 1 24 25
M  V30 25 2 14 26
M  V30 26 1 26 27
M  V30 27 2 27 28
M  V30 28 1 28 29
M  V30 29 2 29 30
M  V30 30 1 30 31
M  V30 31 1 30 32
M  V30 32 2 32 33
M  V30 33 1 33 12
M  V30 34 1 24 17
M  V30 35 1 33 27
M  V30 36 1 1 34
M  V30 37 1 1 35
M  V30 38 1 1 36
M  V30 39 1 2 37
M  V30 40 1 2 38
M  V30 41 1 4 39
M  V30 42 1 4 40
M  V30 43 1 5 41
M  V30 44 1 5 42
M  V30 45 1 5 43
M  V30 46 1 6 44
M  V30 47 1 6 45
M  V30 48 1 7 46
M  V30 49 1 7 47
M  V30 50 1 8 48
M  V30 51 1 8 49
M  V30 52 1 9 50
M  V30 53 1 10 51
M  V30 54 1 10 52
M  V30 55 1 10 53
M  V30 56 1 11 54
M  V30 57 1 15 55
M  V30 58 1 15 56
M  V30 59 1 16 57
M  V30 60 1 16 58
M  V30 61 1 20 59
M  V30 62 1 23 60
M  V30 63 1 28 61
M  V30 64 1 29 62
M  V30 65 1 31 63
M  V30 66 1 31 64
M  V30 67 1 32 65
M  V30 END BOND
M  V30 END CTAB
M  END
>  <Dataset>  (420) 
ChEMBL_Kinases

>  <Ligand_Instance>  (420) 
nan

>  <PDB_ID>  (420) 
nan

>  <Standardized_SMILES>  (420) 
CCN(CC)CCCC(C)Nc1nc(CCc2c(Cl)cc(Cl)cc2Cl)nc2ccc(N)cc12

>  <Name>  (420) 
nan

>  <Pocket>  (420) 
nan

>  <ATP_Site>  (420) 
nan

>  <Peripheral>  (420) 
nan

>  <Num_H_Atoms_ProtBoundConf>  (420) 
nan

>  <Num_Resolved_Atoms>  (420) 
nan

>  <Num_Not_Resolved_Atoms>  (420) 
nan

$$$$
CHEMBL4800561
     RDKit          3D

  0  0  0  0  0  0  0  0  0  0999 V3000
M  V30 BEGIN CTAB
M  V30 COUNTS 38 41 0 0 0
M  V30 BEGIN ATOM
M  V30 1 C 0.775382 -4.464148 -0.680758 0
M  V30 2 O 0.818497 -3.082669 -0.856807 0
M  V30 3 C 1.952606 -2.314619 -1.043281 0
M  V30 4 C 3.195924 -2.911447 -1.067919 0
M  V30 5 C 4.264311 -2.059059 -1.259685 0
M  V30 6 C 4.210128 -0.691073 -1.426305 0
M  V30 7 C 2.922179 -0.145954 -1.391645 0
M  V30 8 F 2.815776 1.195278 -1.550767 0
M  V30 9 C 1.782833 -0.936470 -1.201943 0
M  V30 10 C 0.465851 -0.307843 -1.175364 0
M  V30 11 C 0.034994 0.101265 0.082322 0
M  V30 12 C -1.182956 0.701123 0.220536 0
M  V30 13 C -1.960252 0.884719 -0.914355 0
M  V30 14 C -1.529215 0.478102 -2.156227 0
M  V30 15 N -0.309039 -0.116614 -2.256387 0
M  V30 16 C -3.131331 1.503817 -0.521609 0
M  V30 17 N -2.990580 1.655347 0.818215 0
M  V30 18 N -1.858970 1.190942 1.260266 0
M  V30 19 C -1.387917 1.186401 2.602950 0
M  V30 20 C -0.194086 1.767269 2.982236 0
M  V30 21 N -0.100364 1.562374 4.290745 0
M  V30 22 N -1.153022 0.897400 4.736295 0
M  V30 23 C -1.417812 0.486916 6.089968 0
M  V30 24 C -2.011685 0.624877 3.721929 0
M  V30 25 H 0.802192 -4.643671 0.429920 0
M  V30 26 H -0.211615 -4.831698 -1.019984 0
M  V30 27 H 1.584956 -4.972890 -1.214287 0
M  V30 28 H 3.350081 -3.975311 -0.947307 0
M  V30 29 H 5.255155 -2.499318 -1.283731 0
M  V30 30 H 5.086439 -0.095013 -1.570723 0
M  V30 31 H 0.637924 -0.040254 0.968114 0
M  V30 32 H -2.148984 0.629747 -3.028920 0
M  V30 33 H -3.942048 1.782986 -1.167039 0
M  V30 34 H 0.559297 2.292304 2.412608 0
M  V30 35 H -0.506530 0.469172 6.734404 0
M  V30 36 H -1.935501 -0.488933 6.179370 0
M  V30 37 H -2.105793 1.242519 6.565472 0
M  V30 38 H -2.962104 0.103291 3.721873 0
M  V30 END ATOM
M  V30 BEGIN BOND
M  V30 1 1 1 2
M  V30 2 1 2 3
M  V30 3 2 3 4
M  V30 4 1 4 5
M  V30 5 2 5 6
M  V30 6 1 6 7
M  V30 7 1 7 8
M  V30 8 2 7 9
M  V30 9 1 9 10
M  V30 10 2 10 11
M  V30 11 1 11 12
M  V30 12 2 12 13
M  V30 13 1 13 14
M  V30 14 2 14 15
M  V30 15 1 13 16
M  V30 16 2 16 17
M  V30 17 1 17 18
M  V30 18 1 18 19
M  V30 19 1 19 20
M  V30 20 2 20 21
M  V30 21 1 21 22
M  V30 22 1 22 23
M  V30 23 1 22 24
M  V30 24 1 9 3
M  V30 25 1 15 10
M  V30 26 2 24 19
M  V30 27 1 18 12
M  V30 28 1 1 25
M  V30 29 1 1 26
M  V30 30 1 1 27
M  V30 31 1 4 28
M  V30 32 1 5 29
M  V30 33 1 6 30
M  V30 34 1 11 31
M  V30 35 1 14 32
M  V30 36 1 16 33
M  V30 37 1 20 34
M  V30 38 1 23 35
M  V30 39 1 23 36
M  V30 40 1 23 37
M  V30 41 1 24 38
M  V30 END BOND
M  V30 END CTAB
M  END
>  <Dataset>  (421) 
ChEMBL_Kinases

>  <Ligand_Instance>  (421) 
nan

>  <PDB_ID>  (421) 
nan

>  <Standardized_SMILES>  (421) 
COc1cccc(F)c1-c1cc2c(cn1)cnn2-c1cnn(C)c1

>  <Name>  (421) 
nan

>  <Pocket>  (421) 
nan

>  <ATP_Site>  (421) 
nan

>  <Peripheral>  (421) 
nan

>  <Num_H_Atoms_ProtBoundConf>  (421) 
nan

>  <Num_Resolved_Atoms>  (421) 
nan

>  <Num_Not_Resolved_Atoms>  (421) 
nan

$$$$
CHEMBL4098057
     RDKit          3D

  0  0  0  0  0  0  0  0  0  0999 V3000
M  V30 BEGIN CTAB
M  V30 COUNTS 53 58 0 0 0
M  V30 BEGIN ATOM
M  V30 1 C -3.168507 2.066803 3.956094 0
M  V30 2 C -1.925138 2.047081 4.553274 0
M  V30 3 C -0.956779 1.213901 4.069811 0
M  V30 4 C -1.144077 0.356275 2.981617 0
M  V30 5 C -0.210889 -0.518149 2.431055 0
M  V30 6 N 0.988833 -0.423137 3.161604 0
M  V30 7 C 1.876537 -1.365105 2.486775 0
M  V30 8 C 2.708648 -0.761634 1.401606 0
M  V30 9 C 1.980912 -0.082939 0.321338 0
M  V30 10 C 1.593518 -0.434290 -0.959755 0
M  V30 11 N 0.913068 0.552899 -1.570763 0
M  V30 12 C 0.826197 1.593254 -0.716806 0
M  V30 13 C 0.216603 2.802976 -0.958421 0
M  V30 14 C 0.267337 3.737493 0.080403 0
M  V30 15 C 0.898856 3.435213 1.267500 0
M  V30 16 C 1.478350 2.194108 1.410502 0
M  V30 17 C 1.476072 1.207320 0.435700 0
M  V30 18 N -0.574724 -1.264616 1.383140 0
M  V30 19 C -1.799550 -1.202271 0.846841 0
M  V30 20 N -2.198367 -1.990058 -0.246616 0
M  V30 21 C -1.531422 -2.962503 -1.019527 0
M  V30 22 C -2.166953 -3.620855 -2.048183 0
M  V30 23 C -1.551557 -4.568077 -2.827735 0
M  V30 24 C -0.235950 -4.900232 -2.597770 0
M  V30 25 N 0.569200 -5.795359 -3.236250 0
M  V30 26 N 1.760627 -5.739089 -2.630459 0
M  V30 27 C 1.717650 -4.838007 -1.637686 0
M  V30 28 C 0.464490 -4.272369 -1.573711 0
M  V30 29 C -0.220441 -3.335020 -0.836685 0
M  V30 30 N -2.662590 -0.348857 1.407407 0
M  V30 31 C -2.415399 0.445465 2.451659 0
M  V30 32 C -3.433420 1.252231 2.879906 0
M  V30 33 H -3.866922 2.751483 4.401515 0
M  V30 34 H -1.673244 2.664178 5.394960 0
M  V30 35 H 0.036910 1.183845 4.528927 0
M  V30 36 H 1.838653 -0.356096 3.678775 0
M  V30 37 H 1.301792 -2.206706 1.982326 0
M  V30 38 H 2.545969 -1.900018 3.184866 0
M  V30 39 H 3.265528 -1.629775 0.936669 0
M  V30 40 H 3.543172 -0.128906 1.807964 0
M  V30 41 H 1.854855 -1.420823 -1.359346 0
M  V30 42 H 0.565484 0.410527 -2.541035 0
M  V30 43 H -0.275336 3.030744 -1.889890 0
M  V30 44 H -0.189935 4.722921 -0.021489 0
M  V30 45 H 0.918423 4.177917 2.041908 0
M  V30 46 H 1.954340 2.033015 2.350207 0
M  V30 47 H -3.204898 -1.821011 -0.556196 0
M  V30 48 H -3.201128 -3.407597 -2.281252 0
M  V30 49 H -2.093681 -5.053512 -3.619388 0
M  V30 50 H 0.262306 -6.384801 -4.039728 0
M  V30 51 H 2.505459 -4.561140 -0.966243 0
M  V30 52 H 0.358711 -2.883386 -0.064158 0
M  V30 53 H -4.401526 1.282706 2.432348 0
M  V30 END ATOM
M  V30 BEGIN BOND
M  V30 1 2 1 2
M  V30 2 1 2 3
M  V30 3 2 3 4
M  V30 4 1 4 5
M  V30 5 1 5 6
M  V30 6 1 6 7
M  V30 7 1 7 8
M  V30 8 1 8 9
M  V30 9 2 9 10
M  V30 10 1 10 11
M  V30 11 1 11 12
M  V30 12 2 12 13
M  V30 13 1 13 14
M  V30 14 2 14 15
M  V30 15 1 15 16
M  V30 16 2 16 17
M  V30 17 2 5 18
M  V30 18 1 18 19
M  V30 19 1 19 20
M  V30 20 1 20 21
M  V30 21 2 21 22
M  V30 22 1 22 23
M  V30 23 2 23 24
M  V30 24 1 24 25
M  V30 25 1 25 26
M  V30 26 2 26 27
M  V30 27 1 27 28
M  V30 28 2 28 29
M  V30 29 2 19 30
M  V30 30 1 30 31
M  V30 31 2 31 32
M  V30 32 1 32 1
M  V30 33 1 31 4
M  V30 34 1 17 9
M  V30 35 1 29 21
M  V30 36 1 17 12
M  V30 37 1 28 24
M  V30 38 1 1 33
M  V30 39 1 2 34
M  V30 40 1 3 35
M  V30 41 1 6 36
M  V30 42 1 7 37
M  V30 43 1 7 38
M  V30 44 1 8 39
M  V30 45 1 8 40
M  V30 46 1 10 41
M  V30 47 1 11 42
M  V30 48 1 13 43
M  V30 49 1 14 44
M  V30 50 1 15 45
M  V30 51 1 16 46
M  V30 52 1 20 47
M  V30 53 1 22 48
M  V30 54 1 23 49
M  V30 55 1 25 50
M  V30 56 1 27 51
M  V30 57 1 29 52
M  V30 58 1 32 53
M  V30 END BOND
M  V30 END CTAB
M  END
>  <Dataset>  (422) 
ChEMBL_Kinases

>  <Ligand_Instance>  (422) 
nan

>  <PDB_ID>  (422) 
nan

>  <Standardized_SMILES>  (422) 
c1ccc2c(NCCc3c[nH]c4ccccc34)nc(Nc3ccc4[nH]ncc4c3)nc2c1

>  <Name>  (422) 
nan

>  <Pocket>  (422) 
nan

>  <ATP_Site>  (422) 
nan

>  <Peripheral>  (422) 
nan

>  <Num_H_Atoms_ProtBoundConf>  (422) 
nan

>  <Num_Resolved_Atoms>  (422) 
nan

>  <Num_Not_Resolved_Atoms>  (422) 
nan

$$$$
CHEMBL4098056
     RDKit          3D

  0  0  0  0  0  0  0  0  0  0999 V3000
M  V30 BEGIN CTAB
M  V30 COUNTS 46 49 0 0 0
M  V30 BEGIN ATOM
M  V30 1 C 4.001410 -5.050743 3.612211 0
M  V30 2 C 4.234303 -4.324961 2.351088 0
M  V30 3 C 4.238836 -2.939831 2.334140 0
M  V30 4 C 4.477079 -2.503993 1.042341 0
M  V30 5 C 4.578980 -1.115176 0.496493 0 CFG=2
M  V30 6 C 4.849379 -1.108616 -0.972309 0
M  V30 7 O 5.598753 -0.434136 1.173289 0
M  V30 8 C 3.310837 -0.367292 0.679532 0
M  V30 9 C 2.273191 0.233533 0.836443 0
M  V30 10 C 1.046622 0.954857 1.044531 0
M  V30 11 C -0.130059 0.480477 0.495248 0
M  V30 12 C -1.293065 1.220459 0.728527 0
M  V30 13 C -1.328157 2.401355 1.479462 0
M  V30 14 C -0.127546 2.834925 2.007520 0
M  V30 15 C 1.031433 2.117647 1.787980 0
M  V30 16 F 2.208621 2.555963 2.314216 0
M  V30 17 O -2.446143 3.184914 1.750084 0
M  V30 18 C -3.796715 3.008658 1.442128 0
M  V30 19 C -4.283796 1.590949 1.494547 0
M  V30 20 N -3.740640 0.760961 0.440642 0
M  V30 21 C -4.474795 0.001536 -0.391258 0
M  V30 22 C -3.620534 -0.652450 -1.267525 0
M  V30 23 C -3.997986 -1.586319 -2.347011 0
M  V30 24 N -5.364427 -1.877861 -2.549701 0
M  V30 25 O -3.111786 -2.127125 -3.090984 0
M  V30 26 N -2.348162 -0.290071 -0.969730 0
M  V30 27 C -2.445140 0.568258 0.070182 0
M  V30 28 N 4.605619 -3.647720 0.337740 0
M  V30 29 O 4.462713 -4.691237 1.108270 0
M  V30 30 H 4.675034 -4.708085 4.418969 0
M  V30 31 H 2.946036 -4.954768 3.985933 0
M  V30 32 H 4.147057 -6.158867 3.456136 0
M  V30 33 H 4.093773 -2.190403 3.126308 0
M  V30 34 H 5.508319 -0.244524 -1.182206 0
M  V30 35 H 5.380521 -2.018898 -1.305682 0
M  V30 36 H 3.903126 -1.028375 -1.546087 0
M  V30 37 H 5.276929 -0.216233 2.085290 0
M  V30 38 H -0.188237 -0.422676 -0.096746 0
M  V30 39 H -0.166489 3.734151 2.576804 0
M  V30 40 H -4.372039 3.549846 2.244426 0
M  V30 41 H -4.120598 3.526132 0.499513 0
M  V30 42 H -3.949032 1.193909 2.496540 0
M  V30 43 H -5.374960 1.606264 1.404824 0
M  V30 44 H -5.561435 -0.098858 -0.394807 0
M  V30 45 H -5.833297 -1.081003 -3.043281 0
M  V30 46 H -5.885239 -2.731042 -2.276127 0
M  V30 END ATOM
M  V30 BEGIN BOND
M  V30 1 1 1 2
M  V30 2 2 2 3
M  V30 3 1 3 4
M  V30 4 1 4 5
M  V30 5 1 5 6
M  V30 6 1 5 7
M  V30 7 1 5 8 CFG=3
M  V30 8 3 8 9
M  V30 9 1 9 10
M  V30 10 2 10 11
M  V30 11 1 11 12
M  V30 12 2 12 13
M  V30 13 1 13 14
M  V30 14 2 14 15
M  V30 15 1 15 16
M  V30 16 1 13 17
M  V30 17 1 17 18
M  V30 18 1 18 19
M  V30 19 1 19 20
M  V30 20 1 20 21
M  V30 21 2 21 22
M  V30 22 1 22 23
M  V30 23 1 23 24
M  V30 24 2 23 25
M  V30 25 1 22 26
M  V30 26 2 26 27
M  V30 27 2 4 28
M  V30 28 1 28 29
M  V30 29 1 29 2
M  V30 30 1 15 10
M  V30 31 1 27 20
M  V30 32 1 27 12
M  V30 33 1 1 30
M  V30 34 1 1 31
M  V30 35 1 1 32
M  V30 36 1 3 33
M  V30 37 1 6 34
M  V30 38 1 6 35
M  V30 39 1 6 36
M  V30 40 1 7 37
M  V30 41 1 11 38
M  V30 42 1 14 39
M  V30 43 1 18 40
M  V30 44 1 18 41
M  V30 45 1 19 42
M  V30 46 1 19 43
M  V30 47 1 21 44
M  V30 48 1 24 45
M  V30 49 1 24 46
M  V30 END BOND
M  V30 END CTAB
M  END
>  <Dataset>  (423) 
ChEMBL_Kinases

>  <Ligand_Instance>  (423) 
nan

>  <PDB_ID>  (423) 
nan

>  <Standardized_SMILES>  (423) 
Cc1cc([C@](C)(O)C#Cc2cc3c(cc2F)OCCn2cc(C(N)=O)nc2-3)no1

>  <Name>  (423) 
nan

>  <Pocket>  (423) 
nan

>  <ATP_Site>  (423) 
nan

>  <Peripheral>  (423) 
nan

>  <Num_H_Atoms_ProtBoundConf>  (423) 
nan

>  <Num_Resolved_Atoms>  (423) 
nan

>  <Num_Not_Resolved_Atoms>  (423) 
nan

$$$$
CHEMBL4098004
     RDKit          3D

  0  0  0  0  0  0  0  0  0  0999 V3000
M  V30 BEGIN CTAB
M  V30 COUNTS 54 57 0 0 0
M  V30 BEGIN ATOM
M  V30 1 C 4.040788 -2.150106 -3.067020 0
M  V30 2 N 4.412833 -0.846692 -2.559952 0
M  V30 3 C 4.802364 -0.672446 -1.287528 0
M  V30 4 C 5.110460 0.670361 -1.032305 0
M  V30 5 C 5.565996 1.452711 0.098023 0
M  V30 6 C 6.813966 2.013623 -0.143040 0
M  V30 7 C 7.436617 2.711792 0.864669 0
M  V30 8 N 6.797239 2.814467 2.040135 0
M  V30 9 C 5.592823 2.269330 2.258120 0
M  V30 10 C 4.910629 1.558386 1.293353 0
M  V30 11 C 3.582281 1.101405 1.596109 0
M  V30 12 C 2.566941 0.641079 0.926773 0
M  V30 13 C 1.271245 0.216028 1.422982 0
M  V30 14 O 0.818690 0.183345 2.576134 0
M  V30 15 N 0.294763 -0.256640 0.506312 0
M  V30 16 C -0.989632 -0.684398 0.929374 0
M  V30 17 C -1.914480 0.334156 0.945470 0
M  V30 18 C -3.218602 0.032140 1.345054 0
M  V30 19 C -3.657341 -1.212187 1.727503 0
M  V30 20 C -5.048104 -1.450390 2.147064 0
M  V30 21 N -5.984114 -1.727187 1.122439 0
M  V30 22 C -7.316064 -1.997801 1.621493 0
M  V30 23 C -7.763646 -3.317474 1.030733 0
M  V30 24 C -6.440089 -4.023904 0.819703 0
M  V30 25 F -5.980083 -4.566543 1.978787 0
M  V30 26 F -6.530636 -4.938589 -0.226063 0
M  V30 27 C -5.595908 -2.861647 0.331512 0
M  V30 28 C -2.697927 -2.191635 1.694379 0
M  V30 29 C -1.392124 -1.948284 1.306965 0
M  V30 30 C 4.866669 1.267072 -2.268368 0
M  V30 31 N 4.452991 0.324172 -3.147463 0
M  V30 32 H 3.278627 -2.088728 -3.857481 0
M  V30 33 H 4.954490 -2.581714 -3.550344 0
M  V30 34 H 3.698241 -2.823384 -2.263367 0
M  V30 35 H 4.917764 -1.369040 -0.444575 0
M  V30 36 H 7.360135 1.956878 -1.066711 0
M  V30 37 H 8.388453 3.179775 0.784394 0
M  V30 38 H 5.178390 2.421479 3.248165 0
M  V30 39 H 3.290588 1.110880 2.647933 0
M  V30 40 H 2.742964 0.615570 -0.131487 0
M  V30 41 H 0.445110 -0.326369 -0.544632 0
M  V30 42 H -1.723195 1.372523 0.671873 0
M  V30 43 H -3.958914 0.845205 1.358603 0
M  V30 44 H -5.058713 -2.253839 2.936017 0
M  V30 45 H -5.351491 -0.525574 2.721596 0
M  V30 46 H -8.028023 -1.187276 1.371967 0
M  V30 47 H -7.273361 -2.128613 2.721991 0
M  V30 48 H -8.397684 -3.899139 1.730509 0
M  V30 49 H -8.300621 -3.189982 0.062477 0
M  V30 50 H -4.531135 -3.057786 0.267754 0
M  V30 51 H -5.957150 -2.699583 -0.731978 0
M  V30 52 H -2.917026 -3.211586 1.980130 0
M  V30 53 H -0.616947 -2.697100 1.271031 0
M  V30 54 H 4.941915 2.269808 -2.626515 0
M  V30 END ATOM
M  V30 BEGIN BOND
M  V30 1 1 1 2
M  V30 2 1 2 3
M  V30 3 2 3 4
M  V30 4 1 4 5
M  V30 5 2 5 6
M  V30 6 1 6 7
M  V30 7 2 7 8
M  V30 8 1 8 9
M  V30 9 2 9 10
M  V30 10 1 10 11
M  V30 11 2 11 12
M  V30 12 1 12 13
M  V30 13 2 13 14
M  V30 14 1 13 15
M  V30 15 1 15 16
M  V30 16 2 16 17
M  V30 17 1 17 18
M  V30 18 2 18 19
M  V30 19 1 19 20
M  V30 20 1 20 21
M  V30 21 1 21 22
M  V30 22 1 22 23
M  V30 23 1 23 24
M  V30 24 1 24 25
M  V30 25 1 24 26
M  V30 26 1 24 27
M  V30 27 1 19 28
M  V30 28 2 28 29
M  V30 29 1 4 30
M  V30 30 2 30 31
M  V30 31 1 31 2
M  V30 32 1 10 5
M  V30 33 1 29 16
M  V30 34 1 27 21
M  V30 35 1 1 32
M  V30 36 1 1 33
M  V30 37 1 1 34
M  V30 38 1 3 35
M  V30 39 1 6 36
M  V30 40 1 7 37
M  V30 41 1 9 38
M  V30 42 1 11 39
M  V30 43 1 12 40
M  V30 44 1 15 41
M  V30 45 1 17 42
M  V30 46 1 18 43
M  V30 47 1 20 44
M  V30 48 1 20 45
M  V30 49 1 22 46
M  V30 50 1 22 47
M  V30 51 1 23 48
M  V30 52 1 23 49
M  V30 53 1 27 50
M  V30 54 1 27 51
M  V30 55 1 28 52
M  V30 56 1 29 53
M  V30 57 1 30 54
M  V30 END BOND
M  V30 END CTAB
M  END
>  <Dataset>  (424) 
ChEMBL_Kinases

>  <Ligand_Instance>  (424) 
nan

>  <PDB_ID>  (424) 
nan

>  <Standardized_SMILES>  (424) 
Cn1cc(-c2ccncc2/C=C/C(=O)Nc2ccc(CN3CCC(F)(F)C3)cc2)cn1

>  <Name>  (424) 
nan

>  <Pocket>  (424) 
nan

>  <ATP_Site>  (424) 
nan

>  <Peripheral>  (424) 
nan

>  <Num_H_Atoms_ProtBoundConf>  (424) 
nan

>  <Num_Resolved_Atoms>  (424) 
nan

>  <Num_Not_Resolved_Atoms>  (424) 
nan

$$$$
CHEMBL4097984
     RDKit          3D

  0  0  0  0  0  0  0  0  0  0999 V3000
M  V30 BEGIN CTAB
M  V30 COUNTS 50 53 0 0 0
M  V30 BEGIN ATOM
M  V30 1 C 1.180448 -1.592995 4.260250 0
M  V30 2 N 2.298631 -2.076990 3.469997 0
M  V30 3 C 2.000668 -2.042692 2.055328 0
M  V30 4 C 3.145349 -2.577437 1.245412 0
M  V30 5 C 2.853740 -2.834558 -0.196312 0
M  V30 6 N 1.474013 -2.407393 -0.446303 0
M  V30 7 C 1.130705 -1.416783 -1.383556 0
M  V30 8 O 1.990904 -0.835225 -2.098697 0
M  V30 9 C -0.299482 -1.065280 -1.504819 0
M  V30 10 N -0.479255 0.052341 -0.775695 0
M  V30 11 C -1.644388 0.670863 -0.653843 0
M  V30 12 N -1.770312 1.868599 0.160300 0
M  V30 13 C -0.533264 2.075502 0.842310 0
M  V30 14 C 0.769364 2.432416 0.615137 0
M  V30 15 C 1.387962 2.395261 1.840807 0
M  V30 16 C 2.827273 2.697132 2.060460 0
M  V30 17 N 0.489727 2.028344 2.791193 0
M  V30 18 N -0.647239 1.843187 2.174263 0
M  V30 19 C -2.703487 0.097777 -1.331533 0
M  V30 20 C -3.946781 0.695968 -1.235591 0
M  V30 21 C -5.026475 0.107085 -1.921190 0
M  V30 22 Cl -6.603783 0.847752 -1.812206 0
M  V30 23 C -4.815400 -1.025979 -2.653089 0
M  V30 24 C -3.596443 -1.649874 -2.774099 0
M  V30 25 C -2.575471 -1.044300 -2.092066 0
M  V30 26 N -1.345195 -1.593129 -2.148336 0
M  V30 27 C 0.496327 -3.130909 0.378738 0
M  V30 28 C 0.706560 -2.771596 1.836412 0
M  V30 29 H 1.475888 -1.414929 5.295290 0
M  V30 30 H 0.364403 -2.344272 4.244932 0
M  V30 31 H 0.794229 -0.631045 3.832062 0
M  V30 32 H 3.186632 -1.575355 3.699694 0
M  V30 33 H 1.842031 -0.953679 1.809736 0
M  V30 34 H 3.513432 -3.536736 1.704922 0
M  V30 35 H 3.982877 -1.845028 1.300205 0
M  V30 36 H 3.535586 -2.229041 -0.848223 0
M  V30 37 H 2.942326 -3.900989 -0.430142 0
M  V30 38 H -2.522299 2.530749 0.310228 0
M  V30 39 H 1.059502 2.660985 -0.388482 0
M  V30 40 H 2.990720 3.781234 2.030688 0
M  V30 41 H 3.135782 2.345098 3.070237 0
M  V30 42 H 3.460325 2.181673 1.316172 0
M  V30 43 H 0.732049 1.928369 3.809723 0
M  V30 44 H -4.036162 1.585231 -0.638158 0
M  V30 45 H -5.652618 -1.496934 -3.192697 0
M  V30 46 H -3.454609 -2.552419 -3.362022 0
M  V30 47 H 0.746622 -4.206293 0.267479 0
M  V30 48 H -0.510036 -2.964177 0.025701 0
M  V30 49 H -0.124950 -2.093492 2.124331 0
M  V30 50 H 0.675095 -3.657473 2.484317 0
M  V30 END ATOM
M  V30 BEGIN BOND
M  V30 1 1 1 2
M  V30 2 1 2 3
M  V30 3 1 3 4
M  V30 4 1 4 5
M  V30 5 1 5 6
M  V30 6 1 6 7
M  V30 7 2 7 8
M  V30 8 1 7 9
M  V30 9 2 9 10
M  V30 10 1 10 11
M  V30 11 1 11 12
M  V30 12 1 12 13
M  V30 13 1 13 14
M  V30 14 2 14 15
M  V30 15 1 15 16
M  V30 16 1 15 17
M  V30 17 1 17 18
M  V30 18 2 11 19
M  V30 19 1 19 20
M  V30 20 2 20 21
M  V30 21 1 21 22
M  V30 22 1 21 23
M  V30 23 2 23 24
M  V30 24 1 24 25
M  V30 25 2 25 26
M  V30 26 1 6 27
M  V30 27 1 27 28
M  V30 28 1 28 3
M  V30 29 1 26 9
M  V30 30 2 18 13
M  V30 31 1 25 19
M  V30 32 1 1 29
M  V30 33 1 1 30
M  V30 34 1 1 31
M  V30 35 1 2 32
M  V30 36 1 3 33
M  V30 37 1 4 34
M  V30 38 1 4 35
M  V30 39 1 5 36
M  V30 40 1 5 37
M  V30 41 1 12 38
M  V30 42 1 14 39
M  V30 43 1 16 40
M  V30 44 1 16 41
M  V30 45 1 16 42
M  V30 46 1 17 43
M  V30 47 1 20 44
M  V30 48 1 23 45
M  V30 49 1 24 46
M  V30 50 1 27 47
M  V30 51 1 27 48
M  V30 52 1 28 49
M  V30 53 1 28 50
M  V30 END BOND
M  V30 END CTAB
M  END
>  <Dataset>  (425) 
ChEMBL_Kinases

>  <Ligand_Instance>  (425) 
nan

>  <PDB_ID>  (425) 
nan

>  <Standardized_SMILES>  (425) 
CNC1CCN(C(=O)c2nc(Nc3cc(C)[nH]n3)c3cc(Cl)ccc3n2)CC1

>  <Name>  (425) 
nan

>  <Pocket>  (425) 
nan

>  <ATP_Site>  (425) 
nan

>  <Peripheral>  (425) 
nan

>  <Num_H_Atoms_ProtBoundConf>  (425) 
nan

>  <Num_Resolved_Atoms>  (425) 
nan

>  <Num_Not_Resolved_Atoms>  (425) 
nan

$$$$
CHEMBL4097969
     RDKit          3D

  0  0  0  0  0  0  0  0  0  0999 V3000
M  V30 BEGIN CTAB
M  V30 COUNTS 33 36 0 0 0
M  V30 BEGIN ATOM
M  V30 1 O 1.264250 -6.375841 1.668030 0
M  V30 2 C 1.134478 -5.320895 2.346523 0
M  V30 3 N 1.029820 -5.205701 3.758457 0
M  V30 4 C 0.900803 -3.822839 4.040190 0
M  V30 5 S 0.748737 -3.213782 5.562285 0
M  V30 6 N 0.927314 -3.103566 2.806432 0
M  V30 7 C 1.065874 -3.993037 1.800436 0
M  V30 8 C 1.118109 -3.544182 0.492446 0
M  V30 9 C 1.027854 -2.189711 0.226828 0
M  V30 10 C 1.075095 -1.700176 -1.061915 0
M  V30 11 C 0.979465 -0.338290 -1.254240 0
M  V30 12 C 0.838108 0.517672 -0.164418 0
M  V30 13 O 0.760753 1.854739 -0.602808 0
M  V30 14 C -0.505680 2.352396 -0.885797 0
M  V30 15 C -0.536320 3.683017 -1.320569 0
M  V30 16 C -1.756366 4.244889 -1.620469 0
M  V30 17 C -2.948097 3.561883 -1.513510 0
M  V30 18 F -4.208911 3.980066 -1.770325 0
M  V30 19 C -2.915337 2.251762 -1.084954 0
M  V30 20 C -1.693257 1.658180 -0.774710 0
M  V30 21 C 0.789869 0.032980 1.129901 0
M  V30 22 C 0.886658 -1.332840 1.309756 0
M  V30 23 C 0.831852 -1.752517 2.624098 0
M  V30 24 O 0.703781 -0.962312 3.594213 0
M  V30 25 H 1.044859 -5.986708 4.452430 0
M  V30 26 H 1.231300 -4.277051 -0.321109 0
M  V30 27 H 1.187330 -2.460772 -1.827483 0
M  V30 28 H 1.026471 -0.052664 -2.293588 0
M  V30 29 H 0.347434 4.281694 -1.429621 0
M  V30 30 H -1.899796 5.276570 -1.970419 0
M  V30 31 H -3.692913 1.498769 -0.914147 0
M  V30 32 H -1.501433 0.650154 -0.428983 0
M  V30 33 H 0.678877 0.806044 1.862148 0
M  V30 END ATOM
M  V30 BEGIN BOND
M  V30 1 2 1 2
M  V30 2 1 2 3
M  V30 3 1 3 4
M  V30 4 2 4 5
M  V30 5 1 4 6
M  V30 6 1 6 7
M  V30 7 2 7 8
M  V30 8 1 8 9
M  V30 9 2 9 10
M  V30 10 1 10 11
M  V30 11 2 11 12
M  V30 12 1 12 13
M  V30 13 1 13 14
M  V30 14 2 14 15
M  V30 15 1 15 16
M  V30 16 2 16 17
M  V30 17 1 17 18
M  V30 18 1 17 19
M  V30 19 2 19 20
M  V30 20 1 12 21
M  V30 21 2 21 22
M  V30 22 1 22 23
M  V30 23 2 23 24
M  V30 24 1 7 2
M  V30 25 1 22 9
M  V30 26 1 23 6
M  V30 27 1 20 14
M  V30 28 1 3 25
M  V30 29 1 8 26
M  V30 30 1 10 27
M  V30 31 1 11 28
M  V30 32 1 15 29
M  V30 33 1 16 30
M  V30 34 1 19 31
M  V30 35 1 20 32
M  V30 36 1 21 33
M  V30 END BOND
M  V30 END CTAB
M  END
>  <Dataset>  (426) 
ChEMBL_Kinases

>  <Ligand_Instance>  (426) 
nan

>  <PDB_ID>  (426) 
nan

>  <Standardized_SMILES>  (426) 
O=C1NC(=S)n2c1cc1ccc(Oc3ccc(F)cc3)cc1c2=O

>  <Name>  (426) 
nan

>  <Pocket>  (426) 
nan

>  <ATP_Site>  (426) 
nan

>  <Peripheral>  (426) 
nan

>  <Num_H_Atoms_ProtBoundConf>  (426) 
nan

>  <Num_Resolved_Atoms>  (426) 
nan

>  <Num_Not_Resolved_Atoms>  (426) 
nan

$$$$
CHEMBL4097937
     RDKit          3D

  0  0  0  0  0  0  0  0  0  0999 V3000
M  V30 BEGIN CTAB
M  V30 COUNTS 42 45 0 0 0
M  V30 BEGIN ATOM
M  V30 1 N 0.543599 -5.712002 2.439419 0
M  V30 2 C 1.594263 -4.956348 3.019710 0
M  V30 3 O 2.401060 -5.409163 3.863956 0
M  V30 4 C 1.807627 -3.581221 2.666135 0
M  V30 5 C 2.799252 -2.792131 3.184792 0
M  V30 6 N 2.811175 -1.557606 2.718740 0
M  V30 7 C 2.040457 -0.947977 1.844267 0
M  V30 8 N 2.343185 0.411302 1.551074 0
M  V30 9 C 1.832125 1.472498 0.774198 0 CFG=1
M  V30 10 C 0.532651 1.958668 1.394027 0
M  V30 11 C -0.027252 3.006229 0.439220 0
M  V30 12 C 0.910923 4.208356 0.605343 0
M  V30 13 N 2.203211 3.808599 0.147949 0
M  V30 14 C 2.768710 2.669184 0.794918 0
M  V30 15 C 1.014186 -1.660654 1.266584 0
M  V30 16 C 0.078208 -1.316812 0.345972 0
M  V30 17 C -0.848444 -2.244373 -0.074798 0
M  V30 18 C -1.913768 -2.209693 -0.984403 0
M  V30 19 C -2.804746 -3.150101 -1.370796 0
M  V30 20 C -3.743012 -2.817734 -2.288681 0
M  V30 21 C -3.776274 -1.470436 -2.837157 0
M  V30 22 S -2.323893 -0.647620 -1.932952 0
M  V30 23 S -0.455506 -3.717851 0.825559 0
M  V30 24 C 0.960456 -2.979974 1.730788 0
M  V30 25 H -0.430747 -5.484599 2.777382 0
M  V30 26 H 0.761153 -6.442627 1.722244 0
M  V30 27 H 3.465541 -3.204261 3.896583 0
M  V30 28 H 3.200472 0.792388 2.038878 0
M  V30 29 H 1.703900 1.165037 -0.294759 0
M  V30 30 H 0.841096 2.481784 2.328879 0
M  V30 31 H -0.166058 1.190020 1.685956 0
M  V30 32 H 0.107602 2.600465 -0.585388 0
M  V30 33 H -1.059114 3.240134 0.702880 0
M  V30 34 H 0.955351 4.396860 1.696916 0
M  V30 35 H 0.576981 5.066289 0.024598 0
M  V30 36 H 2.262916 3.818761 -0.873629 0
M  V30 37 H 3.714048 2.427245 0.269225 0
M  V30 38 H 2.998719 2.915964 1.854068 0
M  V30 39 H -0.035513 -0.361786 -0.124143 0
M  V30 40 H -2.754942 -4.134962 -0.948415 0
M  V30 41 H -4.501438 -3.491496 -2.666566 0
M  V30 42 H -4.523267 -1.130901 -3.596861 0
M  V30 END ATOM
M  V30 BEGIN BOND
M  V30 1 1 1 2
M  V30 2 2 2 3
M  V30 3 1 2 4
M  V30 4 2 4 5
M  V30 5 1 5 6
M  V30 6 2 6 7
M  V30 7 1 7 8
M  V30 8 1 8 9
M  V30 9 1 9 10
M  V30 10 1 10 11
M  V30 11 1 11 12
M  V30 12 1 12 13
M  V30 13 1 13 14
M  V30 14 1 7 15
M  V30 15 1 15 16
M  V30 16 2 16 17
M  V30 17 1 17 18
M  V30 18 2 18 19
M  V30 19 1 19 20
M  V30 20 2 20 21
M  V30 21 1 21 22
M  V30 22 1 17 23
M  V30 23 1 23 24
M  V30 24 1 24 4
M  V30 25 1 14 9
M  V30 26 2 24 15
M  V30 27 1 22 18
M  V30 28 1 1 25
M  V30 29 1 1 26
M  V30 30 1 5 27
M  V30 31 1 8 28
M  V30 32 1 9 29 CFG=3
M  V30 33 1 10 30
M  V30 34 1 10 31
M  V30 35 1 11 32
M  V30 36 1 11 33
M  V30 37 1 12 34
M  V30 38 1 12 35
M  V30 39 1 13 36
M  V30 40 1 14 37
M  V30 41 1 14 38
M  V30 42 1 16 39
M  V30 43 1 19 40
M  V30 44 1 20 41
M  V30 45 1 21 42
M  V30 END BOND
M  V30 END CTAB
M  END
>  <Dataset>  (427) 
ChEMBL_Kinases

>  <Ligand_Instance>  (427) 
nan

>  <PDB_ID>  (427) 
nan

>  <Standardized_SMILES>  (427) 
NC(=O)c1cnc(N[C@H]2CCCNC2)c2cc(-c3cccs3)sc12

>  <Name>  (427) 
nan

>  <Pocket>  (427) 
nan

>  <ATP_Site>  (427) 
nan

>  <Peripheral>  (427) 
nan

>  <Num_H_Atoms_ProtBoundConf>  (427) 
nan

>  <Num_Resolved_Atoms>  (427) 
nan

>  <Num_Not_Resolved_Atoms>  (427) 
nan

$$$$
CHEMBL480377
     RDKit          3D

  0  0  0  0  0  0  0  0  0  0999 V3000
M  V30 BEGIN CTAB
M  V30 COUNTS 60 65 0 0 0
M  V30 BEGIN ATOM
M  V30 1 C 4.182203 -1.569025 3.229868 0
M  V30 2 N 5.108212 -2.318555 2.425104 0
M  V30 3 C 5.566239 -1.652217 1.261084 0
M  V30 4 C 4.723143 -1.879847 0.036289 0
M  V30 5 N 4.030790 -3.155034 0.083027 0
M  V30 6 C 3.111604 -3.446115 -0.961880 0
M  V30 7 C 3.319722 -4.549039 -1.756690 0
M  V30 8 C 2.395391 -4.793013 -2.763528 0
M  V30 9 C 1.310592 -3.981097 -2.976255 0
M  V30 10 C 1.122744 -2.882104 -2.167533 0
M  V30 11 N 0.220730 -1.898349 -2.072210 0
M  V30 12 C 0.462522 -1.026673 -1.096177 0
M  V30 13 C -0.179547 0.168668 -0.591203 0
M  V30 14 N 0.272955 0.915893 0.455348 0
M  V30 15 N -0.515399 1.942338 0.686734 0
M  V30 16 C -1.543509 1.957221 -0.179606 0
M  V30 17 C -2.628956 2.786986 -0.375324 0
M  V30 18 C -3.539676 2.534194 -1.376787 0
M  V30 19 C -4.704255 3.378559 -1.626354 0
M  V30 20 C -5.147945 3.470036 -2.930386 0
M  V30 21 C -6.259259 4.260490 -3.243451 0
M  V30 22 C -6.889342 4.937393 -2.217643 0
M  V30 23 S -8.297949 5.951556 -2.545498 0
M  V30 24 N -9.762517 5.032431 -2.416173 0
M  V30 25 O -8.399879 7.070814 -1.544498 0
M  V30 26 O -8.255090 6.552575 -3.905039 0
M  V30 27 C -6.457127 4.858606 -0.893186 0
M  V30 28 C -5.344594 4.063870 -0.597671 0
M  V30 29 C -3.322676 1.425760 -2.169501 0
M  V30 30 C -2.229040 0.621804 -1.944061 0
M  V30 31 C -1.314138 0.846076 -0.963988 0
M  V30 32 N 1.593964 -1.509349 -0.553018 0
M  V30 33 C 2.026034 -2.619028 -1.161917 0
M  V30 34 C 4.167260 -4.179403 1.082386 0
M  V30 35 C 4.832263 -3.697766 2.321288 0
M  V30 36 H 4.254310 -1.957535 4.266727 0
M  V30 37 H 4.420140 -0.496018 3.262669 0
M  V30 38 H 3.128489 -1.674968 2.903552 0
M  V30 39 H 6.619483 -1.962640 1.075144 0
M  V30 40 H 5.589523 -0.559988 1.453870 0
M  V30 41 H 4.030186 -1.030475 -0.144081 0
M  V30 42 H 5.406274 -1.917241 -0.836918 0
M  V30 43 H 4.149664 -5.228109 -1.645075 0
M  V30 44 H 2.505467 -5.650796 -3.426043 0
M  V30 45 H 0.562238 -4.131669 -3.749984 0
M  V30 46 H -0.580488 -1.858334 -2.723166 0
M  V30 47 H -0.319996 2.620094 1.451887 0
M  V30 48 H -2.759278 3.644540 0.270090 0
M  V30 49 H -4.713752 2.975498 -3.784963 0
M  V30 50 H -6.661269 4.376791 -4.249185 0
M  V30 51 H -9.782223 4.385413 -3.241387 0
M  V30 52 H -9.757585 4.430248 -1.563168 0
M  V30 53 H -6.954009 5.392590 -0.083422 0
M  V30 54 H -4.955875 3.955334 0.394628 0
M  V30 55 H -4.026494 1.217296 -2.955151 0
M  V30 56 H -2.127458 -0.219617 -2.599799 0
M  V30 57 H 3.202948 -4.705469 1.270934 0
M  V30 58 H 4.817365 -4.970494 0.619533 0
M  V30 59 H 4.137169 -3.954309 3.175767 0
M  V30 60 H 5.748193 -4.290467 2.551982 0
M  V30 END ATOM
M  V30 BEGIN BOND
M  V30 1 1 1 2
M  V30 2 1 2 3
M  V30 3 1 3 4
M  V30 4 1 4 5
M  V30 5 1 5 6
M  V30 6 2 6 7
M  V30 7 1 7 8
M  V30 8 2 8 9
M  V30 9 1 9 10
M  V30 10 1 10 11
M  V30 11 1 11 12
M  V30 12 1 12 13
M  V30 13 2 13 14
M  V30 14 1 14 15
M  V30 15 1 15 16
M  V30 16 2 16 17
M  V30 17 1 17 18
M  V30 18 1 18 19
M  V30 19 2 19 20
M  V30 20 1 20 21
M  V30 21 2 21 22
M  V30 22 1 22 23
M  V30 23 1 23 24
M  V30 24 2 23 25
M  V30 25 2 23 26
M  V30 26 1 22 27
M  V30 27 2 27 28
M  V30 28 2 18 29
M  V30 29 1 29 30
M  V30 30 2 30 31
M  V30 31 2 12 32
M  V30 32 1 32 33
M  V30 33 1 5 34
M  V30 34 1 34 35
M  V30 35 1 35 2
M  V30 36 1 33 6
M  V30 37 2 33 10
M  V30 38 1 31 13
M  V30 39 1 31 16
M  V30 40 1 28 19
M  V30 41 1 1 36
M  V30 42 1 1 37
M  V30 43 1 1 38
M  V30 44 1 3 39
M  V30 45 1 3 40
M  V30 46 1 4 41
M  V30 47 1 4 42
M  V30 48 1 7 43
M  V30 49 1 8 44
M  V30 50 1 9 45
M  V30 51 1 11 46
M  V30 52 1 15 47
M  V30 53 1 17 48
M  V30 54 1 20 49
M  V30 55 1 21 50
M  V30 56 1 24 51
M  V30 57 1 24 52
M  V30 58 1 27 53
M  V30 59 1 28 54
M  V30 60 1 29 55
M  V30 61 1 30 56
M  V30 62 1 34 57
M  V30 63 1 34 58
M  V30 64 1 35 59
M  V30 65 1 35 60
M  V30 END BOND
M  V30 END CTAB
M  END
>  <Dataset>  (428) 
ChEMBL_Kinases

>  <Ligand_Instance>  (428) 
nan

>  <PDB_ID>  (428) 
nan

>  <Standardized_SMILES>  (428) 
CN1CCN(c2cccc3[nH]c(-c4n[nH]c5cc(-c6ccc(S(N)(=O)=O)cc6)ccc45)nc23)CC1

>  <Name>  (428) 
nan

>  <Pocket>  (428) 
nan

>  <ATP_Site>  (428) 
nan

>  <Peripheral>  (428) 
nan

>  <Num_H_Atoms_ProtBoundConf>  (428) 
nan

>  <Num_Resolved_Atoms>  (428) 
nan

>  <Num_Not_Resolved_Atoms>  (428) 
nan

$$$$
CHEMBL4097781
     RDKit          3D

  0  0  0  0  0  0  0  0  0  0999 V3000
M  V30 BEGIN CTAB
M  V30 COUNTS 63 64 0 0 0
M  V30 BEGIN ATOM
M  V30 1 C 3.083402 -2.858553 5.894506 0
M  V30 2 C 3.672370 -2.105888 4.757569 0
M  V30 3 C 3.186660 -1.533520 3.670316 0
M  V30 4 O 1.791114 -1.762250 3.719977 0
M  V30 5 C 4.234971 -0.899901 2.851119 0 CFG=1
M  V30 6 C 4.164331 0.598479 2.766458 0
M  V30 7 C 2.942685 1.161426 2.192263 0
M  V30 8 C 1.529175 1.112314 2.605867 0
M  V30 9 C 3.032417 1.906394 1.073628 0
M  V30 10 C 2.107943 2.639842 0.184434 0
M  V30 11 C 2.176956 2.157132 -1.251960 0
M  V30 12 C 1.820223 0.712827 -1.423809 0 CFG=2
M  V30 13 C 1.940633 0.367514 -2.902330 0
M  V30 14 C 0.412646 0.436770 -0.988931 0
M  V30 15 C -0.480663 -0.037175 -1.873971 0
M  V30 16 C -1.882183 -0.335184 -1.530505 0
M  V30 17 C -2.765791 -0.801881 -2.397911 0
M  V30 18 C -2.325704 -1.040276 -3.796297 0
M  V30 19 C -4.165102 -1.085529 -2.000714 0
M  V30 20 C -4.533728 -2.537919 -2.209794 0
M  V30 21 C -5.965683 -2.808128 -1.799614 0
M  V30 22 C -6.212811 -2.505242 -0.384240 0
M  V30 23 C -6.073805 -3.387901 0.673665 0
M  V30 24 C -6.405821 -2.701492 1.845568 0
M  V30 25 O -6.722837 -1.484200 1.502437 0
M  V30 26 C -6.623270 -1.325434 0.202462 0
M  V30 27 O 5.427375 -1.196407 3.540554 0
M  V30 28 C 5.112064 -1.890940 4.679235 0
M  V30 29 O 6.111120 -2.185460 5.393461 0
M  V30 30 H 3.776532 -3.627233 6.284140 0
M  V30 31 H 2.177458 -3.431493 5.540794 0
M  V30 32 H 2.714061 -2.206588 6.712897 0
M  V30 33 H 1.325794 -2.188257 2.925100 0
M  V30 34 H 4.253558 -1.322896 1.810081 0
M  V30 35 H 5.035006 0.912720 2.154125 0
M  V30 36 H 4.383351 1.007014 3.788031 0
M  V30 37 H 1.035659 0.276797 2.085933 0
M  V30 38 H 0.972291 2.063915 2.466943 0
M  V30 39 H 1.443482 0.917982 3.716261 0
M  V30 40 H 4.038189 2.055202 0.635845 0
M  V30 41 H 1.041763 2.620786 0.528945 0
M  V30 42 H 2.403652 3.708072 0.183390 0
M  V30 43 H 3.220658 2.294727 -1.597501 0
M  V30 44 H 1.525173 2.801679 -1.860558 0
M  V30 45 H 2.529947 0.100608 -0.843147 0
M  V30 46 H 3.007423 0.628634 -3.164172 0
M  V30 47 H 1.281128 1.037662 -3.468649 0
M  V30 48 H 1.761717 -0.699868 -3.061781 0
M  V30 49 H -0.038784 0.563521 -0.019764 0
M  V30 50 H -0.213237 -0.227861 -2.902509 0
M  V30 51 H -2.217872 -0.162267 -0.498410 0
M  V30 52 H -1.576796 -1.884007 -3.795941 0
M  V30 53 H -3.169620 -1.413532 -4.386394 0
M  V30 54 H -1.821016 -0.162110 -4.251473 0
M  V30 55 H -4.371972 -0.816840 -0.955310 0
M  V30 56 H -4.800660 -0.412659 -2.619187 0
M  V30 57 H -4.372355 -2.762814 -3.283018 0
M  V30 58 H -3.819986 -3.158017 -1.633435 0
M  V30 59 H -6.176729 -3.872056 -2.057735 0
M  V30 60 H -6.607404 -2.216538 -2.508533 0
M  V30 61 H -5.771607 -4.422931 0.673649 0
M  V30 62 H -6.406510 -3.090421 2.863326 0
M  V30 63 H -6.806444 -0.452918 -0.435095 0
M  V30 END ATOM
M  V30 BEGIN BOND
M  V30 1 1 1 2
M  V30 2 2 2 3
M  V30 3 1 3 4
M  V30 4 1 3 5
M  V30 5 1 5 6
M  V30 6 1 6 7
M  V30 7 1 7 8
M  V30 8 2 7 9
M  V30 9 1 9 10
M  V30 10 1 10 11
M  V30 11 1 11 12
M  V30 12 1 12 13
M  V30 13 1 12 14
M  V30 14 2 14 15
M  V30 15 1 15 16
M  V30 16 2 16 17
M  V30 17 1 17 18
M  V30 18 1 17 19
M  V30 19 1 19 20
M  V30 20 1 20 21
M  V30 21 1 21 22
M  V30 22 1 22 23
M  V30 23 2 23 24
M  V30 24 1 24 25
M  V30 25 1 25 26
M  V30 26 1 5 27
M  V30 27 1 27 28
M  V30 28 2 28 29
M  V30 29 1 28 2
M  V30 30 2 26 22
M  V30 31 1 1 30
M  V30 32 1 1 31
M  V30 33 1 1 32
M  V30 34 1 4 33
M  V30 35 1 5 34 CFG=3
M  V30 36 1 6 35
M  V30 37 1 6 36
M  V30 38 1 8 37
M  V30 39 1 8 38
M  V30 40 1 8 39
M  V30 41 1 9 40
M  V30 42 1 10 41
M  V30 43 1 10 42
M  V30 44 1 11 43
M  V30 45 1 11 44
M  V30 46 1 12 45 CFG=1
M  V30 47 1 13 46
M  V30 48 1 13 47
M  V30 49 1 13 48
M  V30 50 1 14 49
M  V30 51 1 15 50
M  V30 52 1 16 51
M  V30 53 1 18 52
M  V30 54 1 18 53
M  V30 55 1 18 54
M  V30 56 1 19 55
M  V30 57 1 19 56
M  V30 58 1 20 57
M  V30 59 1 20 58
M  V30 60 1 21 59
M  V30 61 1 21 60
M  V30 62 1 23 61
M  V30 63 1 24 62
M  V30 64 1 26 63
M  V30 END BOND
M  V30 END CTAB
M  END
>  <Dataset>  (429) 
ChEMBL_Kinases

>  <Ligand_Instance>  (429) 
nan

>  <PDB_ID>  (429) 
nan

>  <Standardized_SMILES>  (429) 
CC1=C(O)[C@@H](C/C(C)=C/CC[C@H](C)/C=C/C=C(\C)CCCc2ccoc2)OC1=O

>  <Name>  (429) 
nan

>  <Pocket>  (429) 
nan

>  <ATP_Site>  (429) 
nan

>  <Peripheral>  (429) 
nan

>  <Num_H_Atoms_ProtBoundConf>  (429) 
nan

>  <Num_Resolved_Atoms>  (429) 
nan

>  <Num_Not_Resolved_Atoms>  (429) 
nan

$$$$
CHEMBL4097647
     RDKit          3D

  0  0  0  0  0  0  0  0  0  0999 V3000
M  V30 BEGIN CTAB
M  V30 COUNTS 51 54 0 0 0
M  V30 BEGIN ATOM
M  V30 1 C 2.784532 -4.574519 3.731012 0
M  V30 2 C 2.471189 -3.146081 3.350036 0
M  V30 3 C 0.986758 -2.930561 3.662877 0
M  V30 4 N 2.701140 -2.909606 1.937097 0
M  V30 5 C 3.782437 -3.272617 1.226555 0
M  V30 6 N 3.646835 -2.884162 -0.063799 0
M  V30 7 C 2.444002 -2.252312 -0.190701 0
M  V30 8 N 1.823696 -1.655500 -1.346301 0
M  V30 9 C 0.542343 -1.042111 -1.240956 0
M  V30 10 N 0.373571 0.278796 -0.937475 0
M  V30 11 C -0.818836 0.848630 -0.839679 0
M  V30 12 N -0.939586 2.229536 -0.520743 0
M  V30 13 C 0.184273 3.091881 -0.285684 0
M  V30 14 C -0.119509 4.046778 0.874529 0
M  V30 15 C -1.187785 3.394491 1.750924 0
M  V30 16 N -0.744276 2.042470 2.051444 0
M  V30 17 C -2.494003 3.355854 1.000460 0
M  V30 18 C -2.234322 2.873889 -0.408982 0
M  V30 19 N -1.943585 0.138884 -1.038703 0
M  V30 20 C -1.896958 -1.188497 -1.347307 0
M  V30 21 C -3.047179 -1.923143 -1.552894 0
M  V30 22 C -2.919663 -3.263804 -1.862202 0
M  V30 23 C -1.659526 -3.818362 -1.954427 0
M  V30 24 Cl -1.625930 -5.540925 -2.355694 0
M  V30 25 C -0.493933 -3.099543 -1.752083 0
M  V30 26 C -0.635438 -1.757653 -1.442902 0
M  V30 27 C 1.882861 -2.285553 1.069541 0
M  V30 28 H 3.842664 -4.648302 4.004409 0
M  V30 29 H 2.177483 -4.813188 4.630855 0
M  V30 30 H 2.453799 -5.258661 2.932589 0
M  V30 31 H 3.066233 -2.447311 3.962574 0
M  V30 32 H 0.343288 -3.345812 2.859175 0
M  V30 33 H 0.819969 -1.832858 3.634192 0
M  V30 34 H 0.741758 -3.280211 4.669882 0
M  V30 35 H 4.658408 -3.798811 1.584653 0
M  V30 36 H 2.330905 -1.682790 -2.255221 0
M  V30 37 H 0.274676 3.747987 -1.200320 0
M  V30 38 H 1.139790 2.590001 -0.130452 0
M  V30 39 H -0.489318 5.013652 0.505441 0
M  V30 40 H 0.781227 4.141500 1.494667 0
M  V30 41 H -1.316389 4.010863 2.656384 0
M  V30 42 H -1.569825 1.482459 2.394185 0
M  V30 43 H 0.038934 2.045206 2.732195 0
M  V30 44 H -2.958989 4.360397 1.012224 0
M  V30 45 H -3.181957 2.666847 1.549854 0
M  V30 46 H -2.294219 3.712255 -1.135777 0
M  V30 47 H -3.018794 2.145154 -0.689419 0
M  V30 48 H -4.011521 -1.422909 -1.464590 0
M  V30 49 H -3.837003 -3.802460 -2.015131 0
M  V30 50 H 0.471821 -3.598296 -1.839976 0
M  V30 51 H 0.921656 -1.867682 1.318321 0
M  V30 END ATOM
M  V30 BEGIN BOND
M  V30 1 1 1 2
M  V30 2 1 2 3
M  V30 3 1 2 4
M  V30 4 1 4 5
M  V30 5 2 5 6
M  V30 6 1 6 7
M  V30 7 1 7 8
M  V30 8 1 8 9
M  V30 9 2 9 10
M  V30 10 1 10 11
M  V30 11 1 11 12
M  V30 12 1 12 13
M  V30 13 1 13 14
M  V30 14 1 14 15
M  V30 15 1 15 16
M  V30 16 1 15 17
M  V30 17 1 17 18
M  V30 18 2 11 19
M  V30 19 1 19 20
M  V30 20 2 20 21
M  V30 21 1 21 22
M  V30 22 2 22 23
M  V30 23 1 23 24
M  V30 24 1 23 25
M  V30 25 2 25 26
M  V30 26 2 7 27
M  V30 27 1 27 4
M  V30 28 1 26 9
M  V30 29 1 18 12
M  V30 30 1 26 20
M  V30 31 1 1 28
M  V30 32 1 1 29
M  V30 33 1 1 30
M  V30 34 1 2 31
M  V30 35 1 3 32
M  V30 36 1 3 33
M  V30 37 1 3 34
M  V30 38 1 5 35
M  V30 39 1 8 36
M  V30 40 1 13 37
M  V30 41 1 13 38
M  V30 42 1 14 39
M  V30 43 1 14 40
M  V30 44 1 15 41
M  V30 45 1 16 42
M  V30 46 1 16 43
M  V30 47 1 17 44
M  V30 48 1 17 45
M  V30 49 1 18 46
M  V30 50 1 18 47
M  V30 51 1 21 48
M  V30 52 1 22 49
M  V30 53 1 25 50
M  V30 54 1 27 51
M  V30 END BOND
M  V30 END CTAB
M  END
>  <Dataset>  (430) 
ChEMBL_Kinases

>  <Ligand_Instance>  (430) 
nan

>  <PDB_ID>  (430) 
nan

>  <Standardized_SMILES>  (430) 
CC(C)n1cnc(Nc2nc(N3CCC(N)CC3)nc3ccc(Cl)cc23)c1

>  <Name>  (430) 
nan

>  <Pocket>  (430) 
nan

>  <ATP_Site>  (430) 
nan

>  <Peripheral>  (430) 
nan

>  <Num_H_Atoms_ProtBoundConf>  (430) 
nan

>  <Num_Resolved_Atoms>  (430) 
nan

>  <Num_Not_Resolved_Atoms>  (430) 
nan

$$$$
CHEMBL4097629
     RDKit          3D

  0  0  0  0  0  0  0  0  0  0999 V3000
M  V30 BEGIN CTAB
M  V30 COUNTS 48 51 0 0 0
M  V30 BEGIN ATOM
M  V30 1 C -0.036411 -3.557194 0.004809 0
M  V30 2 O 0.743443 -2.649085 0.737166 0
M  V30 3 C 1.975246 -2.268117 0.251654 0
M  V30 4 C 2.438086 -2.780824 -0.943496 0
M  V30 5 C 3.637821 -2.479169 -1.512308 0
M  V30 6 C 4.425805 -1.590991 -0.814713 0
M  V30 7 C 4.010773 -1.050041 0.382276 0
M  V30 8 N 4.804324 -0.202798 1.056438 0
M  V30 9 C 4.490781 0.355017 2.235924 0
M  V30 10 C 3.245326 -0.018396 2.723428 0
M  V30 11 C 2.340031 -0.888226 2.107944 0
M  V30 12 N 1.118362 -1.138574 2.774633 0
M  V30 13 C -0.258047 -0.864467 2.575845 0
M  V30 14 C -0.824563 -0.126441 1.549720 0
M  V30 15 C -2.161709 0.131510 1.367390 0
M  V30 16 C -2.640252 0.924773 0.244361 0
M  V30 17 C -1.871692 1.494991 -0.735270 0
M  V30 18 C -2.388985 2.233475 -1.769599 0
M  V30 19 C -1.449990 2.801915 -2.772994 0
M  V30 20 C -3.773991 2.417376 -1.832527 0
M  V30 21 C -4.550171 1.845449 -0.849139 0
M  V30 22 C -4.021745 1.103843 0.188174 0
M  V30 23 F -4.872241 0.578270 1.113114 0
M  V30 24 N -2.950373 -0.412615 2.310633 0
M  V30 25 C -2.470978 -1.138251 3.331546 0
M  V30 26 C -1.129813 -1.390040 3.503964 0
M  V30 27 C -0.648468 -2.201312 4.653832 0
M  V30 28 C 2.791171 -1.388065 0.908659 0
M  V30 29 H -0.924143 -3.887440 0.608096 0
M  V30 30 H 0.515713 -4.504991 -0.233467 0
M  V30 31 H -0.372264 -3.146871 -0.975793 0
M  V30 32 H 1.786895 -3.476197 -1.459330 0
M  V30 33 H 4.022728 -2.859110 -2.434827 0
M  V30 34 H 5.395059 -1.292857 -1.188571 0
M  V30 35 H 5.103626 1.035080 2.800697 0
M  V30 36 H 2.961626 0.424698 3.690450 0
M  V30 37 H 1.423642 -1.666927 3.606360 0
M  V30 38 H -0.066551 0.253900 0.858395 0
M  V30 39 H -0.813154 1.349681 -0.679993 0
M  V30 40 H -0.878393 3.654831 -2.379053 0
M  V30 41 H -2.040395 3.051958 -3.699213 0
M  V30 42 H -0.797331 1.937660 -3.076929 0
M  V30 43 H -4.139675 3.005310 -2.663140 0
M  V30 44 H -5.601732 2.039427 -0.978941 0
M  V30 45 H -3.174510 -1.545401 4.054899 0
M  V30 46 H 0.111299 -1.675112 5.255316 0
M  V30 47 H -0.243381 -3.178831 4.294160 0
M  V30 48 H -1.496775 -2.428035 5.304146 0
M  V30 END ATOM
M  V30 BEGIN BOND
M  V30 1 1 1 2
M  V30 2 1 2 3
M  V30 3 2 3 4
M  V30 4 1 4 5
M  V30 5 2 5 6
M  V30 6 1 6 7
M  V30 7 2 7 8
M  V30 8 1 8 9
M  V30 9 2 9 10
M  V30 10 1 10 11
M  V30 11 1 11 12
M  V30 12 1 12 13
M  V30 13 2 13 14
M  V30 14 1 14 15
M  V30 15 1 15 16
M  V30 16 2 16 17
M  V30 17 1 17 18
M  V30 18 1 18 19
M  V30 19 2 18 20
M  V30 20 1 20 21
M  V30 21 2 21 22
M  V30 22 1 22 23
M  V30 23 2 15 24
M  V30 24 1 24 25
M  V30 25 2 25 26
M  V30 26 1 26 27
M  V30 27 2 11 28
M  V30 28 1 28 3
M  V30 29 1 28 7
M  V30 30 1 26 13
M  V30 31 1 22 16
M  V30 32 1 1 29
M  V30 33 1 1 30
M  V30 34 1 1 31
M  V30 35 1 4 32
M  V30 36 1 5 33
M  V30 37 1 6 34
M  V30 38 1 9 35
M  V30 39 1 10 36
M  V30 40 1 12 37
M  V30 41 1 14 38
M  V30 42 1 17 39
M  V30 43 1 19 40
M  V30 44 1 19 41
M  V30 45 1 19 42
M  V30 46 1 20 43
M  V30 47 1 21 44
M  V30 48 1 25 45
M  V30 49 1 27 46
M  V30 50 1 27 47
M  V30 51 1 27 48
M  V30 END BOND
M  V30 END CTAB
M  END
>  <Dataset>  (431) 
ChEMBL_Kinases

>  <Ligand_Instance>  (431) 
nan

>  <PDB_ID>  (431) 
nan

>  <Standardized_SMILES>  (431) 
COc1cccc2nccc(Nc3cc(-c4cc(C)ccc4F)ncc3C)c12

>  <Name>  (431) 
nan

>  <Pocket>  (431) 
nan

>  <ATP_Site>  (431) 
nan

>  <Peripheral>  (431) 
nan

>  <Num_H_Atoms_ProtBoundConf>  (431) 
nan

>  <Num_Resolved_Atoms>  (431) 
nan

>  <Num_Not_Resolved_Atoms>  (431) 
nan

$$$$
CHEMBL4097627
     RDKit          3D

  0  0  0  0  0  0  0  0  0  0999 V3000
M  V30 BEGIN CTAB
M  V30 COUNTS 53 58 0 0 0
M  V30 BEGIN ATOM
M  V30 1 O -0.295356 -2.292197 6.609891 0
M  V30 2 C 0.670744 -1.668532 5.855154 0
M  V30 3 C 1.935997 -1.672296 6.381478 0
M  V30 4 C 2.955654 -1.055763 5.661155 0
M  V30 5 C 2.649026 -0.472631 4.458625 0
M  V30 6 C 1.371033 -0.475905 3.940535 0
M  V30 7 C 1.008399 0.135431 2.665143 0
M  V30 8 N 1.902124 0.767514 1.884697 0
M  V30 9 C 1.276384 1.233358 0.770325 0
M  V30 10 C 1.916454 1.977109 -0.304184 0
M  V30 11 C 1.680420 3.308317 -0.576104 0
M  V30 12 C 2.324659 3.961109 -1.622785 0
M  V30 13 C 3.199589 3.180281 -2.347778 0
M  V30 14 F 3.829666 3.831216 -3.377615 0
M  V30 15 C 3.486087 1.848280 -2.135694 0
M  V30 16 C 2.810727 1.239882 -1.070185 0
M  V30 17 C -0.048690 0.872347 0.872948 0
M  V30 18 C -1.146926 1.120710 -0.051145 0
M  V30 19 C -1.734494 2.292679 -0.475809 0
M  V30 20 C -2.776160 2.261695 -1.373578 0
M  V30 21 N -3.255003 1.099516 -1.864983 0
M  V30 22 C -2.703931 -0.069374 -1.471231 0
M  V30 23 N -3.041483 -1.316922 -1.845843 0
M  V30 24 C -2.245435 -2.166915 -1.219073 0
M  V30 25 C -2.260310 -3.639895 -1.330427 0
M  V30 26 C -1.377617 -4.446403 -0.626460 0
M  V30 27 C -1.421947 -5.815676 -0.755999 0
M  V30 28 C -2.372238 -6.334427 -1.606346 0
M  V30 29 C -3.294148 -5.603666 -2.348800 0
M  V30 30 C -3.187718 -4.233836 -2.165984 0
M  V30 31 C -1.389106 -1.443917 -0.434055 0
M  V30 32 C -1.649883 -0.080407 -0.565624 0
M  V30 33 N -0.183665 0.205242 2.036167 0
M  V30 34 C 0.344206 -1.081905 4.638000 0
M  V30 35 H -1.068510 -1.849682 7.064574 0
M  V30 36 H 2.194839 -2.126867 7.327372 0
M  V30 37 H 3.977460 -1.017047 6.008256 0
M  V30 38 H 3.382459 0.036277 3.822317 0
M  V30 39 H 0.997532 3.853117 0.022669 0
M  V30 40 H 2.155045 5.001416 -1.852136 0
M  V30 41 H 4.200039 1.362884 -2.790903 0
M  V30 42 H 3.060301 0.192745 -0.932504 0
M  V30 43 H -1.277570 3.156807 -0.019652 0
M  V30 44 H -3.157367 3.253177 -1.634591 0
M  V30 45 H -3.802711 -1.574206 -2.517798 0
M  V30 46 H -0.646897 -3.987435 0.030565 0
M  V30 47 H -0.749200 -6.479136 -0.222558 0
M  V30 48 H -2.426579 -7.423037 -1.727083 0
M  V30 49 H -4.012431 -6.078658 -2.997006 0
M  V30 50 H -3.881384 -3.603303 -2.718808 0
M  V30 51 H -0.606198 -1.829015 0.213024 0
M  V30 52 H -1.045176 -0.227258 2.465212 0
M  V30 53 H -0.684640 -1.138778 4.322237 0
M  V30 END ATOM
M  V30 BEGIN BOND
M  V30 1 1 1 2
M  V30 2 2 2 3
M  V30 3 1 3 4
M  V30 4 2 4 5
M  V30 5 1 5 6
M  V30 6 1 6 7
M  V30 7 2 7 8
M  V30 8 1 8 9
M  V30 9 1 9 10
M  V30 10 2 10 11
M  V30 11 1 11 12
M  V30 12 2 12 13
M  V30 13 1 13 14
M  V30 14 1 13 15
M  V30 15 2 15 16
M  V30 16 2 9 17
M  V30 17 1 17 18
M  V30 18 2 18 19
M  V30 19 1 19 20
M  V30 20 2 20 21
M  V30 21 1 21 22
M  V30 22 1 22 23
M  V30 23 1 23 24
M  V30 24 1 24 25
M  V30 25 2 25 26
M  V30 26 1 26 27
M  V30 27 2 27 28
M  V30 28 1 28 29
M  V30 29 2 29 30
M  V30 30 2 24 31
M  V30 31 1 31 32
M  V30 32 1 17 33
M  V30 33 2 6 34
M  V30 34 1 34 2
M  V30 35 1 33 7
M  V30 36 1 16 10
M  V30 37 1 32 18
M  V30 38 2 32 22
M  V30 39 1 30 25
M  V30 40 1 1 35
M  V30 41 1 3 36
M  V30 42 1 4 37
M  V30 43 1 5 38
M  V30 44 1 11 39
M  V30 45 1 12 40
M  V30 46 1 15 41
M  V30 47 1 16 42
M  V30 48 1 19 43
M  V30 49 1 20 44
M  V30 50 1 23 45
M  V30 51 1 26 46
M  V30 52 1 27 47
M  V30 53 1 28 48
M  V30 54 1 29 49
M  V30 55 1 30 50
M  V30 56 1 31 51
M  V30 57 1 33 52
M  V30 58 1 34 53
M  V30 END BOND
M  V30 END CTAB
M  END
>  <Dataset>  (432) 
ChEMBL_Kinases

>  <Ligand_Instance>  (432) 
nan

>  <PDB_ID>  (432) 
nan

>  <Standardized_SMILES>  (432) 
Oc1cccc(-c2nc(-c3ccc(F)cc3)c(-c3ccnc4[nH]c(-c5ccccc5)cc34)[nH]2)c1

>  <Name>  (432) 
nan

>  <Pocket>  (432) 
nan

>  <ATP_Site>  (432) 
nan

>  <Peripheral>  (432) 
nan

>  <Num_H_Atoms_ProtBoundConf>  (432) 
nan

>  <Num_Resolved_Atoms>  (432) 
nan

>  <Num_Not_Resolved_Atoms>  (432) 
nan

$$$$
CHEMBL4097465
     RDKit          3D

  0  0  0  0  0  0  0  0  0  0999 V3000
M  V30 BEGIN CTAB
M  V30 COUNTS 36 38 0 0 0
M  V30 BEGIN ATOM
M  V30 1 O 0.216178 -2.299471 -0.236391 0
M  V30 2 C 1.279374 -2.694393 0.411698 0
M  V30 3 N 1.934933 -3.702106 -0.271577 0
M  V30 4 C 1.482321 -4.188279 -1.515120 0
M  V30 5 N 0.725631 -4.997764 -2.241419 0
M  V30 6 C 0.935615 -4.780889 -3.552505 0
M  V30 7 C 1.874948 -3.782542 -3.619164 0
M  V30 8 O 2.184212 -3.445527 -2.381427 0
M  V30 9 C 0.729731 -1.682958 1.215975 0
M  V30 10 C 1.972288 -2.008217 2.011605 0
M  V30 11 C 2.458762 -1.435508 3.258014 0
M  V30 12 Br 3.941051 -1.596174 4.492286 0
M  V30 13 C 1.681512 -0.421254 3.842834 0
M  V30 14 C 0.537661 -0.084417 3.160259 0
M  V30 15 C 0.226007 -0.722247 1.999241 0
M  V30 16 O -0.810365 -0.645943 1.069741 0
M  V30 17 C -1.918773 0.158387 1.017411 0
M  V30 18 C -1.710597 1.599090 0.925145 0
M  V30 19 C -1.655482 2.631958 1.818571 0
M  V30 20 C -1.420063 3.936060 1.517435 0
M  V30 21 C -1.213940 4.275017 0.197215 0
M  V30 22 C -1.248602 3.297474 -0.793348 0
M  V30 23 C -1.496629 1.977238 -0.418280 0
M  V30 24 H 2.658714 -3.794731 0.449500 0
M  V30 25 H 0.344614 -5.406326 -4.207389 0
M  V30 26 H 2.162354 -3.488228 -4.646329 0
M  V30 27 H 2.915525 -2.663011 2.067583 0
M  V30 28 H 1.653983 0.234703 4.693011 0
M  V30 29 H -0.256986 0.619935 3.320791 0
M  V30 30 H -2.511227 -0.047385 1.971515 0
M  V30 31 H -2.627646 -0.156806 0.218581 0
M  V30 32 H -1.824389 2.301065 2.831875 0
M  V30 33 H -1.400670 4.661588 2.300709 0
M  V30 34 H -1.032933 5.329368 0.021401 0
M  V30 35 H -1.076066 3.581682 -1.836492 0
M  V30 36 H -1.497378 1.313739 -1.297973 0
M  V30 END ATOM
M  V30 BEGIN BOND
M  V30 1 2 1 2
M  V30 2 1 2 3
M  V30 3 1 3 4
M  V30 4 2 4 5
M  V30 5 1 5 6
M  V30 6 2 6 7
M  V30 7 1 7 8
M  V30 8 1 2 9
M  V30 9 2 9 10
M  V30 10 1 10 11
M  V30 11 1 11 12
M  V30 12 2 11 13
M  V30 13 1 13 14
M  V30 14 2 14 15
M  V30 15 1 15 16
M  V30 16 1 16 17
M  V30 17 1 17 18
M  V30 18 2 18 19
M  V30 19 1 19 20
M  V30 20 2 20 21
M  V30 21 1 21 22
M  V30 22 2 22 23
M  V30 23 1 8 4
M  V30 24 1 15 9
M  V30 25 1 23 18
M  V30 26 1 3 24
M  V30 27 1 6 25
M  V30 28 1 7 26
M  V30 29 1 10 27
M  V30 30 1 13 28
M  V30 31 1 14 29
M  V30 32 1 17 30
M  V30 33 1 17 31
M  V30 34 1 19 32
M  V30 35 1 20 33
M  V30 36 1 21 34
M  V30 37 1 22 35
M  V30 38 1 23 36
M  V30 END BOND
M  V30 END CTAB
M  END
>  <Dataset>  (433) 
ChEMBL_Kinases

>  <Ligand_Instance>  (433) 
nan

>  <PDB_ID>  (433) 
nan

>  <Standardized_SMILES>  (433) 
O=C(Nc1ncco1)c1cc(Br)ccc1OCc1ccccc1

>  <Name>  (433) 
nan

>  <Pocket>  (433) 
nan

>  <ATP_Site>  (433) 
nan

>  <Peripheral>  (433) 
nan

>  <Num_H_Atoms_ProtBoundConf>  (433) 
nan

>  <Num_Resolved_Atoms>  (433) 
nan

>  <Num_Not_Resolved_Atoms>  (433) 
nan

$$$$
CHEMBL4097431
     RDKit          3D

  0  0  0  0  0  0  0  0  0  0999 V3000
M  V30 BEGIN CTAB
M  V30 COUNTS 50 53 0 0 0
M  V30 BEGIN ATOM
M  V30 1 C 0.162787 -3.058958 3.792522 0
M  V30 2 O 1.373126 -2.298905 3.838005 0
M  V30 3 C 2.009658 -1.935943 2.648018 0
M  V30 4 C 3.188735 -1.198564 2.661630 0
M  V30 5 C 3.825560 -0.834929 1.513752 0
M  V30 6 C 3.245272 -1.232659 0.324476 0
M  V30 7 C 2.079876 -1.964941 0.195299 0
M  V30 8 C 1.534143 -2.368510 -1.112500 0
M  V30 9 C 0.561394 -1.351388 -1.635250 0
M  V30 10 N -0.684132 -1.475073 -0.939147 0
M  V30 11 C -1.214920 -0.215934 -0.561302 0
M  V30 12 N -0.551122 0.514232 0.383399 0
M  V30 13 C -1.022861 1.712875 0.769960 0
M  V30 14 C -0.275171 2.467737 1.761843 0
M  V30 15 C -0.585324 3.692939 2.282393 0
M  V30 16 C 0.072454 4.456859 3.211054 0
M  V30 17 N 1.221176 3.889689 3.684745 0
M  V30 18 C 1.574660 2.688239 3.209342 0
M  V30 19 N 0.887063 1.965637 2.284059 0
M  V30 20 C -2.173300 2.253202 0.245731 0
M  V30 21 C -2.770486 1.445173 -0.696669 0
M  V30 22 O -3.849612 1.853214 -1.247820 0
M  V30 23 N -2.358328 0.238417 -1.133320 0
M  V30 24 C -3.086102 -0.506165 -2.138707 0
M  V30 25 C -1.263522 -2.784040 -0.711745 0
M  V30 26 C -0.378042 -3.824967 -1.343563 0
M  V30 27 N 1.011895 -3.696367 -1.037825 0
M  V30 28 C 1.511630 -2.284089 1.399520 0
M  V30 29 H -0.208865 -3.116680 4.834460 0
M  V30 30 H -0.598919 -2.574764 3.159137 0
M  V30 31 H 0.395711 -4.103453 3.440477 0
M  V30 32 H 3.601288 -0.913032 3.632585 0
M  V30 33 H 4.727921 -0.270039 1.550581 0
M  V30 34 H 3.782474 -0.923587 -0.576298 0
M  V30 35 H 2.418523 -2.312984 -1.820894 0
M  V30 36 H 0.346559 -1.588782 -2.710960 0
M  V30 37 H 1.037273 -0.352904 -1.587732 0
M  V30 38 H -1.502975 4.161373 1.910728 0
M  V30 39 H -0.276961 5.412750 3.541068 0
M  V30 40 H 2.494085 2.182517 3.557130 0
M  V30 41 H -2.600009 3.204177 0.513943 0
M  V30 42 H -2.412831 -1.005178 -2.866693 0
M  V30 43 H -3.878008 -1.138157 -1.721754 0
M  V30 44 H -3.629854 0.257012 -2.772054 0
M  V30 45 H -1.498174 -3.001085 0.341348 0
M  V30 46 H -2.220796 -2.817256 -1.312133 0
M  V30 47 H -0.723171 -4.813029 -0.918954 0
M  V30 48 H -0.557194 -3.914356 -2.443720 0
M  V30 49 H 1.553445 -4.307916 -1.685661 0
M  V30 50 H 0.605490 -2.852848 1.456763 0
M  V30 END ATOM
M  V30 BEGIN BOND
M  V30 1 1 1 2
M  V30 2 1 2 3
M  V30 3 2 3 4
M  V30 4 1 4 5
M  V30 5 2 5 6
M  V30 6 1 6 7
M  V30 7 1 7 8
M  V30 8 1 8 9
M  V30 9 1 9 10
M  V30 10 1 10 11
M  V30 11 2 11 12
M  V30 12 1 12 13
M  V30 13 1 13 14
M  V30 14 2 14 15
M  V30 15 1 15 16
M  V30 16 2 16 17
M  V30 17 1 17 18
M  V30 18 2 18 19
M  V30 19 2 13 20
M  V30 20 1 20 21
M  V30 21 2 21 22
M  V30 22 1 21 23
M  V30 23 1 23 24
M  V30 24 1 10 25
M  V30 25 1 25 26
M  V30 26 1 26 27
M  V30 27 2 7 28
M  V30 28 1 28 3
M  V30 29 1 27 8
M  V30 30 1 23 11
M  V30 31 1 19 14
M  V30 32 1 1 29
M  V30 33 1 1 30
M  V30 34 1 1 31
M  V30 35 1 4 32
M  V30 36 1 5 33
M  V30 37 1 6 34
M  V30 38 1 8 35
M  V30 39 1 9 36
M  V30 40 1 9 37
M  V30 41 1 15 38
M  V30 42 1 16 39
M  V30 43 1 18 40
M  V30 44 1 20 41
M  V30 45 1 24 42
M  V30 46 1 24 43
M  V30 47 1 24 44
M  V30 48 1 25 45
M  V30 49 1 25 46
M  V30 50 1 26 47
M  V30 51 1 26 48
M  V30 52 1 27 49
M  V30 53 1 28 50
M  V30 END BOND
M  V30 END CTAB
M  END
>  <Dataset>  (434) 
ChEMBL_Kinases

>  <Ligand_Instance>  (434) 
nan

>  <PDB_ID>  (434) 
nan

>  <Standardized_SMILES>  (434) 
COc1cccc(C2CN(c3nc(-c4ccncn4)cc(=O)n3C)CCN2)c1

>  <Name>  (434) 
nan

>  <Pocket>  (434) 
nan

>  <ATP_Site>  (434) 
nan

>  <Peripheral>  (434) 
nan

>  <Num_H_Atoms_ProtBoundConf>  (434) 
nan

>  <Num_Resolved_Atoms>  (434) 
nan

>  <Num_Not_Resolved_Atoms>  (434) 
nan

$$$$
CHEMBL4097424
     RDKit          3D

  0  0  0  0  0  0  0  0  0  0999 V3000
M  V30 BEGIN CTAB
M  V30 COUNTS 48 51 0 0 0
M  V30 BEGIN ATOM
M  V30 1 C -1.751350 -3.837463 0.684849 0
M  V30 2 N -0.851374 -2.697711 0.743701 0
M  V30 3 C -0.281937 -2.214154 -0.494286 0
M  V30 4 N -0.190169 -3.100342 -1.465945 0
M  V30 5 C 0.313606 -2.985393 -2.676348 0
M  V30 6 C 0.823605 -1.743556 -2.970383 0
M  V30 7 C 1.426810 -1.393671 -4.241758 0
M  V30 8 N 1.928496 -0.089986 -4.462742 0
M  V30 9 O 1.450244 -2.329250 -5.075107 0
M  V30 10 C 0.740815 -0.783760 -1.964022 0
M  V30 11 S 1.288200 0.967973 -1.976285 0
M  V30 12 C 0.753171 1.313604 -0.323999 0
M  V30 13 C 0.909923 2.627411 0.319473 0
M  V30 14 C 0.466257 2.821346 1.615833 0
M  V30 15 C 0.608616 4.055910 2.233314 0
M  V30 16 C 1.198924 5.096200 1.543142 0
M  V30 17 C 1.627703 4.856140 0.248339 0
M  V30 18 C 1.501517 3.646596 -0.390826 0
M  V30 19 C 0.230028 0.161544 0.104849 0
M  V30 20 C 0.199989 -0.941928 -0.694471 0
M  V30 21 C -0.723549 -2.326893 2.131913 0 CFG=1
M  V30 22 C -2.035090 -1.764037 2.675905 0
M  V30 23 C -1.607069 -0.960327 3.914422 0
M  V30 24 C -0.546169 -1.796413 4.597818 0
M  V30 25 N -0.729085 -3.206923 4.350194 0
M  V30 26 C -0.416370 -3.582365 2.986473 0
M  V30 27 H -2.203357 -3.837984 -0.355472 0
M  V30 28 H -1.215952 -4.813789 0.738760 0
M  V30 29 H -2.616835 -3.770951 1.352725 0
M  V30 30 H 0.358907 -3.753864 -3.429653 0
M  V30 31 H 1.542687 0.672204 -5.060720 0
M  V30 32 H 2.791383 0.368920 -4.066795 0
M  V30 33 H 0.000159 1.978374 2.143592 0
M  V30 34 H 0.237906 4.132103 3.248115 0
M  V30 35 H 1.306342 6.050305 2.027027 0
M  V30 36 H 2.094958 5.692965 -0.287294 0
M  V30 37 H 1.861665 3.519840 -1.418648 0
M  V30 38 H -0.161631 0.206089 1.107122 0
M  V30 39 H 0.128864 -1.663909 2.361038 0
M  V30 40 H -2.532667 -1.116973 1.953346 0
M  V30 41 H -2.697540 -2.600818 2.987889 0
M  V30 42 H -1.150093 -0.030063 3.518684 0
M  V30 43 H -2.486368 -0.767761 4.545081 0
M  V30 44 H 0.480255 -1.520634 4.356518 0
M  V30 45 H -0.728380 -1.671615 5.707059 0
M  V30 46 H -0.178280 -3.771200 5.003773 0
M  V30 47 H 0.647843 -3.847821 2.937469 0
M  V30 48 H -1.071587 -4.413183 2.711058 0
M  V30 END ATOM
M  V30 BEGIN BOND
M  V30 1 1 1 2
M  V30 2 1 2 3
M  V30 3 2 3 4
M  V30 4 1 4 5
M  V30 5 2 5 6
M  V30 6 1 6 7
M  V30 7 1 7 8
M  V30 8 2 7 9
M  V30 9 1 6 10
M  V30 10 1 10 11
M  V30 11 1 11 12
M  V30 12 1 12 13
M  V30 13 2 13 14
M  V30 14 1 14 15
M  V30 15 2 15 16
M  V30 16 1 16 17
M  V30 17 2 17 18
M  V30 18 2 12 19
M  V30 19 1 19 20
M  V30 20 1 2 21
M  V30 21 1 21 22
M  V30 22 1 22 23
M  V30 23 1 23 24
M  V30 24 1 24 25
M  V30 25 1 25 26
M  V30 26 1 20 3
M  V30 27 1 26 21
M  V30 28 2 20 10
M  V30 29 1 18 13
M  V30 30 1 1 27
M  V30 31 1 1 28
M  V30 32 1 1 29
M  V30 33 1 5 30
M  V30 34 1 8 31
M  V30 35 1 8 32
M  V30 36 1 14 33
M  V30 37 1 15 34
M  V30 38 1 16 35
M  V30 39 1 17 36
M  V30 40 1 18 37
M  V30 41 1 19 38
M  V30 42 1 21 39 CFG=3
M  V30 43 1 22 40
M  V30 44 1 22 41
M  V30 45 1 23 42
M  V30 46 1 23 43
M  V30 47 1 24 44
M  V30 48 1 24 45
M  V30 49 1 25 46
M  V30 50 1 26 47
M  V30 51 1 26 48
M  V30 END BOND
M  V30 END CTAB
M  END
>  <Dataset>  (435) 
ChEMBL_Kinases

>  <Ligand_Instance>  (435) 
nan

>  <PDB_ID>  (435) 
nan

>  <Standardized_SMILES>  (435) 
CN(c1ncc(C(N)=O)c2sc(-c3ccccc3)cc12)[C@H]1CCCNC1

>  <Name>  (435) 
nan

>  <Pocket>  (435) 
nan

>  <ATP_Site>  (435) 
nan

>  <Peripheral>  (435) 
nan

>  <Num_H_Atoms_ProtBoundConf>  (435) 
nan

>  <Num_Resolved_Atoms>  (435) 
nan

>  <Num_Not_Resolved_Atoms>  (435) 
nan

$$$$
CHEMBL4800629
     RDKit          3D

  0  0  0  0  0  0  0  0  0  0999 V3000
M  V30 BEGIN CTAB
M  V30 COUNTS 56 59 0 0 0
M  V30 BEGIN ATOM
M  V30 1 C 0.238614 -4.151642 3.363265 0
M  V30 2 C 0.778497 -4.934341 2.209944 0
M  V30 3 O 2.035846 -4.564389 1.786160 0
M  V30 4 C 2.087874 -3.221868 1.363551 0 CFG=1
M  V30 5 C 3.000378 -2.512206 2.332223 0
M  V30 6 C 2.894865 -1.038211 1.969675 0
M  V30 7 C 3.466331 -0.780562 0.606130 0 CFG=2
M  V30 8 N 3.096472 0.546430 0.123402 0
M  V30 9 C 1.801782 1.047425 -0.223348 0
M  V30 10 C 0.656836 0.280414 -0.177455 0
M  V30 11 C -0.594835 0.761187 -0.500977 0
M  V30 12 C -0.710717 2.078894 -0.891566 0
M  V30 13 C 0.467335 2.791765 -0.917456 0
M  V30 14 N 1.673300 2.326612 -0.605260 0
M  V30 15 N -1.881494 2.793695 -1.267304 0
M  V30 16 C -1.602773 4.046484 -1.926899 0
M  V30 17 C -3.234060 2.403421 -1.060775 0
M  V30 18 O -4.102524 3.211541 -1.474342 0
M  V30 19 C -3.695201 1.179179 -0.427407 0
M  V30 20 C -5.033909 1.235276 -0.102915 0
M  V30 21 C -5.613610 0.159542 0.500454 0
M  V30 22 C -4.918668 -0.992809 0.804697 0
M  V30 23 C -3.566046 -1.094283 0.495716 0
M  V30 24 C -3.019199 0.018699 -0.114919 0
M  V30 25 N -1.619984 -0.225492 -0.377856 0
M  V30 26 C -1.199227 -1.587736 -0.534861 0
M  V30 27 C 3.259038 -1.837140 -0.409632 0
M  V30 28 C 2.660643 -3.120135 -0.004288 0
M  V30 29 H 0.992765 -4.128208 4.190153 0
M  V30 30 H -0.627942 -4.727126 3.771454 0
M  V30 31 H -0.129119 -3.151407 3.082502 0
M  V30 32 H 0.846290 -5.990512 2.530545 0
M  V30 33 H 0.030943 -4.892993 1.372123 0
M  V30 34 H 1.078810 -2.789434 1.480817 0
M  V30 35 H 2.670825 -2.609529 3.392216 0
M  V30 36 H 4.049948 -2.824727 2.208939 0
M  V30 37 H 3.514571 -0.519997 2.766592 0
M  V30 38 H 1.884411 -0.652619 2.122271 0
M  V30 39 H 4.586269 -0.743433 0.778584 0
M  V30 40 H 3.892010 1.249521 0.007944 0
M  V30 41 H 0.684216 -0.757475 0.115685 0
M  V30 42 H 0.401404 3.826819 -1.220783 0
M  V30 43 H -0.906822 3.970451 -2.778659 0
M  V30 44 H -1.355066 4.863526 -1.203872 0
M  V30 45 H -2.557083 4.412999 -2.394613 0
M  V30 46 H -5.550471 2.151312 -0.354045 0
M  V30 47 H -6.670336 0.189967 0.762344 0
M  V30 48 H -5.374884 -1.852302 1.284984 0
M  V30 49 H -2.929437 -1.968149 0.699511 0
M  V30 50 H -0.398693 -1.614111 -1.336350 0
M  V30 51 H -0.925254 -2.124289 0.368690 0
M  V30 52 H -2.037221 -2.109268 -1.096261 0
M  V30 53 H 4.201835 -2.022299 -1.001791 0
M  V30 54 H 2.572139 -1.391848 -1.195866 0
M  V30 55 H 1.887923 -3.504635 -0.711873 0
M  V30 56 H 3.465910 -3.915848 -0.056351 0
M  V30 END ATOM
M  V30 BEGIN BOND
M  V30 1 1 1 2
M  V30 2 1 2 3
M  V30 3 1 3 4
M  V30 4 1 4 5
M  V30 5 1 5 6
M  V30 6 1 6 7
M  V30 7 1 7 8
M  V30 8 1 8 9
M  V30 9 2 9 10
M  V30 10 1 10 11
M  V30 11 2 11 12
M  V30 12 1 12 13
M  V30 13 2 13 14
M  V30 14 1 12 15
M  V30 15 1 15 16
M  V30 16 1 15 17
M  V30 17 2 17 18
M  V30 18 1 17 19
M  V30 19 2 19 20
M  V30 20 1 20 21
M  V30 21 2 21 22
M  V30 22 1 22 23
M  V30 23 2 23 24
M  V30 24 1 24 25
M  V30 25 1 25 26
M  V30 26 1 7 27
M  V30 27 1 27 28
M  V30 28 1 28 4
M  V30 29 1 14 9
M  V30 30 1 24 19
M  V30 31 1 25 11
M  V30 32 1 1 29
M  V30 33 1 1 30
M  V30 34 1 1 31
M  V30 35 1 2 32
M  V30 36 1 2 33
M  V30 37 1 4 34 CFG=3
M  V30 38 1 5 35
M  V30 39 1 5 36
M  V30 40 1 6 37
M  V30 41 1 6 38
M  V30 42 1 7 39 CFG=1
M  V30 43 1 8 40
M  V30 44 1 10 41
M  V30 45 1 13 42
M  V30 46 1 16 43
M  V30 47 1 16 44
M  V30 48 1 16 45
M  V30 49 1 20 46
M  V30 50 1 21 47
M  V30 51 1 22 48
M  V30 52 1 23 49
M  V30 53 1 26 50
M  V30 54 1 26 51
M  V30 55 1 26 52
M  V30 56 1 27 53
M  V30 57 1 27 54
M  V30 58 1 28 55
M  V30 59 1 28 56
M  V30 END BOND
M  V30 END CTAB
M  END
>  <Dataset>  (436) 
ChEMBL_Kinases

>  <Ligand_Instance>  (436) 
nan

>  <PDB_ID>  (436) 
nan

>  <Standardized_SMILES>  (436) 
CCO[C@H]1CC[C@H](Nc2cc3c(cn2)N(C)C(=O)c2ccccc2N3C)CC1

>  <Name>  (436) 
nan

>  <Pocket>  (436) 
nan

>  <ATP_Site>  (436) 
nan

>  <Peripheral>  (436) 
nan

>  <Num_H_Atoms_ProtBoundConf>  (436) 
nan

>  <Num_Resolved_Atoms>  (436) 
nan

>  <Num_Not_Resolved_Atoms>  (436) 
nan

$$$$
CHEMBL4800639
     RDKit          3D

  0  0  0  0  0  0  0  0  0  0999 V3000
M  V30 BEGIN CTAB
M  V30 COUNTS 34 36 0 0 0
M  V30 BEGIN ATOM
M  V30 1 N 2.706904 -3.843346 4.943715 0
M  V30 2 C 2.029653 -3.833548 3.689882 0
M  V30 3 C 1.782903 -4.987702 3.020162 0
M  V30 4 C 1.125686 -4.939811 1.810456 0
M  V30 5 C 0.728991 -3.727629 1.297863 0
M  V30 6 C 0.944377 -2.518051 1.919618 0
M  V30 7 C 0.503796 -1.263434 1.333425 0
M  V30 8 O 0.820251 -0.330152 2.091778 0
M  V30 9 C -0.180980 -1.306299 0.055885 0
M  V30 10 C -0.646464 -0.305174 -0.623082 0
M  V30 11 N -0.493900 1.003170 -0.099620 0
M  V30 12 C -0.945395 2.199475 -0.716749 0
M  V30 13 C -0.772011 3.451859 -0.164962 0
M  V30 14 C -1.244498 4.564147 -0.836445 0
M  V30 15 C -1.890771 4.467619 -2.052451 0
M  V30 16 C -2.067188 3.216807 -2.609574 0
M  V30 17 C -1.600586 2.097075 -1.950370 0
M  V30 18 N -1.797349 0.820702 -2.549905 0
M  V30 19 C -1.329549 -0.370213 -1.901557 0
M  V30 20 O -1.494812 -1.515881 -2.418647 0
M  V30 21 C 1.605837 -2.670702 3.117931 0
M  V30 22 H 3.679002 -4.162997 5.194458 0
M  V30 23 H 2.216613 -3.487505 5.803743 0
M  V30 24 H 2.115544 -5.915550 3.466275 0
M  V30 25 H 0.970051 -5.909619 1.343575 0
M  V30 26 H 0.232857 -3.869438 0.351930 0
M  V30 27 H -0.375045 -2.222055 -0.472336 0
M  V30 28 H -0.022753 1.172829 0.805138 0
M  V30 29 H -0.267157 3.541175 0.787513 0
M  V30 30 H -1.064344 5.514183 -0.327707 0
M  V30 31 H -2.221162 5.400750 -2.493408 0
M  V30 32 H -2.580353 3.175388 -3.568660 0
M  V30 33 H -2.291853 0.763079 -3.477359 0
M  V30 34 H 1.822099 -1.752636 3.687727 0
M  V30 END ATOM
M  V30 BEGIN BOND
M  V30 1 1 1 2
M  V30 2 2 2 3
M  V30 3 1 3 4
M  V30 4 2 4 5
M  V30 5 1 5 6
M  V30 6 1 6 7
M  V30 7 2 7 8
M  V30 8 1 7 9
M  V30 9 2 9 10
M  V30 10 1 10 11
M  V30 11 1 11 12
M  V30 12 2 12 13
M  V30 13 1 13 14
M  V30 14 2 14 15
M  V30 15 1 15 16
M  V30 16 2 16 17
M  V30 17 1 17 18
M  V30 18 1 18 19
M  V30 19 2 19 20
M  V30 20 2 6 21
M  V30 21 1 21 2
M  V30 22 1 19 10
M  V30 23 1 17 12
M  V30 24 1 1 22
M  V30 25 1 1 23
M  V30 26 1 3 24
M  V30 27 1 4 25
M  V30 28 1 5 26
M  V30 29 1 9 27
M  V30 30 1 11 28
M  V30 31 1 13 29
M  V30 32 1 14 30
M  V30 33 1 15 31
M  V30 34 1 16 32
M  V30 35 1 18 33
M  V30 36 1 21 34
M  V30 END BOND
M  V30 END CTAB
M  END
>  <Dataset>  (437) 
ChEMBL_Kinases

>  <Ligand_Instance>  (437) 
nan

>  <PDB_ID>  (437) 
nan

>  <Standardized_SMILES>  (437) 
Nc1cccc(C(=O)/C=C2\Nc3ccccc3NC2=O)c1

>  <Name>  (437) 
nan

>  <Pocket>  (437) 
nan

>  <ATP_Site>  (437) 
nan

>  <Peripheral>  (437) 
nan

>  <Num_H_Atoms_ProtBoundConf>  (437) 
nan

>  <Num_Resolved_Atoms>  (437) 
nan

>  <Num_Not_Resolved_Atoms>  (437) 
nan

$$$$
CHEMBL480187
     RDKit          3D

  0  0  0  0  0  0  0  0  0  0999 V3000
M  V30 BEGIN CTAB
M  V30 COUNTS 33 36 0 0 0
M  V30 BEGIN ATOM
M  V30 1 N 4.180405 -4.960682 0.857383 0
M  V30 2 C 3.207127 -4.313377 0.976975 0
M  V30 3 C 2.031810 -3.504012 1.113016 0
M  V30 4 C 0.934207 -4.189515 1.652482 0
M  V30 5 S -0.485529 -2.942554 1.739319 0
M  V30 6 C 0.541370 -1.657362 1.048588 0
M  V30 7 C 0.626648 -0.329998 0.672169 0
M  V30 8 C 1.928267 -0.068204 0.215764 0
M  V30 9 N 2.598403 -1.233108 0.318650 0
M  V30 10 C 1.788413 -2.190834 0.813027 0
M  V30 11 C 2.339709 1.290161 -0.213029 0
M  V30 12 O 3.312800 1.194322 -0.970957 0
M  V30 13 N 1.655288 2.506843 0.232192 0
M  V30 14 C 0.754800 2.622177 1.350765 0
M  V30 15 C -0.537326 1.932616 1.322098 0
M  V30 16 C -0.558907 0.546222 0.797037 0
M  V30 17 C -1.645490 -0.037396 0.291257 0
M  V30 18 N -1.824050 -1.289268 -0.330174 0
M  V30 19 C -3.217065 -1.414941 -0.548430 0
M  V30 20 N -3.972071 -2.485299 -1.144928 0
M  V30 21 N -3.868873 -0.369732 -0.123794 0
M  V30 22 C -2.951380 0.587822 0.438812 0
M  V30 23 O -3.296438 1.683472 0.922283 0
M  V30 24 H 0.711162 -5.187970 2.006162 0
M  V30 25 H 3.585842 -1.190473 0.010209 0
M  V30 26 H 1.977830 3.277858 -0.444835 0
M  V30 27 H 1.325563 2.266779 2.258026 0
M  V30 28 H 0.576093 3.696275 1.514813 0
M  V30 29 H -1.230175 2.574908 0.692384 0
M  V30 30 H -0.910817 1.896242 2.365120 0
M  V30 31 H -1.123069 -1.978430 -0.637695 0
M  V30 32 H -3.934337 -3.460674 -0.792228 0
M  V30 33 H -4.579228 -2.253941 -1.967354 0
M  V30 END ATOM
M  V30 BEGIN BOND
M  V30 1 3 1 2
M  V30 2 1 2 3
M  V30 3 2 3 4
M  V30 4 1 4 5
M  V30 5 1 5 6
M  V30 6 1 6 7
M  V30 7 2 7 8
M  V30 8 1 8 9
M  V30 9 1 9 10
M  V30 10 1 8 11
M  V30 11 2 11 12
M  V30 12 1 11 13
M  V30 13 1 13 14
M  V30 14 1 14 15
M  V30 15 1 15 16
M  V30 16 2 16 17
M  V30 17 1 17 18
M  V30 18 1 18 19
M  V30 19 1 19 20
M  V30 20 2 19 21
M  V30 21 1 21 22
M  V30 22 2 22 23
M  V30 23 1 10 3
M  V30 24 1 22 17
M  V30 25 2 10 6
M  V30 26 1 16 7
M  V30 27 1 4 24
M  V30 28 1 9 25
M  V30 29 1 13 26
M  V30 30 1 14 27
M  V30 31 1 14 28
M  V30 32 1 15 29
M  V30 33 1 15 30
M  V30 34 1 18 31
M  V30 35 1 20 32
M  V30 36 1 20 33
M  V30 END BOND
M  V30 END CTAB
M  END
>  <Dataset>  (438) 
ChEMBL_Kinases

>  <Ligand_Instance>  (438) 
nan

>  <PDB_ID>  (438) 
nan

>  <Standardized_SMILES>  (438) 
N#Cc1csc2c3c([nH]c12)C(=O)NCC/C3=C1/NC(N)=NC1=O

>  <Name>  (438) 
nan

>  <Pocket>  (438) 
nan

>  <ATP_Site>  (438) 
nan

>  <Peripheral>  (438) 
nan

>  <Num_H_Atoms_ProtBoundConf>  (438) 
nan

>  <Num_Resolved_Atoms>  (438) 
nan

>  <Num_Not_Resolved_Atoms>  (438) 
nan

$$$$
CHEMBL4802108
     RDKit          3D

  0  0  0  0  0  0  0  0  0  0999 V3000
M  V30 BEGIN CTAB
M  V30 COUNTS 53 58 0 0 0
M  V30 BEGIN ATOM
M  V30 1 C 2.512309 -0.266314 4.944441 0
M  V30 2 C 1.411003 -1.205202 4.578217 0
M  V30 3 C 1.834058 -2.246927 3.568188 0
M  V30 4 N 2.286431 -1.631758 2.327862 0
M  V30 5 C 3.549094 -1.258781 2.035426 0
M  V30 6 N 3.551827 -0.733479 0.796175 0
M  V30 7 C 2.297781 -0.761700 0.278542 0
M  V30 8 C 1.861219 -0.273763 -1.079883 0
M  V30 9 C 0.418916 -0.072736 -1.043137 0
M  V30 10 C -0.303654 -0.916638 -1.750392 0
M  V30 11 C -1.730505 -0.854519 -1.821298 0
M  V30 12 C -2.445304 0.060070 -1.202168 0
M  V30 13 C -2.231692 1.229466 -0.327961 0
M  V30 14 N -1.577552 2.413682 -0.368710 0
M  V30 15 O -1.707488 3.059613 0.731266 0
M  V30 16 C -2.419476 2.457411 1.626262 0
M  V30 17 C -2.836667 2.718527 2.912111 0
M  V30 18 C -3.626318 1.776925 3.565405 0
M  V30 19 C -3.995160 0.597917 2.953699 0
M  V30 20 C -3.551854 0.382125 1.663955 0
M  V30 21 C -2.761399 1.295688 0.974129 0
M  V30 22 C -3.893370 -0.143098 -1.475327 0
M  V30 23 O -4.923271 0.515090 -1.073830 0
M  V30 24 N -4.052594 -1.279516 -2.332312 0
M  V30 25 C -2.699300 -1.672191 -2.509584 0
M  V30 26 O -2.588384 -2.676129 -3.244728 0
M  V30 27 C 0.704483 -1.760118 -2.322965 0
M  V30 28 C 0.646443 -2.836893 -3.162790 0
M  V30 29 C 1.722776 -3.537702 -3.623487 0
M  V30 30 C 2.986253 -3.156504 -3.230454 0
M  V30 31 C 3.144338 -2.082984 -2.385578 0
M  V30 32 C 2.001088 -1.454804 -1.986342 0
M  V30 33 C 1.504074 -1.330683 1.252398 0
M  V30 34 H 2.472960 -0.033133 6.046951 0
M  V30 35 H 3.526962 -0.608468 4.740030 0
M  V30 36 H 2.271596 0.716171 4.450337 0
M  V30 37 H 0.497618 -0.691967 4.218867 0
M  V30 38 H 1.101720 -1.768896 5.489446 0
M  V30 39 H 0.959098 -2.902645 3.373557 0
M  V30 40 H 2.624019 -2.901772 3.955892 0
M  V30 41 H 4.441018 -1.341631 2.646302 0
M  V30 42 H 2.471775 0.574664 -1.433408 0
M  V30 43 H 0.297793 0.761874 -0.392986 0
M  V30 44 H -2.528366 3.654092 3.361610 0
M  V30 45 H -3.951348 1.991202 4.580990 0
M  V30 46 H -4.609391 -0.115324 3.485448 0
M  V30 47 H -3.877316 -0.567878 1.236708 0
M  V30 48 H -4.963374 -1.641032 -2.677449 0
M  V30 49 H -0.295441 -3.173759 -3.498936 0
M  V30 50 H 1.622070 -4.397138 -4.297651 0
M  V30 51 H 3.875255 -3.672987 -3.562809 0
M  V30 52 H 4.119130 -1.758384 -2.058903 0
M  V30 53 H 0.442179 -1.491045 1.136479 0
M  V30 END ATOM
M  V30 BEGIN BOND
M  V30 1 1 1 2
M  V30 2 1 2 3
M  V30 3 1 3 4
M  V30 4 1 4 5
M  V30 5 2 5 6
M  V30 6 1 6 7
M  V30 7 1 7 8
M  V30 8 1 8 9
M  V30 9 2 9 10
M  V30 10 1 10 11
M  V30 11 2 11 12
M  V30 12 1 12 13
M  V30 13 2 13 14
M  V30 14 1 14 15
M  V30 15 1 15 16
M  V30 16 2 16 17
M  V30 17 1 17 18
M  V30 18 2 18 19
M  V30 19 1 19 20
M  V30 20 2 20 21
M  V30 21 1 12 22
M  V30 22 2 22 23
M  V30 23 1 22 24
M  V30 24 1 24 25
M  V30 25 2 25 26
M  V30 26 1 10 27
M  V30 27 2 27 28
M  V30 28 1 28 29
M  V30 29 2 29 30
M  V30 30 1 30 31
M  V30 31 2 31 32
M  V30 32 2 7 33
M  V30 33 1 33 4
M  V30 34 1 32 8
M  V30 35 1 25 11
M  V30 36 1 32 27
M  V30 37 1 21 13
M  V30 38 1 21 16
M  V30 39 1 1 34
M  V30 40 1 1 35
M  V30 41 1 1 36
M  V30 42 1 2 37
M  V30 43 1 2 38
M  V30 44 1 3 39
M  V30 45 1 3 40
M  V30 46 1 5 41
M  V30 47 1 8 42
M  V30 48 1 9 43
M  V30 49 1 17 44
M  V30 50 1 18 45
M  V30 51 1 19 46
M  V30 52 1 20 47
M  V30 53 1 24 48
M  V30 54 1 28 49
M  V30 55 1 29 50
M  V30 56 1 30 51
M  V30 57 1 31 52
M  V30 58 1 33 53
M  V30 END BOND
M  V30 END CTAB
M  END
>  <Dataset>  (439) 
ChEMBL_Kinases

>  <Ligand_Instance>  (439) 
nan

>  <PDB_ID>  (439) 
nan

>  <Standardized_SMILES>  (439) 
CCCn1cnc(C2C=C(C3=C(c4noc5ccccc45)C(=O)NC3=O)c3ccccc32)c1

>  <Name>  (439) 
nan

>  <Pocket>  (439) 
nan

>  <ATP_Site>  (439) 
nan

>  <Peripheral>  (439) 
nan

>  <Num_H_Atoms_ProtBoundConf>  (439) 
nan

>  <Num_Resolved_Atoms>  (439) 
nan

>  <Num_Not_Resolved_Atoms>  (439) 
nan

$$$$
CHEMBL480350
     RDKit          3D

  0  0  0  0  0  0  0  0  0  0999 V3000
M  V30 BEGIN CTAB
M  V30 COUNTS 29 31 0 0 0
M  V30 BEGIN ATOM
M  V30 1 N -1.293634 -1.727155 4.905547 0
M  V30 2 C -0.651646 -1.880091 3.646399 0
M  V30 3 N -0.367678 -3.071837 3.251385 0
M  V30 4 C 0.257323 -3.077019 2.005267 0
M  V30 5 O 0.675451 -4.029311 1.308102 0
M  V30 6 C 0.358523 -1.682557 1.603728 0
M  V30 7 C 0.762238 -1.161505 0.420141 0
M  V30 8 C 1.170915 -1.983586 -0.734550 0
M  V30 9 C 0.202471 -1.830825 -1.901135 0
M  V30 10 N -0.146779 -0.522753 -2.296480 0
M  V30 11 C -0.304684 0.822637 -1.772860 0
M  V30 12 O -0.937511 1.750077 -2.296801 0
M  V30 13 C 0.314033 1.212617 -0.499605 0
M  V30 14 N 0.576054 2.415144 0.007313 0
M  V30 15 C 1.196826 2.333990 1.212470 0
M  V30 16 Br 1.752039 3.804570 2.290878 0
M  V30 17 C 1.387084 0.990628 1.581241 0
M  V30 18 Br 2.301013 0.253887 3.101155 0
M  V30 19 C 0.812627 0.329296 0.476164 0
M  V30 20 N -0.230809 -0.951837 2.669468 0
M  V30 21 H -0.662659 -1.372760 5.665859 0
M  V30 22 H -2.288867 -1.921328 5.150408 0
M  V30 23 H 2.170518 -1.682948 -1.113552 0
M  V30 24 H 1.121406 -3.063210 -0.533563 0
M  V30 25 H -0.678084 -2.507930 -1.745443 0
M  V30 26 H 0.752982 -2.327283 -2.754889 0
M  V30 27 H -0.388795 -0.471725 -3.339923 0
M  V30 28 H 0.308114 3.276012 -0.513845 0
M  V30 29 H -0.445572 0.024403 2.855815 0
M  V30 END ATOM
M  V30 BEGIN BOND
M  V30 1 1 1 2
M  V30 2 2 2 3
M  V30 3 1 3 4
M  V30 4 2 4 5
M  V30 5 1 4 6
M  V30 6 2 6 7
M  V30 7 1 7 8
M  V30 8 1 8 9
M  V30 9 1 9 10
M  V30 10 1 10 11
M  V30 11 2 11 12
M  V30 12 1 11 13
M  V30 13 1 13 14
M  V30 14 1 14 15
M  V30 15 1 15 16
M  V30 16 2 15 17
M  V30 17 1 17 18
M  V30 18 1 17 19
M  V30 19 1 6 20
M  V30 20 1 20 2
M  V30 21 1 19 7
M  V30 22 2 19 13
M  V30 23 1 1 21
M  V30 24 1 1 22
M  V30 25 1 8 23
M  V30 26 1 8 24
M  V30 27 1 9 25
M  V30 28 1 9 26
M  V30 29 1 10 27
M  V30 30 1 14 28
M  V30 31 1 20 29
M  V30 END BOND
M  V30 END CTAB
M  END
>  <Dataset>  (440) 
ChEMBL_Kinases

>  <Ligand_Instance>  (440) 
nan

>  <PDB_ID>  (440) 
nan

>  <Standardized_SMILES>  (440) 
NC1=NC(=O)/C(=C2\CCNC(=O)c3[nH]c(Br)c(Br)c32)N1

>  <Name>  (440) 
nan

>  <Pocket>  (440) 
nan

>  <ATP_Site>  (440) 
nan

>  <Peripheral>  (440) 
nan

>  <Num_H_Atoms_ProtBoundConf>  (440) 
nan

>  <Num_Resolved_Atoms>  (440) 
nan

>  <Num_Not_Resolved_Atoms>  (440) 
nan

$$$$
CHEMBL4097804
     RDKit          3D

  0  0  0  0  0  0  0  0  0  0999 V3000
M  V30 BEGIN CTAB
M  V30 COUNTS 67 71 0 0 0
M  V30 BEGIN ATOM
M  V30 1 C 4.034430 -4.743586 5.427383 0
M  V30 2 O 5.071776 -4.104124 4.700098 0
M  V30 3 C 4.767221 -2.958624 3.975893 0
M  V30 4 C 3.482479 -2.455496 3.966155 0
M  V30 5 C 3.136400 -1.321672 3.261123 0
M  V30 6 C 4.098174 -0.652277 2.532436 0
M  V30 7 C 3.952661 0.554941 1.721001 0
M  V30 8 O 4.872938 1.136737 1.064025 0
M  V30 9 N 2.675749 1.146852 1.646709 0
M  V30 10 C 2.096619 2.273937 1.007648 0
M  V30 11 C 1.574377 2.065503 -0.266388 0
M  V30 12 C 0.979087 3.087779 -1.000942 0
M  V30 13 C 0.913137 4.348649 -0.428600 0
M  V30 14 C 0.256230 5.364077 -1.301746 0
M  V30 15 N -1.169700 5.404649 -1.058433 0
M  V30 16 C -1.695551 4.099511 -1.344605 0
M  V30 17 N -2.120530 3.623782 -2.336275 0
M  V30 18 C -2.588339 2.404171 -2.515422 0
M  V30 19 C -3.095471 1.830747 -3.691425 0
M  V30 20 C -3.535480 0.521166 -3.648562 0
M  V30 21 C -3.521203 -0.300936 -2.517834 0
M  V30 22 O -4.013889 -1.533466 -2.769399 0
M  V30 23 C -4.175925 -2.659909 -1.980731 0
M  V30 24 C -2.853847 -3.179281 -1.497714 0
M  V30 25 N -3.042742 -4.374803 -0.666730 0
M  V30 26 C -1.687771 -4.765664 -0.274430 0
M  V30 27 C -1.710101 -5.920741 0.675569 0
M  V30 28 O -2.950710 -6.116744 1.263709 0
M  V30 29 C -3.412021 -4.891156 1.715179 0
M  V30 30 C -3.728547 -3.976527 0.561982 0
M  V30 31 C -3.020512 0.288645 -1.384655 0
M  V30 32 C -2.576028 1.613569 -1.431829 0
M  V30 33 S -1.889998 2.614010 -0.135791 0
M  V30 34 C 1.423907 4.567436 0.825894 0
M  V30 35 C 2.005798 3.546581 1.531647 0
M  V30 36 C 5.387206 -1.162512 2.546079 0
M  V30 37 C 5.756236 -2.309939 3.254519 0
M  V30 38 H 4.324280 -5.765541 5.744909 0
M  V30 39 H 3.679684 -4.115205 6.260474 0
M  V30 40 H 3.161185 -4.888351 4.727841 0
M  V30 41 H 2.667164 -2.920150 4.511526 0
M  V30 42 H 2.157519 -0.868337 3.204789 0
M  V30 43 H 1.802469 0.816523 2.114283 0
M  V30 44 H 1.624967 1.069560 -0.721720 0
M  V30 45 H 0.592476 2.848321 -1.992507 0
M  V30 46 H 0.703907 6.356864 -1.043773 0
M  V30 47 H 0.522610 5.194243 -2.364975 0
M  V30 48 H -1.798821 6.173441 -0.737126 0
M  V30 49 H -3.141265 2.404892 -4.617470 0
M  V30 50 H -3.913915 0.170794 -4.627557 0
M  V30 51 H -4.773793 -2.457879 -1.048547 0
M  V30 52 H -4.712864 -3.423582 -2.605907 0
M  V30 53 H -2.357614 -2.449175 -0.864907 0
M  V30 54 H -2.164008 -3.414571 -2.345334 0
M  V30 55 H -1.128745 -3.893948 0.144483 0
M  V30 56 H -1.133364 -5.067080 -1.179870 0
M  V30 57 H -0.982336 -5.722773 1.512888 0
M  V30 58 H -1.358694 -6.875196 0.238574 0
M  V30 59 H -2.682194 -4.409762 2.406898 0
M  V30 60 H -4.350578 -5.049994 2.287581 0
M  V30 61 H -3.354763 -2.953669 0.822195 0
M  V30 62 H -4.817212 -3.923644 0.370647 0
M  V30 63 H -2.999454 -0.285098 -0.498771 0
M  V30 64 H 1.341329 5.571229 1.215339 0
M  V30 65 H 2.414232 3.698285 2.521322 0
M  V30 66 H 6.224303 -0.702244 1.997906 0
M  V30 67 H 6.768199 -2.683451 3.246050 0
M  V30 END ATOM
M  V30 BEGIN BOND
M  V30 1 1 1 2
M  V30 2 1 2 3
M  V30 3 2 3 4
M  V30 4 1 4 5
M  V30 5 2 5 6
M  V30 6 1 6 7
M  V30 7 2 7 8
M  V30 8 1 7 9
M  V30 9 1 9 10
M  V30 10 2 10 11
M  V30 11 1 11 12
M  V30 12 2 12 13
M  V30 13 1 13 14
M  V30 14 1 14 15
M  V30 15 1 15 16
M  V30 16 2 16 17
M  V30 17 1 17 18
M  V30 18 2 18 19
M  V30 19 1 19 20
M  V30 20 2 20 21
M  V30 21 1 21 22
M  V30 22 1 22 23
M  V30 23 1 23 24
M  V30 24 1 24 25
M  V30 25 1 25 26
M  V30 26 1 26 27
M  V30 27 1 27 28
M  V30 28 1 28 29
M  V30 29 1 29 30
M  V30 30 1 21 31
M  V30 31 2 31 32
M  V30 32 1 32 33
M  V30 33 1 13 34
M  V30 34 2 34 35
M  V30 35 1 6 36
M  V30 36 2 36 37
M  V30 37 1 37 3
M  V30 38 1 35 10
M  V30 39 1 33 16
M  V30 40 1 32 18
M  V30 41 1 30 25
M  V30 42 1 1 38
M  V30 43 1 1 39
M  V30 44 1 1 40
M  V30 45 1 4 41
M  V30 46 1 5 42
M  V30 47 1 9 43
M  V30 48 1 11 44
M  V30 49 1 12 45
M  V30 50 1 14 46
M  V30 51 1 14 47
M  V30 52 1 15 48
M  V30 53 1 19 49
M  V30 54 1 20 50
M  V30 55 1 23 51
M  V30 56 1 23 52
M  V30 57 1 24 53
M  V30 58 1 24 54
M  V30 59 1 26 55
M  V30 60 1 26 56
M  V30 61 1 27 57
M  V30 62 1 27 58
M  V30 63 1 29 59
M  V30 64 1 29 60
M  V30 65 1 30 61
M  V30 66 1 30 62
M  V30 67 1 31 63
M  V30 68 1 34 64
M  V30 69 1 35 65
M  V30 70 1 36 66
M  V30 71 1 37 67
M  V30 END BOND
M  V30 END CTAB
M  END
>  <Dataset>  (441) 
ChEMBL_Kinases

>  <Ligand_Instance>  (441) 
nan

>  <PDB_ID>  (441) 
nan

>  <Standardized_SMILES>  (441) 
COc1ccc(C(=O)Nc2ccc(CNc3nc4ccc(OCCN5CCOCC5)cc4s3)cc2)cc1

>  <Name>  (441) 
nan

>  <Pocket>  (441) 
nan

>  <ATP_Site>  (441) 
nan

>  <Peripheral>  (441) 
nan

>  <Num_H_Atoms_ProtBoundConf>  (441) 
nan

>  <Num_Resolved_Atoms>  (441) 
nan

>  <Num_Not_Resolved_Atoms>  (441) 
nan

$$$$
CHEMBL4799166
     RDKit          3D

  0  0  0  0  0  0  0  0  0  0999 V3000
M  V30 BEGIN CTAB
M  V30 COUNTS 46 49 0 0 0
M  V30 BEGIN ATOM
M  V30 1 O 0.449804 -1.860732 -0.032146 0
M  V30 2 C 1.621122 -1.781993 -0.429371 0
M  V30 3 C 1.819815 -1.613151 -1.905060 0
M  V30 4 C 1.305274 -0.236861 -2.245156 0
M  V30 5 C 0.024686 0.114599 -2.611920 0
M  V30 6 C -0.210896 1.458878 -2.834129 0
M  V30 7 C 0.776141 2.412676 -2.699861 0
M  V30 8 C 2.052808 1.991881 -2.326313 0
M  V30 9 N 2.290593 0.696153 -2.109428 0
M  V30 10 N 2.536508 -1.867270 0.620025 0
M  V30 11 C 3.232779 -1.974370 1.862193 0
M  V30 12 C 3.008262 -0.888918 2.843105 0
M  V30 13 C 1.738465 -0.700773 3.550567 0
M  V30 14 N 0.498640 -0.571919 2.883961 0
M  V30 15 C -0.078673 0.485226 2.303431 0
M  V30 16 O 0.641685 1.515081 2.246743 0
M  V30 17 C -1.355577 0.503644 1.793166 0
M  V30 18 C -1.918034 1.615272 1.209125 0
M  V30 19 C -3.213723 1.599236 0.713105 0
M  V30 20 F -3.714587 2.718209 0.151345 0
M  V30 21 C -3.948684 0.416199 0.816215 0
M  V30 22 C -3.366913 -0.692312 1.405064 0
M  V30 23 C -2.089481 -0.645645 1.885118 0
M  V30 24 N -1.557879 -1.728368 2.455428 0
M  V30 25 C -2.074777 -2.945303 2.659649 0
M  V30 26 S -3.508927 -3.633907 2.332196 0
M  V30 27 N -1.142924 -3.685228 3.276536 0
M  V30 28 N -0.080932 -2.931763 3.443109 0
M  V30 29 C -0.308850 -1.690094 2.935872 0
M  V30 30 H 2.862488 -1.714797 -2.189122 0
M  V30 31 H 1.218815 -2.367624 -2.409030 0
M  V30 32 H -0.652658 -0.697177 -2.684290 0
M  V30 33 H -1.235706 1.720217 -3.119859 0
M  V30 34 H 0.587911 3.446009 -2.866840 0
M  V30 35 H 2.867665 2.723777 -2.208683 0
M  V30 36 H 3.391279 -1.770551 -0.018513 0
M  V30 37 H 4.297211 -2.191006 1.697748 0
M  V30 38 H 2.806452 -2.932926 2.339365 0
M  V30 39 H 3.333603 0.066137 2.309907 0
M  V30 40 H 3.861576 -0.965783 3.614232 0
M  V30 41 H 1.641088 -1.511857 4.367206 0
M  V30 42 H 1.852656 0.225659 4.266866 0
M  V30 43 H -1.343341 2.518400 1.133825 0
M  V30 44 H -4.930520 0.495650 0.410670 0
M  V30 45 H -4.051422 -1.498880 1.404823 0
M  V30 46 H -1.044523 -4.670163 3.647030 0
M  V30 END ATOM
M  V30 BEGIN BOND
M  V30 1 2 1 2
M  V30 2 1 2 3
M  V30 3 1 3 4
M  V30 4 2 4 5
M  V30 5 1 5 6
M  V30 6 2 6 7
M  V30 7 1 7 8
M  V30 8 2 8 9
M  V30 9 1 2 10
M  V30 10 1 10 11
M  V30 11 1 11 12
M  V30 12 1 12 13
M  V30 13 1 13 14
M  V30 14 1 14 15
M  V30 15 2 15 16
M  V30 16 1 15 17
M  V30 17 2 17 18
M  V30 18 1 18 19
M  V30 19 1 19 20
M  V30 20 2 19 21
M  V30 21 1 21 22
M  V30 22 2 22 23
M  V30 23 1 23 24
M  V30 24 1 24 25
M  V30 25 2 25 26
M  V30 26 1 25 27
M  V30 27 1 27 28
M  V30 28 2 28 29
M  V30 29 1 9 4
M  V30 30 1 29 14
M  V30 31 1 23 17
M  V30 32 1 29 24
M  V30 33 1 3 30
M  V30 34 1 3 31
M  V30 35 1 5 32
M  V30 36 1 6 33
M  V30 37 1 7 34
M  V30 38 1 8 35
M  V30 39 1 10 36
M  V30 40 1 11 37
M  V30 41 1 11 38
M  V30 42 1 12 39
M  V30 43 1 12 40
M  V30 44 1 13 41
M  V30 45 1 13 42
M  V30 46 1 18 43
M  V30 47 1 21 44
M  V30 48 1 22 45
M  V30 49 1 27 46
M  V30 END BOND
M  V30 END CTAB
M  END
>  <Dataset>  (442) 
ChEMBL_Kinases

>  <Ligand_Instance>  (442) 
nan

>  <PDB_ID>  (442) 
nan

>  <Standardized_SMILES>  (442) 
O=C(Cc1ccccn1)NCCCn1c(=O)c2cc(F)ccc2n2c(=S)[nH]nc12

>  <Name>  (442) 
nan

>  <Pocket>  (442) 
nan

>  <ATP_Site>  (442) 
nan

>  <Peripheral>  (442) 
nan

>  <Num_H_Atoms_ProtBoundConf>  (442) 
nan

>  <Num_Resolved_Atoms>  (442) 
nan

>  <Num_Not_Resolved_Atoms>  (442) 
nan

$$$$
CHEMBL4102202
     RDKit          3D

  0  0  0  0  0  0  0  0  0  0999 V3000
M  V30 BEGIN CTAB
M  V30 COUNTS 32 33 0 0 0
M  V30 BEGIN ATOM
M  V30 1 C 1.442505 -4.091659 2.788096 0
M  V30 2 O 0.620476 -2.925442 2.669867 0
M  V30 3 C 0.721560 -2.077065 1.590010 0
M  V30 4 O 0.633450 -2.847343 2.565229 0
M  V30 5 C 0.174556 -0.873273 1.038147 0
M  V30 6 C 0.597788 -0.333939 -0.142884 0
M  V30 7 C 1.478382 -0.666476 -1.206470 0
M  V30 8 C 1.981759 0.240294 -2.217289 0
M  V30 9 N 2.411052 0.989016 -3.034812 0
M  V30 10 C 2.020451 -1.851722 -1.421749 0
M  V30 11 N 1.842076 -3.019844 -0.658819 0
M  V30 12 C -0.187289 0.791043 -0.208041 0
M  V30 13 C -0.388559 1.850256 -1.065991 0
M  V30 14 C -1.271330 2.885285 -0.916956 0
M  V30 15 C -2.048168 2.870299 0.216692 0
M  V30 16 Cl -3.204566 4.139931 0.499186 0
M  V30 17 C -1.948300 1.872272 1.153925 0
M  V30 18 Cl -2.961673 1.902897 2.579245 0
M  V30 19 C -1.028692 0.876191 0.909226 0
M  V30 20 N -0.779402 -0.192148 1.684445 0
M  V30 21 C -1.414362 -0.522923 2.943456 0
M  V30 22 H 0.934482 -4.717802 3.542825 0
M  V30 23 H 1.443568 -4.692389 1.854571 0
M  V30 24 H 2.442230 -3.851742 3.183142 0
M  V30 25 H 2.693510 -2.197370 -2.195070 0
M  V30 26 H 0.866421 -3.326081 -0.946453 0
M  V30 27 H 2.641885 -3.331201 -0.023550 0
M  V30 28 H 0.184380 1.904001 -1.965086 0
M  V30 29 H -1.377968 3.688754 -1.632475 0
M  V30 30 H -1.195987 0.261268 3.694536 0
M  V30 31 H -1.097180 -1.496050 3.325240 0
M  V30 32 H -2.529171 -0.601335 2.805182 0
M  V30 END ATOM
M  V30 BEGIN BOND
M  V30 1 1 1 2
M  V30 2 1 2 3
M  V30 3 2 3 4
M  V30 4 1 3 5
M  V30 5 2 5 6
M  V30 6 1 6 7
M  V30 7 1 7 8
M  V30 8 3 8 9
M  V30 9 2 7 10
M  V30 10 1 10 11
M  V30 11 1 6 12
M  V30 12 2 12 13
M  V30 13 1 13 14
M  V30 14 2 14 15
M  V30 15 1 15 16
M  V30 16 1 15 17
M  V30 17 1 17 18
M  V30 18 2 17 19
M  V30 19 1 19 20
M  V30 20 1 20 21
M  V30 21 1 20 5
M  V30 22 1 19 12
M  V30 23 1 1 22
M  V30 24 1 1 23
M  V30 25 1 1 24
M  V30 26 1 10 25
M  V30 27 1 11 26
M  V30 28 1 11 27
M  V30 29 1 13 28
M  V30 30 1 14 29
M  V30 31 1 21 30
M  V30 32 1 21 31
M  V30 33 1 21 32
M  V30 END BOND
M  V30 END CTAB
M  END
>  <Dataset>  (443) 
ChEMBL_Kinases

>  <Ligand_Instance>  (443) 
nan

>  <PDB_ID>  (443) 
nan

>  <Standardized_SMILES>  (443) 
COC(=O)c1c(/C(C#N)=C\N)c2ccc(Cl)c(Cl)c2n1C

>  <Name>  (443) 
nan

>  <Pocket>  (443) 
nan

>  <ATP_Site>  (443) 
nan

>  <Peripheral>  (443) 
nan

>  <Num_H_Atoms_ProtBoundConf>  (443) 
nan

>  <Num_Resolved_Atoms>  (443) 
nan

>  <Num_Not_Resolved_Atoms>  (443) 
nan

$$$$
CHEMBL4102159
     RDKit          3D

  0  0  0  0  0  0  0  0  0  0999 V3000
M  V30 BEGIN CTAB
M  V30 COUNTS 65 69 0 0 0
M  V30 BEGIN ATOM
M  V30 1 O 3.137505 1.339261 2.325130 0
M  V30 2 C 2.290897 0.481591 2.692865 0
M  V30 3 N 2.827469 -0.812544 2.870070 0
M  V30 4 C 4.230050 -0.746671 2.569636 0
M  V30 5 C 5.026577 -0.484174 3.681855 0
M  V30 6 C 6.405523 -0.383798 3.547003 0
M  V30 7 C 6.904252 -0.554188 2.291798 0
M  V30 8 C 6.130707 -0.815493 1.173502 0
M  V30 9 C 4.754104 -0.917473 1.302682 0
M  V30 10 N 0.956697 0.885873 2.879080 0
M  V30 11 C 0.347720 2.149943 2.714667 0
M  V30 12 C 0.973571 3.294082 2.307107 0
M  V30 13 C 0.369353 4.515662 2.144469 0
M  V30 14 C -0.974829 4.626935 2.405276 0
M  V30 15 C -1.660350 3.506226 2.819795 0
M  V30 16 C -3.125199 3.367238 3.151142 0
M  V30 17 N -3.784281 2.974401 1.907969 0
M  V30 18 C -3.236917 1.888412 1.132223 0
M  V30 19 N -2.643789 2.116787 0.095339 0
M  V30 20 C -2.088355 1.216772 -0.689463 0
M  V30 21 C -1.400230 1.495971 -1.890861 0
M  V30 22 C -0.865388 0.449459 -2.614039 0
M  V30 23 C -0.953673 -0.907711 -2.239212 0
M  V30 24 O -0.374688 -1.729972 -3.071588 0
M  V30 25 C -0.089911 -3.020882 -3.329285 0
M  V30 26 C -1.242248 -3.976643 -3.508230 0
M  V30 27 N -2.080054 -4.128688 -2.390226 0
M  V30 28 C -1.509791 -4.801411 -1.269056 0
M  V30 29 C -2.509680 -4.994472 -0.148202 0
M  V30 30 O -3.768912 -5.337700 -0.570094 0
M  V30 31 C -4.251312 -4.327332 -1.392323 0
M  V30 32 C -3.434991 -4.417785 -2.690063 0
M  V30 33 C -1.633043 -1.030038 -1.079636 0
M  V30 34 C -2.207243 -0.092661 -0.271836 0
M  V30 35 S -3.104723 -0.030055 1.225599 0
M  V30 36 C -0.981540 2.286936 2.966686 0
M  V30 37 H 2.144333 -1.562753 3.175788 0
M  V30 38 H 4.614233 -0.350838 4.681649 0
M  V30 39 H 6.994644 -0.180247 4.421787 0
M  V30 40 H 7.966113 -0.483980 2.138409 0
M  V30 41 H 6.542436 -0.947574 0.194646 0
M  V30 42 H 4.064853 -1.117981 0.512889 0
M  V30 43 H 0.379031 0.060980 3.192211 0
M  V30 44 H 2.017058 3.294123 2.082118 0
M  V30 45 H 0.880589 5.396437 1.821252 0
M  V30 46 H -1.592267 5.501887 2.326216 0
M  V30 47 H -3.259628 2.647205 3.952057 0
M  V30 48 H -3.516926 4.383367 3.443415 0
M  V30 49 H -4.639541 3.367796 1.461581 0
M  V30 50 H -1.286445 2.519820 -2.259804 0
M  V30 51 H -0.347413 0.758633 -3.542509 0
M  V30 52 H 0.690374 -3.471481 -2.647330 0
M  V30 53 H 0.457991 -3.071730 -4.335616 0
M  V30 54 H -0.906504 -4.936853 -3.970455 0
M  V30 55 H -1.870034 -3.508579 -4.329044 0
M  V30 56 H -1.030700 -5.773807 -1.495841 0
M  V30 57 H -0.708105 -4.164893 -0.843514 0
M  V30 58 H -2.080260 -5.686108 0.603266 0
M  V30 59 H -2.602750 -4.011555 0.369015 0
M  V30 60 H -3.978473 -3.330756 -0.936114 0
M  V30 61 H -5.319326 -4.416683 -1.572271 0
M  V30 62 H -3.620090 -5.373333 -3.175798 0
M  V30 63 H -3.834670 -3.600372 -3.334496 0
M  V30 64 H -1.758485 -2.025763 -0.682352 0
M  V30 65 H -1.514381 1.391375 3.303859 0
M  V30 END ATOM
M  V30 BEGIN BOND
M  V30 1 2 1 2
M  V30 2 1 2 3
M  V30 3 1 3 4
M  V30 4 2 4 5
M  V30 5 1 5 6
M  V30 6 2 6 7
M  V30 7 1 7 8
M  V30 8 2 8 9
M  V30 9 1 2 10
M  V30 10 1 10 11
M  V30 11 2 11 12
M  V30 12 1 12 13
M  V30 13 2 13 14
M  V30 14 1 14 15
M  V30 15 1 15 16
M  V30 16 1 16 17
M  V30 17 1 17 18
M  V30 18 2 18 19
M  V30 19 1 19 20
M  V30 20 2 20 21
M  V30 21 1 21 22
M  V30 22 2 22 23
M  V30 23 1 23 24
M  V30 24 1 24 25
M  V30 25 1 25 26
M  V30 26 1 26 27
M  V30 27 1 27 28
M  V30 28 1 28 29
M  V30 29 1 29 30
M  V30 30 1 30 31
M  V30 31 1 31 32
M  V30 32 1 23 33
M  V30 33 2 33 34
M  V30 34 1 34 35
M  V30 35 2 15 36
M  V30 36 1 9 4
M  V30 37 1 36 11
M  V30 38 1 35 18
M  V30 39 1 34 20
M  V30 40 1 32 27
M  V30 41 1 3 37
M  V30 42 1 5 38
M  V30 43 1 6 39
M  V30 44 1 7 40
M  V30 45 1 8 41
M  V30 46 1 9 42
M  V30 47 1 10 43
M  V30 48 1 12 44
M  V30 49 1 13 45
M  V30 50 1 14 46
M  V30 51 1 16 47
M  V30 52 1 16 48
M  V30 53 1 17 49
M  V30 54 1 21 50
M  V30 55 1 22 51
M  V30 56 1 25 52
M  V30 57 1 25 53
M  V30 58 1 26 54
M  V30 59 1 26 55
M  V30 60 1 28 56
M  V30 61 1 28 57
M  V30 62 1 29 58
M  V30 63 1 29 59
M  V30 64 1 31 60
M  V30 65 1 31 61
M  V30 66 1 32 62
M  V30 67 1 32 63
M  V30 68 1 33 64
M  V30 69 1 36 65
M  V30 END BOND
M  V30 END CTAB
M  END
>  <Dataset>  (444) 
ChEMBL_Kinases

>  <Ligand_Instance>  (444) 
nan

>  <PDB_ID>  (444) 
nan

>  <Standardized_SMILES>  (444) 
O=C(Nc1ccccc1)Nc1cccc(CNc2nc3ccc(OCCN4CCOCC4)cc3s2)c1

>  <Name>  (444) 
nan

>  <Pocket>  (444) 
nan

>  <ATP_Site>  (444) 
nan

>  <Peripheral>  (444) 
nan

>  <Num_H_Atoms_ProtBoundConf>  (444) 
nan

>  <Num_Resolved_Atoms>  (444) 
nan

>  <Num_Not_Resolved_Atoms>  (444) 
nan

$$$$
CHEMBL4799183
     RDKit          3D

  0  0  0  0  0  0  0  0  0  0999 V3000
M  V30 BEGIN CTAB
M  V30 COUNTS 62 65 0 0 0
M  V30 BEGIN ATOM
M  V30 1 C 0.103341 0.076062 4.397958 0
M  V30 2 O 1.251433 0.305655 3.607014 0
M  V30 3 C 2.268412 -0.595273 3.491930 0
M  V30 4 O 2.000426 -1.608365 4.185555 0
M  V30 5 C 3.449416 -0.353481 2.675130 0
M  V30 6 C 4.390872 -1.343857 2.652867 0
M  V30 7 C 5.541898 -1.037292 1.819155 0
M  V30 8 S 5.210241 0.608986 1.137781 0
M  V30 9 C 3.591484 0.810097 1.974210 0
M  V30 10 N 2.856374 1.953182 1.794326 0
M  V30 11 C 1.872411 2.239378 0.815155 0
M  V30 12 N 0.554597 2.002648 1.068416 0
M  V30 13 C -0.376215 2.271673 0.128535 0
M  V30 14 N -1.780796 2.099097 0.214316 0
M  V30 15 C -2.474923 0.888843 -0.063976 0
M  V30 16 C -1.796031 -0.268296 -0.401935 0
M  V30 17 C -2.509328 -1.421568 -0.655186 0
M  V30 18 C -3.886223 -1.462222 -0.583563 0
M  V30 19 C -4.556671 -0.316357 -0.248924 0
M  V30 20 C -3.851853 0.841834 0.006624 0
M  V30 21 O -4.491279 2.030925 0.350485 0
M  V30 22 C -5.904231 2.008182 0.429368 0
M  V30 23 C -4.375876 -2.822237 -0.907018 0
M  V30 24 C -3.190409 -3.360268 -1.721155 0
M  V30 25 N -2.098617 -2.734775 -1.008669 0
M  V30 26 C -0.863917 -3.373896 -0.738660 0
M  V30 27 O -0.629115 -4.551298 -1.111318 0
M  V30 28 C 0.363192 -2.933495 -0.037321 0
M  V30 29 N 1.301506 -4.027454 -0.062672 0
M  V30 30 C 1.806066 -4.328970 -1.371872 0
M  V30 31 C 0.842739 -5.222824 0.565269 0
M  V30 32 N -0.084295 2.783301 -1.105326 0
M  V30 33 C 1.216339 3.047067 -1.432061 0
M  V30 34 C 2.111414 2.750068 -0.429624 0
M  V30 35 N 3.439506 3.020773 -0.760697 0 CHG=1 VAL=4
M  V30 36 O 3.892611 3.862522 -1.563468 0
M  V30 37 O 4.767831 3.159413 -0.970681 0 CHG=-1 VAL=1
M  V30 38 H 0.031164 -0.972052 4.736889 0
M  V30 39 H 0.041086 0.786594 5.254359 0
M  V30 40 H -0.801669 0.263970 3.782496 0
M  V30 41 H 4.400838 -2.296712 3.152509 0
M  V30 42 H 6.414955 -1.762617 1.695039 0
M  V30 43 H 3.105577 2.686971 2.519858 0
M  V30 44 H -2.300529 2.940397 0.503794 0
M  V30 45 H -0.717517 -0.294401 -0.473664 0
M  V30 46 H -5.629503 -0.345591 -0.191764 0
M  V30 47 H -6.231804 1.321904 1.243315 0
M  V30 48 H -6.320887 1.547220 -0.511263 0
M  V30 49 H -6.337835 3.010892 0.571426 0
M  V30 50 H -5.262001 -2.768312 -1.596180 0
M  V30 51 H -4.568440 -3.395620 -0.003348 0
M  V30 52 H -3.260202 -3.107437 -2.780318 0
M  V30 53 H -3.159047 -4.445314 -1.513574 0
M  V30 54 H 0.846075 -2.079690 -0.605735 0
M  V30 55 H 0.203584 -2.536897 0.964988 0
M  V30 56 H 1.578315 -3.489156 -2.055788 0
M  V30 57 H 1.492356 -5.295332 -1.786410 0
M  V30 58 H 2.931750 -4.333393 -1.285516 0
M  V30 59 H 0.775879 -6.105885 -0.112988 0
M  V30 60 H -0.119825 -5.077790 1.105033 0
M  V30 61 H 1.618412 -5.524289 1.323249 0
M  V30 62 H 1.505757 3.452520 -2.392668 0
M  V30 END ATOM
M  V30 BEGIN BOND
M  V30 1 1 1 2
M  V30 2 1 2 3
M  V30 3 2 3 4
M  V30 4 1 3 5
M  V30 5 1 5 6
M  V30 6 2 6 7
M  V30 7 1 7 8
M  V30 8 1 8 9
M  V30 9 1 9 10
M  V30 10 1 10 11
M  V30 11 2 11 12
M  V30 12 1 12 13
M  V30 13 1 13 14
M  V30 14 1 14 15
M  V30 15 2 15 16
M  V30 16 1 16 17
M  V30 17 2 17 18
M  V30 18 1 18 19
M  V30 19 2 19 20
M  V30 20 1 20 21
M  V30 21 1 21 22
M  V30 22 1 18 23
M  V30 23 1 23 24
M  V30 24 1 24 25
M  V30 25 1 25 26
M  V30 26 2 26 27
M  V30 27 1 26 28
M  V30 28 1 28 29
M  V30 29 1 29 30
M  V30 30 1 29 31
M  V30 31 2 13 32
M  V30 32 1 32 33
M  V30 33 2 33 34
M  V30 34 1 34 35
M  V30 35 2 35 36
M  V30 36 1 35 37
M  V30 37 2 9 5
M  V30 38 1 34 11
M  V30 39 1 20 15
M  V30 40 1 25 17
M  V30 41 1 1 38
M  V30 42 1 1 39
M  V30 43 1 1 40
M  V30 44 1 6 41
M  V30 45 1 7 42
M  V30 46 1 10 43
M  V30 47 1 14 44
M  V30 48 1 16 45
M  V30 49 1 19 46
M  V30 50 1 22 47
M  V30 51 1 22 48
M  V30 52 1 22 49
M  V30 53 1 23 50
M  V30 54 1 23 51
M  V30 55 1 24 52
M  V30 56 1 24 53
M  V30 57 1 28 54
M  V30 58 1 28 55
M  V30 59 1 30 56
M  V30 60 1 30 57
M  V30 61 1 30 58
M  V30 62 1 31 59
M  V30 63 1 31 60
M  V30 64 1 31 61
M  V30 65 1 33 62
M  V30 END BOND
M  V30 END CTAB
M  END
>  <Dataset>  (445) 
ChEMBL_Kinases

>  <Ligand_Instance>  (445) 
nan

>  <PDB_ID>  (445) 
nan

>  <Standardized_SMILES>  (445) 
COC(=O)c1ccsc1Nc1nc(Nc2cc3c(cc2OC)CCN3C(=O)CN(C)C)ncc1[N+](=O)[O-]

>  <Name>  (445) 
nan

>  <Pocket>  (445) 
nan

>  <ATP_Site>  (445) 
nan

>  <Peripheral>  (445) 
nan

>  <Num_H_Atoms_ProtBoundConf>  (445) 
nan

>  <Num_Resolved_Atoms>  (445) 
nan

>  <Num_Not_Resolved_Atoms>  (445) 
nan

$$$$
CHEMBL4102034
     RDKit          3D

  0  0  0  0  0  0  0  0  0  0999 V3000
M  V30 BEGIN CTAB
M  V30 COUNTS 49 53 0 0 0
M  V30 BEGIN ATOM
M  V30 1 N -0.802933 -5.378000 4.016114 0
M  V30 2 C -0.912134 -4.509170 2.859431 0
M  V30 3 C -2.369455 -4.496491 2.452749 0
M  V30 4 C -2.548045 -3.763808 1.163119 0
M  V30 5 N -1.306471 -3.318632 0.557997 0
M  V30 6 C -1.224496 -2.017472 -0.048223 0
M  V30 7 N -0.093493 -1.554715 -0.624910 0
M  V30 8 C -0.029791 -0.333488 -1.189530 0
M  V30 9 N 1.211208 0.080204 -1.780390 0
M  V30 10 C 2.065310 0.755603 -0.842279 0
M  V30 11 C 2.275397 2.053843 -0.423978 0
M  V30 12 N 3.236635 2.061179 0.507128 0
M  V30 13 C 3.601264 3.348360 1.073119 0
M  V30 14 C 3.805146 3.483703 2.531472 0
M  V30 15 C 2.511518 3.974781 1.978762 0
M  V30 16 C 3.629972 0.780877 0.675541 0
M  V30 17 N 2.920836 -0.018169 -0.142837 0
M  V30 18 C -1.152129 0.469663 -1.179327 0
M  V30 19 C -1.090551 1.728562 -1.760032 0
M  V30 20 C -2.212144 2.546480 -1.756642 0
M  V30 21 Cl -2.117104 4.131201 -2.493358 0
M  V30 22 C -3.372461 2.088479 -1.172463 0
M  V30 23 C -3.426862 0.839574 -0.598562 0
M  V30 24 C -2.322854 0.015460 -0.593432 0
M  V30 25 N -2.307525 -1.220776 -0.048025 0
M  V30 26 C -0.123744 -4.157180 0.543784 0
M  V30 27 C -0.121756 -5.113276 1.709704 0
M  V30 28 H 0.200890 -5.679130 4.090129 0
M  V30 29 H -1.072659 -4.913465 4.897381 0
M  V30 30 H -0.579285 -3.489468 3.101419 0
M  V30 31 H -2.968848 -3.942407 3.231366 0
M  V30 32 H -2.720533 -5.554039 2.405632 0
M  V30 33 H -3.025663 -4.424949 0.381667 0
M  V30 34 H -3.235557 -2.894161 1.250357 0
M  V30 35 H 1.574347 -0.036489 -2.771644 0
M  V30 36 H 1.669412 2.825120 -0.882436 0
M  V30 37 H 4.136355 4.022539 0.387839 0
M  V30 38 H 4.487573 4.306820 2.845202 0
M  V30 39 H 3.847155 2.623840 3.207316 0
M  V30 40 H 2.285472 5.037786 1.869883 0
M  V30 41 H 1.638438 3.322760 2.229507 0
M  V30 42 H 4.417199 0.622432 1.410848 0
M  V30 43 H -0.185126 2.097842 -2.221189 0
M  V30 44 H -4.232524 2.748978 -1.184688 0
M  V30 45 H -4.315666 0.466756 -0.141286 0
M  V30 46 H 0.808802 -3.560014 0.579099 0
M  V30 47 H -0.160283 -4.758140 -0.388065 0
M  V30 48 H -0.601509 -6.090642 1.464557 0
M  V30 49 H 0.901569 -5.316212 2.067777 0
M  V30 END ATOM
M  V30 BEGIN BOND
M  V30 1 1 1 2
M  V30 2 1 2 3
M  V30 3 1 3 4
M  V30 4 1 4 5
M  V30 5 1 5 6
M  V30 6 2 6 7
M  V30 7 1 7 8
M  V30 8 1 8 9
M  V30 9 1 9 10
M  V30 10 2 10 11
M  V30 11 1 11 12
M  V30 12 1 12 13
M  V30 13 1 13 14
M  V30 14 1 14 15
M  V30 15 1 12 16
M  V30 16 2 16 17
M  V30 17 2 8 18
M  V30 18 1 18 19
M  V30 19 2 19 20
M  V30 20 1 20 21
M  V30 21 1 20 22
M  V30 22 2 22 23
M  V30 23 1 23 24
M  V30 24 2 24 25
M  V30 25 1 5 26
M  V30 26 1 26 27
M  V30 27 1 27 2
M  V30 28 1 25 6
M  V30 29 1 17 10
M  V30 30 1 24 18
M  V30 31 1 15 13
M  V30 32 1 1 28
M  V30 33 1 1 29
M  V30 34 1 2 30
M  V30 35 1 3 31
M  V30 36 1 3 32
M  V30 37 1 4 33
M  V30 38 1 4 34
M  V30 39 1 9 35
M  V30 40 1 11 36
M  V30 41 1 13 37
M  V30 42 1 14 38
M  V30 43 1 14 39
M  V30 44 1 15 40
M  V30 45 1 15 41
M  V30 46 1 16 42
M  V30 47 1 19 43
M  V30 48 1 22 44
M  V30 49 1 23 45
M  V30 50 1 26 46
M  V30 51 1 26 47
M  V30 52 1 27 48
M  V30 53 1 27 49
M  V30 END BOND
M  V30 END CTAB
M  END
>  <Dataset>  (446) 
ChEMBL_Kinases

>  <Ligand_Instance>  (446) 
nan

>  <PDB_ID>  (446) 
nan

>  <Standardized_SMILES>  (446) 
NC1CCN(c2nc(Nc3cn(C4CC4)cn3)c3cc(Cl)ccc3n2)CC1

>  <Name>  (446) 
nan

>  <Pocket>  (446) 
nan

>  <ATP_Site>  (446) 
nan

>  <Peripheral>  (446) 
nan

>  <Num_H_Atoms_ProtBoundConf>  (446) 
nan

>  <Num_Resolved_Atoms>  (446) 
nan

>  <Num_Not_Resolved_Atoms>  (446) 
nan

$$$$
CHEMBL4799187
     RDKit          3D

  0  0  0  0  0  0  0  0  0  0999 V3000
M  V30 BEGIN CTAB
M  V30 COUNTS 56 60 0 0 0
M  V30 BEGIN ATOM
M  V30 1 C 4.949372 -4.696037 3.761820 0
M  V30 2 O 4.769861 -3.426040 4.325647 0
M  V30 3 C 4.262121 -2.336926 3.668199 0
M  V30 4 C 4.134296 -1.123047 4.348851 0
M  V30 5 C 3.628571 0.022538 3.749492 0
M  V30 6 C 3.233118 -0.025719 2.429266 0
M  V30 7 C 2.713958 1.206369 1.858790 0
M  V30 8 O 2.664980 2.232092 2.570449 0
M  V30 9 N 2.289138 1.177453 0.517124 0
M  V30 10 C 1.738084 2.104806 -0.409881 0
M  V30 11 C 2.468160 2.904332 -1.269156 0
M  V30 12 C 1.809306 3.763234 -2.124314 0
M  V30 13 C 0.430785 3.856977 -2.155954 0
M  V30 14 C -0.347893 3.073203 -1.310077 0
M  V30 15 N -1.772819 3.110812 -1.291993 0
M  V30 16 C -2.448652 2.300595 -0.308870 0
M  V30 17 N -2.710594 2.998030 0.810558 0
M  V30 18 C -3.345434 2.339975 1.818476 0
M  V30 19 N -3.695179 1.038567 1.691145 0
M  V30 20 C -3.427668 0.348273 0.563913 0
M  V30 21 C -3.776366 -0.976818 0.426976 0
M  V30 22 C -3.453552 -1.610883 -0.778776 0
M  V30 23 C -3.864203 -3.014180 -0.816044 0
M  V30 24 C -4.957615 -3.583814 -0.197654 0
M  V30 25 N -4.895757 -4.903343 -0.533586 0
M  V30 26 N -3.827781 -5.120205 -1.310316 0
M  V30 27 C -3.508660 -6.458357 -1.825842 0
M  V30 28 C -3.158778 -3.974698 -1.511162 0
M  V30 29 C -2.810959 -0.952961 -1.804312 0
M  V30 30 C -2.457835 0.379868 -1.673876 0
M  V30 31 C -2.785967 0.974139 -0.483078 0
M  V30 32 C 0.364664 2.221178 -0.464607 0
M  V30 33 C 3.358280 -1.218722 1.758252 0
M  V30 34 C 3.861507 -2.363338 2.350605 0
M  V30 35 H 4.865363 -5.469488 4.577693 0
M  V30 36 H 4.189074 -4.874289 2.991966 0
M  V30 37 H 5.972840 -4.833426 3.360091 0
M  V30 38 H 4.455723 -1.114439 5.390844 0
M  V30 39 H 3.563637 0.927028 4.353919 0
M  V30 40 H 2.290383 0.380686 -0.149880 0
M  V30 41 H 3.538380 2.810081 -1.220693 0
M  V30 42 H 2.428979 4.366798 -2.775052 0
M  V30 43 H -0.074403 4.541221 -2.837094 0
M  V30 44 H -2.214826 3.721180 -1.990847 0
M  V30 45 H -3.608457 2.791607 2.761160 0
M  V30 46 H -4.280616 -1.472810 1.244683 0
M  V30 47 H -5.667125 -3.063651 0.402175 0
M  V30 48 H -2.825143 -6.990532 -1.121708 0
M  V30 49 H -2.956144 -6.344233 -2.776126 0
M  V30 50 H -4.416656 -7.081506 -1.896154 0
M  V30 51 H -2.269859 -3.849143 -2.091949 0
M  V30 52 H -2.596151 -1.506333 -2.699639 0
M  V30 53 H -1.952168 0.918733 -2.465559 0
M  V30 54 H -0.237372 1.611084 0.193814 0
M  V30 55 H 3.053146 -1.272524 0.723000 0
M  V30 56 H 3.934409 -3.269261 1.768135 0
M  V30 END ATOM
M  V30 BEGIN BOND
M  V30 1 1 1 2
M  V30 2 1 2 3
M  V30 3 2 3 4
M  V30 4 1 4 5
M  V30 5 2 5 6
M  V30 6 1 6 7
M  V30 7 2 7 8
M  V30 8 1 7 9
M  V30 9 1 9 10
M  V30 10 2 10 11
M  V30 11 1 11 12
M  V30 12 2 12 13
M  V30 13 1 13 14
M  V30 14 1 14 15
M  V30 15 1 15 16
M  V30 16 2 16 17
M  V30 17 1 17 18
M  V30 18 2 18 19
M  V30 19 1 19 20
M  V30 20 2 20 21
M  V30 21 1 21 22
M  V30 22 1 22 23
M  V30 23 1 23 24
M  V30 24 2 24 25
M  V30 25 1 25 26
M  V30 26 1 26 27
M  V30 27 1 26 28
M  V30 28 2 22 29
M  V30 29 1 29 30
M  V30 30 2 30 31
M  V30 31 2 14 32
M  V30 32 1 6 33
M  V30 33 2 33 34
M  V30 34 1 34 3
M  V30 35 1 32 10
M  V30 36 1 31 16
M  V30 37 1 31 20
M  V30 38 2 28 23
M  V30 39 1 1 35
M  V30 40 1 1 36
M  V30 41 1 1 37
M  V30 42 1 4 38
M  V30 43 1 5 39
M  V30 44 1 9 40
M  V30 45 1 11 41
M  V30 46 1 12 42
M  V30 47 1 13 43
M  V30 48 1 15 44
M  V30 49 1 18 45
M  V30 50 1 21 46
M  V30 51 1 24 47
M  V30 52 1 27 48
M  V30 53 1 27 49
M  V30 54 1 27 50
M  V30 55 1 28 51
M  V30 56 1 29 52
M  V30 57 1 30 53
M  V30 58 1 32 54
M  V30 59 1 33 55
M  V30 60 1 34 56
M  V30 END BOND
M  V30 END CTAB
M  END
>  <Dataset>  (447) 
ChEMBL_Kinases

>  <Ligand_Instance>  (447) 
nan

>  <PDB_ID>  (447) 
nan

>  <Standardized_SMILES>  (447) 
COc1ccc(C(=O)Nc2cccc(Nc3ncnc4cc(-c5cnn(C)c5)ccc34)c2)cc1

>  <Name>  (447) 
nan

>  <Pocket>  (447) 
nan

>  <ATP_Site>  (447) 
nan

>  <Peripheral>  (447) 
nan

>  <Num_H_Atoms_ProtBoundConf>  (447) 
nan

>  <Num_Resolved_Atoms>  (447) 
nan

>  <Num_Not_Resolved_Atoms>  (447) 
nan

$$$$
CHEMBL4101991
     RDKit          3D

  0  0  0  0  0  0  0  0  0  0999 V3000
M  V30 BEGIN CTAB
M  V30 COUNTS 45 48 0 0 0
M  V30 BEGIN ATOM
M  V30 1 C -0.429955 -2.768332 -0.954259 0
M  V30 2 O 0.469979 -2.367544 0.053239 0
M  V30 3 C 1.811082 -2.318086 -0.174643 0
M  V30 4 C 2.291862 -2.671474 -1.412719 0
M  V30 5 C 3.629665 -2.661118 -1.743394 0
M  V30 6 C 4.496328 -2.266881 -0.741572 0
M  V30 7 C 4.026992 -1.914918 0.487912 0
M  V30 8 N 4.879828 -1.557580 1.450639 0
M  V30 9 C 4.551493 -1.213369 2.687976 0
M  V30 10 C 3.177138 -1.246062 2.943809 0
M  V30 11 C 2.179572 -1.602752 2.017230 0
M  V30 12 N 0.851451 -1.578065 2.454594 0
M  V30 13 C -0.348265 -0.853657 2.228045 0
M  V30 14 C -0.474266 0.235874 1.396125 0
M  V30 15 C -1.614477 0.952060 1.157554 0
M  V30 16 C -1.762176 2.095598 0.288987 0
M  V30 17 C -3.026622 2.663189 0.205149 0
M  V30 18 C -3.293289 3.757956 -0.589854 0
M  V30 19 Cl -4.895677 4.443703 -0.669365 0
M  V30 20 C -2.315124 4.346943 -1.344577 0
M  V30 21 C -1.049501 3.813056 -1.287951 0
M  V30 22 C -0.822468 2.724151 -0.486066 0
M  V30 23 F 0.430014 2.241193 -0.466211 0
M  V30 24 N -2.687533 0.504410 1.827295 0
M  V30 25 C -2.633723 -0.552822 2.654514 0
M  V30 26 C -1.483588 -1.269618 2.890685 0
M  V30 27 C -1.467935 -2.437612 3.817351 0
M  V30 28 C 2.698743 -1.932402 0.788663 0
M  V30 29 H -0.126096 -3.723789 -1.436099 0
M  V30 30 H -1.413814 -2.944035 -0.439718 0
M  V30 31 H -0.594048 -1.968380 -1.715654 0
M  V30 32 H 1.613489 -2.981562 -2.200464 0
M  V30 33 H 3.952353 -2.955029 -2.753251 0
M  V30 34 H 5.546954 -2.246156 -0.959837 0
M  V30 35 H 5.212262 -0.924454 3.477796 0
M  V30 36 H 2.862348 -0.967958 3.956441 0
M  V30 37 H 0.829963 -2.360150 3.145511 0
M  V30 38 H 0.438338 0.517725 0.905347 0
M  V30 39 H -3.891306 2.275070 0.766649 0
M  V30 40 H -2.478639 5.205029 -1.980967 0
M  V30 41 H -0.253101 4.250542 -1.868905 0
M  V30 42 H -3.551583 -0.854553 3.162677 0
M  V30 43 H -0.803274 -2.299700 4.686474 0
M  V30 44 H -2.491462 -2.573516 4.204057 0
M  V30 45 H -1.213100 -3.387927 3.290933 0
M  V30 END ATOM
M  V30 BEGIN BOND
M  V30 1 1 1 2
M  V30 2 1 2 3
M  V30 3 2 3 4
M  V30 4 1 4 5
M  V30 5 2 5 6
M  V30 6 1 6 7
M  V30 7 2 7 8
M  V30 8 1 8 9
M  V30 9 2 9 10
M  V30 10 1 10 11
M  V30 11 1 11 12
M  V30 12 1 12 13
M  V30 13 2 13 14
M  V30 14 1 14 15
M  V30 15 1 15 16
M  V30 16 2 16 17
M  V30 17 1 17 18
M  V30 18 1 18 19
M  V30 19 2 18 20
M  V30 20 1 20 21
M  V30 21 2 21 22
M  V30 22 1 22 23
M  V30 23 2 15 24
M  V30 24 1 24 25
M  V30 25 2 25 26
M  V30 26 1 26 27
M  V30 27 2 11 28
M  V30 28 1 28 3
M  V30 29 1 28 7
M  V30 30 1 26 13
M  V30 31 1 22 16
M  V30 32 1 1 29
M  V30 33 1 1 30
M  V30 34 1 1 31
M  V30 35 1 4 32
M  V30 36 1 5 33
M  V30 37 1 6 34
M  V30 38 1 9 35
M  V30 39 1 10 36
M  V30 40 1 12 37
M  V30 41 1 14 38
M  V30 42 1 17 39
M  V30 43 1 20 40
M  V30 44 1 21 41
M  V30 45 1 25 42
M  V30 46 1 27 43
M  V30 47 1 27 44
M  V30 48 1 27 45
M  V30 END BOND
M  V30 END CTAB
M  END
>  <Dataset>  (448) 
ChEMBL_Kinases

>  <Ligand_Instance>  (448) 
nan

>  <PDB_ID>  (448) 
nan

>  <Standardized_SMILES>  (448) 
COc1cccc2nccc(Nc3cc(-c4cc(Cl)ccc4F)ncc3C)c12

>  <Name>  (448) 
nan

>  <Pocket>  (448) 
nan

>  <ATP_Site>  (448) 
nan

>  <Peripheral>  (448) 
nan

>  <Num_H_Atoms_ProtBoundConf>  (448) 
nan

>  <Num_Resolved_Atoms>  (448) 
nan

>  <Num_Not_Resolved_Atoms>  (448) 
nan

$$$$
CHEMBL4101984
     RDKit          3D

  0  0  0  0  0  0  0  0  0  0999 V3000
M  V30 BEGIN CTAB
M  V30 COUNTS 52 55 0 0 0
M  V30 BEGIN ATOM
M  V30 1 C 0.055490 -2.557470 1.302238 0
M  V30 2 C -1.204905 -1.903465 1.834071 0 CFG=1
M  V30 3 C -0.769904 -0.950790 2.953987 0
M  V30 4 N -0.617176 0.334632 2.315963 0
M  V30 5 C 0.656750 0.906308 2.044001 0
M  V30 6 N 0.973668 1.146436 0.759724 0
M  V30 7 C 2.138928 1.676455 0.350356 0
M  V30 8 C 2.428526 1.923346 -1.055763 0
M  V30 9 C 3.608555 2.460697 -1.514575 0
M  V30 10 C 3.842741 2.687136 -2.867646 0
M  V30 11 N 2.852225 2.353892 -3.729959 0
M  V30 12 C 1.719299 1.835275 -3.265699 0
M  V30 13 N 1.477004 1.610154 -1.957721 0
M  V30 14 C 3.031427 1.973718 1.358571 0
M  V30 15 C 2.700440 1.724017 2.683361 0
M  V30 16 O 3.543093 2.009698 3.578905 0
M  V30 17 N 1.519758 1.192211 3.039972 0
M  V30 18 C 1.152408 0.919685 4.414129 0
M  V30 19 C -1.905264 0.963383 1.976299 0
M  V30 20 C -2.770433 -0.137333 1.398663 0
M  V30 21 N -1.972418 -1.218199 0.844126 0
M  V30 22 C -2.914308 -2.115050 0.210704 0
M  V30 23 C -2.293001 -3.281088 -0.428056 0
M  V30 24 C -1.933327 -3.028479 -1.756318 0
M  V30 25 C -1.331593 -4.009275 -2.540857 0
M  V30 26 C -1.083079 -5.259161 -1.999919 0
M  V30 27 C -1.440003 -5.517099 -0.674654 0
M  V30 28 C -2.034637 -4.532401 0.084969 0
M  V30 29 H 0.966881 -2.032686 1.713821 0
M  V30 30 H 0.175536 -3.607224 1.702187 0
M  V30 31 H 0.125041 -2.613091 0.221160 0
M  V30 32 H -1.791487 -2.695293 2.350594 0
M  V30 33 H -1.614735 -0.904458 3.667660 0
M  V30 34 H 0.153391 -1.347851 3.407185 0
M  V30 35 H 4.377732 2.717626 -0.821016 0
M  V30 36 H 4.803291 3.116063 -3.145551 0
M  V30 37 H 0.972116 1.591616 -4.001327 0
M  V30 38 H 3.982289 2.395671 1.146972 0
M  V30 39 H 0.065563 0.907055 4.564752 0
M  V30 40 H 1.656371 -0.022309 4.782822 0
M  V30 41 H 1.588000 1.731868 5.054579 0
M  V30 42 H -1.770471 1.812366 1.302642 0
M  V30 43 H -2.407067 1.330977 2.891485 0
M  V30 44 H -3.475064 -0.566415 2.116602 0
M  V30 45 H -3.341189 0.300676 0.552547 0
M  V30 46 H -3.582429 -1.550165 -0.486919 0
M  V30 47 H -3.590226 -2.502951 1.026266 0
M  V30 48 H -2.076031 -2.100554 -2.283296 0
M  V30 49 H -1.041423 -3.845356 -3.567660 0
M  V30 50 H -0.613029 -6.101240 -2.531238 0
M  V30 51 H -1.289683 -6.462080 -0.152389 0
M  V30 52 H -2.339297 -4.656021 1.112936 0
M  V30 END ATOM
M  V30 BEGIN BOND
M  V30 1 1 1 2
M  V30 2 1 2 3
M  V30 3 1 3 4
M  V30 4 1 4 5
M  V30 5 2 5 6
M  V30 6 1 6 7
M  V30 7 1 7 8
M  V30 8 2 8 9
M  V30 9 1 9 10
M  V30 10 2 10 11
M  V30 11 1 11 12
M  V30 12 2 12 13
M  V30 13 2 7 14
M  V30 14 1 14 15
M  V30 15 2 15 16
M  V30 16 1 15 17
M  V30 17 1 17 18
M  V30 18 1 4 19
M  V30 19 1 19 20
M  V30 20 1 20 21
M  V30 21 1 21 22
M  V30 22 1 22 23
M  V30 23 2 23 24
M  V30 24 1 24 25
M  V30 25 2 25 26
M  V30 26 1 26 27
M  V30 27 2 27 28
M  V30 28 1 21 2
M  V30 29 1 28 23
M  V30 30 1 17 5
M  V30 31 1 13 8
M  V30 32 1 1 29
M  V30 33 1 1 30
M  V30 34 1 1 31
M  V30 35 1 2 32 CFG=1
M  V30 36 1 3 33
M  V30 37 1 3 34
M  V30 38 1 9 35
M  V30 39 1 10 36
M  V30 40 1 12 37
M  V30 41 1 14 38
M  V30 42 1 18 39
M  V30 43 1 18 40
M  V30 44 1 18 41
M  V30 45 1 19 42
M  V30 46 1 19 43
M  V30 47 1 20 44
M  V30 48 1 20 45
M  V30 49 1 22 46
M  V30 50 1 22 47
M  V30 51 1 24 48
M  V30 52 1 25 49
M  V30 53 1 26 50
M  V30 54 1 27 51
M  V30 55 1 28 52
M  V30 END BOND
M  V30 END CTAB
M  END
>  <Dataset>  (449) 
ChEMBL_Kinases

>  <Ligand_Instance>  (449) 
nan

>  <PDB_ID>  (449) 
nan

>  <Standardized_SMILES>  (449) 
C[C@H]1CN(c2nc(-c3ccncn3)cc(=O)n2C)CCN1Cc1ccccc1

>  <Name>  (449) 
nan

>  <Pocket>  (449) 
nan

>  <ATP_Site>  (449) 
nan

>  <Peripheral>  (449) 
nan

>  <Num_H_Atoms_ProtBoundConf>  (449) 
nan

>  <Num_Resolved_Atoms>  (449) 
nan

>  <Num_Not_Resolved_Atoms>  (449) 
nan

$$$$
CHEMBL410195
     RDKit          3D

  0  0  0  0  0  0  0  0  0  0999 V3000
M  V30 BEGIN CTAB
M  V30 COUNTS 47 50 0 0 0
M  V30 BEGIN ATOM
M  V30 1 C -0.794093 -7.545933 -2.570128 0
M  V30 2 O -0.186136 -6.353760 -3.012014 0
M  V30 3 C -0.407142 -5.186187 -2.301721 0
M  V30 4 C -1.146311 -4.908908 -1.172318 0
M  V30 5 C -1.174867 -3.620573 -0.689074 0
M  V30 6 C -0.504994 -2.571602 -1.264989 0
M  V30 7 C 0.237847 -2.841521 -2.397442 0
M  V30 8 C 0.290652 -4.140408 -2.918322 0
M  V30 9 O 1.084811 -4.211904 -4.054103 0
M  V30 10 N -0.444103 -1.197619 -0.875473 0
M  V30 11 C -0.711193 -0.697623 0.440721 0
M  V30 12 C -0.052455 0.513653 0.599337 0
M  V30 13 C -0.219525 1.125634 1.845480 0
M  V30 14 C 0.480167 2.412673 2.013404 0
M  V30 15 C 0.671379 3.269059 0.930915 0
M  V30 16 C 1.339453 4.461242 1.163435 0
M  V30 17 C 1.805164 4.796391 2.431399 0
M  V30 18 N 2.478845 6.038545 2.576374 0 CHG=1 VAL=4
M  V30 19 O 3.394970 6.165644 3.427335 0
M  V30 20 O 2.150576 7.132491 1.794156 0 CHG=-1 VAL=1
M  V30 21 C 1.608686 3.930981 3.510892 0
M  V30 22 O 2.117504 4.381348 4.707730 0
M  V30 23 C 1.960974 3.563359 5.851827 0
M  V30 24 C 0.943079 2.748057 3.268855 0
M  V30 25 C -0.976515 0.592069 2.864360 0
M  V30 26 C -1.613847 -0.617082 2.658641 0
M  V30 27 C -1.476406 -1.256577 1.443177 0
M  V30 28 C -2.208669 -2.532210 1.364157 0
M  V30 29 O -3.135794 -2.641045 2.205185 0
M  V30 30 N -2.013369 -3.649420 0.474750 0
M  V30 31 H -0.245077 -8.449192 -2.916144 0
M  V30 32 H -1.831376 -7.662314 -3.003594 0
M  V30 33 H -0.922756 -7.546898 -1.469933 0
M  V30 34 H -1.633385 -5.779461 -0.792125 0
M  V30 35 H 0.751342 -1.990843 -2.823088 0
M  V30 36 H 2.002409 -3.839913 -4.117234 0
M  V30 37 H -0.183436 -0.537712 -1.625251 0
M  V30 38 H 0.534572 0.922878 -0.198279 0
M  V30 39 H 0.299006 2.987520 -0.051912 0
M  V30 40 H 1.503126 5.148831 0.339328 0
M  V30 41 H 0.922783 3.670445 6.214368 0
M  V30 42 H 2.699092 3.870270 6.642241 0
M  V30 43 H 2.223832 2.532103 5.536502 0
M  V30 44 H 0.810547 2.105723 4.127393 0
M  V30 45 H -1.076569 1.096430 3.804095 0
M  V30 46 H -2.230318 -1.102165 3.416812 0
M  V30 47 H -2.532393 -4.528748 0.721871 0
M  V30 END ATOM
M  V30 BEGIN BOND
M  V30 1 1 1 2
M  V30 2 1 2 3
M  V30 3 2 3 4
M  V30 4 1 4 5
M  V30 5 2 5 6
M  V30 6 1 6 7
M  V30 7 2 7 8
M  V30 8 1 8 9
M  V30 9 1 6 10
M  V30 10 1 10 11
M  V30 11 2 11 12
M  V30 12 1 12 13
M  V30 13 1 13 14
M  V30 14 2 14 15
M  V30 15 1 15 16
M  V30 16 2 16 17
M  V30 17 1 17 18
M  V30 18 2 18 19
M  V30 19 1 18 20
M  V30 20 1 17 21
M  V30 21 1 21 22
M  V30 22 1 22 23
M  V30 23 2 21 24
M  V30 24 2 13 25
M  V30 25 1 25 26
M  V30 26 2 26 27
M  V30 27 1 27 28
M  V30 28 2 28 29
M  V30 29 1 28 30
M  V30 30 1 8 3
M  V30 31 1 27 11
M  V30 32 1 30 5
M  V30 33 1 24 14
M  V30 34 1 1 31
M  V30 35 1 1 32
M  V30 36 1 1 33
M  V30 37 1 4 34
M  V30 38 1 7 35
M  V30 39 1 9 36
M  V30 40 1 10 37
M  V30 41 1 12 38
M  V30 42 1 15 39
M  V30 43 1 16 40
M  V30 44 1 23 41
M  V30 45 1 23 42
M  V30 46 1 23 43
M  V30 47 1 24 44
M  V30 48 1 25 45
M  V30 49 1 26 46
M  V30 50 1 30 47
M  V30 END BOND
M  V30 END CTAB
M  END
>  <Dataset>  (450) 
ChEMBL_Kinases

>  <Ligand_Instance>  (450) 
nan

>  <PDB_ID>  (450) 
nan

>  <Standardized_SMILES>  (450) 
COc1cc2c(cc1O)Nc1cc(-c3ccc([N+](=O)[O-])c(OC)c3)ccc1C(=O)N2

>  <Name>  (450) 
nan

>  <Pocket>  (450) 
nan

>  <ATP_Site>  (450) 
nan

>  <Peripheral>  (450) 
nan

>  <Num_H_Atoms_ProtBoundConf>  (450) 
nan

>  <Num_Resolved_Atoms>  (450) 
nan

>  <Num_Not_Resolved_Atoms>  (450) 
nan

$$$$
CHEMBL4101882
     RDKit          3D

  0  0  0  0  0  0  0  0  0  0999 V3000
M  V30 BEGIN CTAB
M  V30 COUNTS 56 59 0 0 0
M  V30 BEGIN ATOM
M  V30 1 C 4.193858 -4.316923 0.579857 0
M  V30 2 N 5.000705 -3.794971 -0.504512 0
M  V30 3 C 5.089291 -2.383234 -0.469853 0
M  V30 4 N 6.123582 -1.896166 0.248158 0
M  V30 5 C 6.278675 -0.564686 0.331574 0
M  V30 6 C 5.373721 0.235298 -0.320302 0
M  V30 7 C 4.305225 -0.213485 -1.063132 0
M  V30 8 C 3.313176 0.625330 -1.778038 0
M  V30 9 C 1.892997 0.180493 -1.568685 0
M  V30 10 O 1.773614 -1.015001 -1.152222 0
M  V30 11 N 0.726450 0.944381 -1.785676 0
M  V30 12 C -0.485187 0.257879 -1.504444 0
M  V30 13 C -1.131248 0.228004 -0.288032 0
M  V30 14 C -2.289627 -0.435781 -0.046830 0
M  V30 15 C -2.885923 -0.396820 1.280306 0
M  V30 16 O -2.267374 0.270024 2.148144 0
M  V30 17 N -4.075805 -1.034472 1.657628 0
M  V30 18 C -4.740961 -1.063294 2.905712 0
M  V30 19 C -5.913997 -1.782749 3.010017 0
M  V30 20 C -6.625971 -1.862821 4.183033 0
M  V30 21 C -6.195534 -1.219091 5.325971 0
M  V30 22 Cl -7.112826 -1.328427 6.816561 0
M  V30 23 C -5.022133 -0.490127 5.250113 0
M  V30 24 C -4.545572 0.210703 6.469444 0
M  V30 25 F -5.461280 1.149538 6.936020 0
M  V30 26 F -4.408513 -0.782170 7.451301 0
M  V30 27 F -3.317376 0.774978 6.314316 0
M  V30 28 C -4.352891 -0.443197 4.060336 0
M  V30 29 C -2.817911 -1.112686 -1.127743 0
M  V30 30 C -2.205096 -1.111830 -2.369846 0
M  V30 31 C -1.024988 -0.426325 -2.584545 0
M  V30 32 C -0.398969 -0.446815 -3.923938 0
M  V30 33 C 3.717756 1.144081 -3.106106 0
M  V30 34 C 3.626613 2.070002 -1.881200 0
M  V30 35 N 4.200939 -1.569378 -1.110317 0
M  V30 36 H 4.560532 -3.979270 1.569740 0
M  V30 37 H 4.138429 -5.424118 0.557358 0
M  V30 38 H 3.144280 -3.940666 0.439965 0
M  V30 39 H 5.457747 -4.403383 -1.221314 0
M  V30 40 H 7.095141 -0.129745 0.897354 0
M  V30 41 H 5.509619 1.304018 -0.244311 0
M  V30 42 H 0.974417 1.920158 -2.129167 0
M  V30 43 H -0.639228 0.782487 0.478529 0
M  V30 44 H -4.495457 -1.554566 0.855957 0
M  V30 45 H -6.306921 -2.314082 2.136706 0
M  V30 46 H -7.531643 -2.438973 4.193533 0
M  V30 47 H -3.462241 0.132714 4.076479 0
M  V30 48 H -3.739222 -1.663670 -1.010958 0
M  V30 49 H -2.679745 -1.668354 -3.177586 0
M  V30 50 H 0.142007 0.475492 -4.160889 0
M  V30 51 H 0.218185 -1.366537 -4.006534 0
M  V30 52 H -1.221376 -0.557029 -4.662399 0
M  V30 53 H 4.733671 0.889696 -3.489271 0
M  V30 54 H 3.017259 1.395092 -3.900793 0
M  V30 55 H 4.581482 2.510736 -1.579947 0
M  V30 56 H 2.789149 2.823877 -1.882678 0
M  V30 END ATOM
M  V30 BEGIN BOND
M  V30 1 1 1 2
M  V30 2 1 2 3
M  V30 3 2 3 4
M  V30 4 1 4 5
M  V30 5 2 5 6
M  V30 6 1 6 7
M  V30 7 1 7 8
M  V30 8 1 8 9
M  V30 9 2 9 10
M  V30 10 1 9 11
M  V30 11 1 11 12
M  V30 12 2 12 13
M  V30 13 1 13 14
M  V30 14 1 14 15
M  V30 15 2 15 16
M  V30 16 1 15 17
M  V30 17 1 17 18
M  V30 18 2 18 19
M  V30 19 1 19 20
M  V30 20 2 20 21
M  V30 21 1 21 22
M  V30 22 1 21 23
M  V30 23 1 23 24
M  V30 24 1 24 25
M  V30 25 1 24 26
M  V30 26 1 24 27
M  V30 27 2 23 28
M  V30 28 2 14 29
M  V30 29 1 29 30
M  V30 30 2 30 31
M  V30 31 1 31 32
M  V30 32 1 8 33
M  V30 33 1 33 34
M  V30 34 2 7 35
M  V30 35 1 35 3
M  V30 36 1 34 8
M  V30 37 1 31 12
M  V30 38 1 28 18
M  V30 39 1 1 36
M  V30 40 1 1 37
M  V30 41 1 1 38
M  V30 42 1 2 39
M  V30 43 1 5 40
M  V30 44 1 6 41
M  V30 45 1 11 42
M  V30 46 1 13 43
M  V30 47 1 17 44
M  V30 48 1 19 45
M  V30 49 1 20 46
M  V30 50 1 28 47
M  V30 51 1 29 48
M  V30 52 1 30 49
M  V30 53 1 32 50
M  V30 54 1 32 51
M  V30 55 1 32 52
M  V30 56 1 33 53
M  V30 57 1 33 54
M  V30 58 1 34 55
M  V30 59 1 34 56
M  V30 END BOND
M  V30 END CTAB
M  END
>  <Dataset>  (451) 
ChEMBL_Kinases

>  <Ligand_Instance>  (451) 
nan

>  <PDB_ID>  (451) 
nan

>  <Standardized_SMILES>  (451) 
CNc1nccc(C2(C(=O)Nc3cc(C(=O)Nc4ccc(Cl)c(C(F)(F)F)c4)ccc3C)CC2)n1

>  <Name>  (451) 
nan

>  <Pocket>  (451) 
nan

>  <ATP_Site>  (451) 
nan

>  <Peripheral>  (451) 
nan

>  <Num_H_Atoms_ProtBoundConf>  (451) 
nan

>  <Num_Resolved_Atoms>  (451) 
nan

>  <Num_Not_Resolved_Atoms>  (451) 
nan

$$$$
CHEMBL4101797
     RDKit          3D

  0  0  0  0  0  0  0  0  0  0999 V3000
M  V30 BEGIN CTAB
M  V30 COUNTS 43 44 0 0 0
M  V30 BEGIN ATOM
M  V30 1 C -1.739027 -1.674158 -2.043882 0
M  V30 2 C -0.511400 -2.109436 -1.323762 0
M  V30 3 N 0.528922 -1.146499 -1.258541 0
M  V30 4 C 1.523362 -1.055641 -2.196371 0
M  V30 5 C 2.571609 -0.195563 -2.217734 0
M  V30 6 C 3.595474 -0.142849 -3.225974 0
M  V30 7 O 4.545556 0.677166 -3.195356 0
M  V30 8 O 3.946027 -0.782958 -4.400116 0
M  V30 9 C 2.685056 0.702022 -1.208366 0
M  V30 10 O 3.604563 1.523785 -1.142710 0
M  V30 11 C 1.699793 0.662167 -0.228476 0
M  V30 12 C 1.773948 1.531165 0.828293 0
M  V30 13 C 0.838479 1.551325 1.879662 0
M  V30 14 F 1.138427 2.511307 2.819995 0
M  V30 15 C -0.229097 0.612612 1.823325 0
M  V30 16 N -0.951679 0.909075 3.008709 0
M  V30 17 C -0.789315 0.336858 4.351498 0
M  V30 18 C 0.539131 -0.326491 4.549785 0
M  V30 19 C 0.758391 -1.477424 3.650397 0
M  V30 20 O -0.128599 -2.271147 3.240714 0
M  V30 21 O 2.051291 -1.796479 3.159390 0
M  V30 22 C -1.929250 -0.527938 4.604286 0
M  V30 23 O -2.941259 -0.725890 3.888887 0
M  V30 24 O -1.799821 -1.190310 5.835920 0
M  V30 25 C -0.198826 -0.201458 0.724632 0
M  V30 26 N -1.347411 -0.957595 0.854008 0 CHG=1 VAL=4
M  V30 27 O -2.345630 -1.664393 1.068170 0
M  V30 28 O -2.458737 -1.767122 1.010922 0 CHG=-1 VAL=1
M  V30 29 C 0.682910 -0.246197 -0.293898 0
M  V30 30 H -2.082801 -0.661189 -1.751822 0
M  V30 31 H -1.649488 -1.636373 -3.175048 0
M  V30 32 H -2.540762 -2.448885 -1.846785 0
M  V30 33 H -0.072552 -2.873318 -2.086026 0
M  V30 34 H -0.620177 -2.842266 -0.512079 0
M  V30 35 H 1.492088 -1.765418 -3.034948 0
M  V30 36 H 4.671319 -1.492836 -4.456219 0
M  V30 37 H 2.618096 2.220243 0.805981 0
M  V30 38 H -1.712137 1.634160 2.967048 0
M  V30 39 H -0.803251 1.198852 5.063249 0
M  V30 40 H 1.407725 0.336888 4.518576 0
M  V30 41 H 0.524520 -0.770168 5.591025 0
M  V30 42 H 2.126746 -2.149034 2.204304 0
M  V30 43 H -2.497249 -1.887971 6.038129 0
M  V30 END ATOM
M  V30 BEGIN BOND
M  V30 1 1 1 2
M  V30 2 1 2 3
M  V30 3 1 3 4
M  V30 4 2 4 5
M  V30 5 1 5 6
M  V30 6 2 6 7
M  V30 7 1 6 8
M  V30 8 1 5 9
M  V30 9 2 9 10
M  V30 10 1 9 11
M  V30 11 2 11 12
M  V30 12 1 12 13
M  V30 13 1 13 14
M  V30 14 2 13 15
M  V30 15 1 15 16
M  V30 16 1 16 17
M  V30 17 1 17 18
M  V30 18 1 18 19
M  V30 19 2 19 20
M  V30 20 1 19 21
M  V30 21 1 17 22
M  V30 22 2 22 23
M  V30 23 1 22 24
M  V30 24 1 15 25
M  V30 25 1 25 26
M  V30 26 2 26 27
M  V30 27 1 26 28
M  V30 28 2 25 29
M  V30 29 1 29 3
M  V30 30 1 29 11
M  V30 31 1 1 30
M  V30 32 1 1 31
M  V30 33 1 1 32
M  V30 34 1 2 33
M  V30 35 1 2 34
M  V30 36 1 4 35
M  V30 37 1 8 36
M  V30 38 1 12 37
M  V30 39 1 16 38
M  V30 40 1 17 39
M  V30 41 1 18 40
M  V30 42 1 18 41
M  V30 43 1 21 42
M  V30 44 1 24 43
M  V30 END BOND
M  V30 END CTAB
M  END
>  <Dataset>  (452) 
ChEMBL_Kinases

>  <Ligand_Instance>  (452) 
nan

>  <PDB_ID>  (452) 
nan

>  <Standardized_SMILES>  (452) 
CCn1cc(C(=O)O)c(=O)c2cc(F)c(NC(CC(=O)O)C(=O)O)c([N+](=O)[O-])c21

>  <Name>  (452) 
nan

>  <Pocket>  (452) 
nan

>  <ATP_Site>  (452) 
nan

>  <Peripheral>  (452) 
nan

>  <Num_H_Atoms_ProtBoundConf>  (452) 
nan

>  <Num_Resolved_Atoms>  (452) 
nan

>  <Num_Not_Resolved_Atoms>  (452) 
nan

$$$$
CHEMBL4799769
     RDKit          3D

  0  0  0  0  0  0  0  0  0  0999 V3000
M  V30 BEGIN CTAB
M  V30 COUNTS 64 68 0 0 0
M  V30 BEGIN ATOM
M  V30 1 C 1.337363 1.967525 6.837565 0
M  V30 2 O 0.350947 1.048759 7.295028 0
M  V30 3 C -0.016680 0.051129 6.398812 0
M  V30 4 C 0.471913 -0.138496 5.123306 0
M  V30 5 C -0.013120 -1.193860 4.367518 0
M  V30 6 C 0.527950 -1.369722 3.004918 0
M  V30 7 C 0.876260 -0.173919 2.376021 0
M  V30 8 N 1.383392 -0.255846 1.139570 0
M  V30 9 C 1.589813 -1.380077 0.444620 0
M  V30 10 C 2.105228 -1.507207 -0.793838 0
M  V30 11 N 2.516590 -0.423107 -1.655914 0
M  V30 12 C 3.649761 0.475244 -1.737446 0
M  V30 13 C 3.177629 1.771805 -2.358002 0
M  V30 14 C 1.789064 2.181368 -1.959889 0
M  V30 15 C 0.811718 1.088427 -2.247475 0
M  V30 16 C -0.338651 1.494634 -3.137956 0
M  V30 17 N -1.197758 0.357188 -3.362861 0
M  V30 18 C -1.895367 -0.388603 -2.371279 0
M  V30 19 O -1.783269 -0.071421 -1.162025 0
M  V30 20 N -2.687439 -1.467902 -2.839803 0
M  V30 21 C -2.848169 -1.825448 -4.254126 0
M  V30 22 C -3.695345 -3.058975 -4.349590 0
M  V30 23 O -3.190904 -4.120442 -3.610623 0
M  V30 24 C -2.967925 -3.781714 -2.279937 0
M  V30 25 C -3.440323 -2.370192 -1.980039 0
M  V30 26 C 1.556462 -0.129764 -2.734783 0
M  V30 27 S 2.165447 -3.189674 -1.205853 0
M  V30 28 N 1.436838 -3.759193 0.422862 0
M  V30 29 C 1.249019 -2.569463 1.057446 0
M  V30 30 C 0.720156 -2.554676 2.332823 0
M  V30 31 C -0.965915 -2.094206 4.789648 0
M  V30 32 C -1.476915 -1.923583 6.076769 0
M  V30 33 C -0.968695 -0.862179 6.796563 0
M  V30 34 N -1.523238 -0.742869 8.094449 0
M  V30 35 H 1.639538 2.700920 7.604765 0
M  V30 36 H 0.933302 2.527439 5.965656 0
M  V30 37 H 2.228087 1.401367 6.441160 0
M  V30 38 H 1.220550 0.566013 4.789506 0
M  V30 39 H 0.769039 0.823811 2.813404 0
M  V30 40 H 4.492827 0.087504 -2.324186 0
M  V30 41 H 3.990290 0.781075 -0.710418 0
M  V30 42 H 3.270399 1.682023 -3.465871 0
M  V30 43 H 3.862856 2.614400 -2.061605 0
M  V30 44 H 1.529690 3.053026 -2.625727 0
M  V30 45 H 1.747202 2.559025 -0.907858 0
M  V30 46 H 0.330476 0.853323 -1.239270 0
M  V30 47 H -0.032031 1.986142 -4.070701 0
M  V30 48 H -0.988956 2.253667 -2.601367 0
M  V30 49 H -1.302456 0.072266 -4.362330 0
M  V30 50 H -1.875247 -1.970375 -4.754692 0
M  V30 51 H -3.465461 -1.013379 -4.755604 0
M  V30 52 H -4.749407 -2.818409 -4.134828 0
M  V30 53 H -3.669071 -3.389763 -5.429703 0
M  V30 54 H -3.562357 -4.471211 -1.643224 0
M  V30 55 H -1.905595 -3.948705 -2.055572 0
M  V30 56 H -4.527169 -2.338816 -2.164405 0
M  V30 57 H -3.270411 -2.175851 -0.924784 0
M  V30 58 H 2.047956 0.115954 -3.686460 0
M  V30 59 H 0.879015 -0.990773 -2.924429 0
M  V30 60 H 0.413060 -3.392542 2.919341 0
M  V30 61 H -1.286267 -2.883964 4.135115 0
M  V30 62 H -2.220805 -2.600682 6.449053 0
M  V30 63 H -2.179427 0.081989 8.259737 0
M  V30 64 H -1.814997 -0.834391 9.082536 0
M  V30 END ATOM
M  V30 BEGIN BOND
M  V30 1 1 1 2
M  V30 2 1 2 3
M  V30 3 2 3 4
M  V30 4 1 4 5
M  V30 5 1 5 6
M  V30 6 1 6 7
M  V30 7 2 7 8
M  V30 8 1 8 9
M  V30 9 2 9 10
M  V30 10 1 10 11
M  V30 11 1 11 12
M  V30 12 1 12 13
M  V30 13 1 13 14
M  V30 14 1 14 15
M  V30 15 1 15 16
M  V30 16 1 16 17
M  V30 17 1 17 18
M  V30 18 2 18 19
M  V30 19 1 18 20
M  V30 20 1 20 21
M  V30 21 1 21 22
M  V30 22 1 22 23
M  V30 23 1 23 24
M  V30 24 1 24 25
M  V30 25 1 15 26
M  V30 26 1 10 27
M  V30 27 1 27 28
M  V30 28 2 28 29
M  V30 29 1 29 30
M  V30 30 2 5 31
M  V30 31 1 31 32
M  V30 32 2 32 33
M  V30 33 1 33 34
M  V30 34 1 33 3
M  V30 35 2 30 6
M  V30 36 1 29 9
M  V30 37 1 26 11
M  V30 38 1 25 20
M  V30 39 1 1 35
M  V30 40 1 1 36
M  V30 41 1 1 37
M  V30 42 1 4 38
M  V30 43 1 7 39
M  V30 44 1 12 40
M  V30 45 1 12 41
M  V30 46 1 13 42
M  V30 47 1 13 43
M  V30 48 1 14 44
M  V30 49 1 14 45
M  V30 50 1 15 46
M  V30 51 1 16 47
M  V30 52 1 16 48
M  V30 53 1 17 49
M  V30 54 1 21 50
M  V30 55 1 21 51
M  V30 56 1 22 52
M  V30 57 1 22 53
M  V30 58 1 24 54
M  V30 59 1 24 55
M  V30 60 1 25 56
M  V30 61 1 25 57
M  V30 62 1 26 58
M  V30 63 1 26 59
M  V30 64 1 30 60
M  V30 65 1 31 61
M  V30 66 1 32 62
M  V30 67 1 34 63
M  V30 68 1 34 64
M  V30 END BOND
M  V30 END CTAB
M  END
>  <Dataset>  (453) 
ChEMBL_Kinases

>  <Ligand_Instance>  (453) 
nan

>  <PDB_ID>  (453) 
nan

>  <Standardized_SMILES>  (453) 
COc1cc(-c2cnc3c(N4CCCC(CNC(=O)N5CCOCC5)C4)snc3c2)ccc1N

>  <Name>  (453) 
nan

>  <Pocket>  (453) 
nan

>  <ATP_Site>  (453) 
nan

>  <Peripheral>  (453) 
nan

>  <Num_H_Atoms_ProtBoundConf>  (453) 
nan

>  <Num_Resolved_Atoms>  (453) 
nan

>  <Num_Not_Resolved_Atoms>  (453) 
nan

$$$$
CHEMBL4101719
     RDKit          3D

  0  0  0  0  0  0  0  0  0  0999 V3000
M  V30 BEGIN CTAB
M  V30 COUNTS 52 56 0 0 0
M  V30 BEGIN ATOM
M  V30 1 O 2.407784 -0.627304 6.049579 0
M  V30 2 C 1.620665 -1.552662 5.357703 0
M  V30 3 C 2.454275 -2.322856 4.368159 0
M  V30 4 C 3.088145 -1.392545 3.366976 0
M  V30 5 C 2.149437 -0.662756 2.514642 0
M  V30 6 N 2.777795 0.191243 1.649970 0
M  V30 7 C 1.862861 0.812116 0.889945 0
M  V30 8 C 2.112744 1.812355 -0.168695 0
M  V30 9 C 2.731176 2.949881 0.320370 0
M  V30 10 C 3.035605 3.986799 -0.548774 0
M  V30 11 C 2.704606 3.842968 -1.892833 0
M  V30 12 F 2.995448 4.854658 -2.771487 0
M  V30 13 C 2.083791 2.700226 -2.382254 0
M  V30 14 C 1.788692 1.679459 -1.502873 0
M  V30 15 C 0.604275 0.375665 1.241410 0
M  V30 16 C -0.688585 0.730231 0.732970 0
M  V30 17 C -1.209299 2.001899 0.823451 0
M  V30 18 C -2.451046 2.331548 0.330794 0
M  V30 19 N -3.229537 1.413034 -0.272942 0
M  V30 20 C -2.754725 0.137831 -0.385720 0
M  V30 21 N -3.340691 -0.936453 -0.940488 0
M  V30 22 C -2.509691 -1.974706 -0.825106 0
M  V30 23 C -2.814777 -3.308734 -1.316631 0
M  V30 24 C -4.011092 -3.550594 -1.937061 0
M  V30 25 C -4.361347 -4.794600 -2.425707 0
M  V30 26 C -3.455413 -5.844742 -2.278607 0
M  V30 27 C -2.234825 -5.637701 -1.655959 0
M  V30 28 C -1.947843 -4.372430 -1.191227 0
M  V30 29 C -1.368440 -1.545283 -0.180425 0
M  V30 30 C -1.500908 -0.203741 0.109396 0
M  V30 31 N 0.853304 -0.500141 2.213123 0
M  V30 32 H 2.050313 -0.399452 6.943103 0
M  V30 33 H 0.712813 -1.132451 4.952719 0
M  V30 34 H 1.267186 -2.329189 6.108864 0
M  V30 35 H 1.849660 -3.115141 3.869573 0
M  V30 36 H 3.257726 -2.896770 4.910283 0
M  V30 37 H 3.713067 -0.638544 3.941161 0
M  V30 38 H 3.816286 -1.963713 2.724321 0
M  V30 39 H 3.010850 3.116447 1.351971 0
M  V30 40 H 3.521523 4.889840 -0.184891 0
M  V30 41 H 1.815198 2.559072 -3.416658 0
M  V30 42 H 1.300873 0.729277 -1.764843 0
M  V30 43 H -0.634314 2.805324 1.302021 0
M  V30 44 H -2.816957 3.343303 0.425133 0
M  V30 45 H -4.296647 -0.936159 -1.386149 0
M  V30 46 H -4.765520 -2.811124 -2.094737 0
M  V30 47 H -5.310370 -5.006506 -2.922655 0
M  V30 48 H -3.681341 -6.849616 -2.646665 0
M  V30 49 H -1.502809 -6.422279 -1.520142 0
M  V30 50 H -0.986877 -4.220108 -0.703763 0
M  V30 51 H -0.508030 -2.145938 0.063312 0
M  V30 52 H 0.159323 -1.065481 2.740035 0
M  V30 END ATOM
M  V30 BEGIN BOND
M  V30 1 1 1 2
M  V30 2 1 2 3
M  V30 3 1 3 4
M  V30 4 1 4 5
M  V30 5 2 5 6
M  V30 6 1 6 7
M  V30 7 1 7 8
M  V30 8 2 8 9
M  V30 9 1 9 10
M  V30 10 2 10 11
M  V30 11 1 11 12
M  V30 12 1 11 13
M  V30 13 2 13 14
M  V30 14 2 7 15
M  V30 15 1 15 16
M  V30 16 2 16 17
M  V30 17 1 17 18
M  V30 18 2 18 19
M  V30 19 1 19 20
M  V30 20 1 20 21
M  V30 21 1 21 22
M  V30 22 1 22 23
M  V30 23 2 23 24
M  V30 24 1 24 25
M  V30 25 2 25 26
M  V30 26 1 26 27
M  V30 27 2 27 28
M  V30 28 2 22 29
M  V30 29 1 29 30
M  V30 30 1 15 31
M  V30 31 1 31 5
M  V30 32 1 14 8
M  V30 33 1 30 16
M  V30 34 2 30 20
M  V30 35 1 28 23
M  V30 36 1 1 32
M  V30 37 1 2 33
M  V30 38 1 2 34
M  V30 39 1 3 35
M  V30 40 1 3 36
M  V30 41 1 4 37
M  V30 42 1 4 38
M  V30 43 1 9 39
M  V30 44 1 10 40
M  V30 45 1 13 41
M  V30 46 1 14 42
M  V30 47 1 17 43
M  V30 48 1 18 44
M  V30 49 1 21 45
M  V30 50 1 24 46
M  V30 51 1 25 47
M  V30 52 1 26 48
M  V30 53 1 27 49
M  V30 54 1 28 50
M  V30 55 1 29 51
M  V30 56 1 31 52
M  V30 END BOND
M  V30 END CTAB
M  END
>  <Dataset>  (454) 
ChEMBL_Kinases

>  <Ligand_Instance>  (454) 
nan

>  <PDB_ID>  (454) 
nan

>  <Standardized_SMILES>  (454) 
OCCCc1nc(-c2ccc(F)cc2)c(-c2ccnc3[nH]c(-c4ccccc4)cc23)[nH]1

>  <Name>  (454) 
nan

>  <Pocket>  (454) 
nan

>  <ATP_Site>  (454) 
nan

>  <Peripheral>  (454) 
nan

>  <Num_H_Atoms_ProtBoundConf>  (454) 
nan

>  <Num_Resolved_Atoms>  (454) 
nan

>  <Num_Not_Resolved_Atoms>  (454) 
nan

$$$$
CHEMBL4101643
     RDKit          3D

  0  0  0  0  0  0  0  0  0  0999 V3000
M  V30 BEGIN CTAB
M  V30 COUNTS 58 62 0 0 0
M  V30 BEGIN ATOM
M  V30 1 N 6.431549 0.457117 5.619551 0
M  V30 2 C 6.640623 -0.325584 4.457750 0
M  V30 3 O 7.608236 -1.096030 4.382269 0
M  V30 4 C 5.704251 -0.226073 3.329838 0
M  V30 5 C 5.985423 -1.031607 2.229591 0
M  V30 6 C 5.121752 -0.966835 1.139085 0
M  V30 7 C 4.036856 -0.118855 1.191517 0
M  V30 8 C 3.780157 0.671138 2.297272 0
M  V30 9 C 4.616544 0.631523 3.396153 0
M  V30 10 C 2.696310 1.621603 2.543856 0
M  V30 11 O 2.789003 2.428199 3.504877 0
M  V30 12 C 1.480400 1.709492 1.738241 0
M  V30 13 C 0.694667 2.797094 2.055490 0
M  V30 14 C -0.494506 3.073242 1.422234 0
M  V30 15 C -0.958422 2.246246 0.415544 0
M  V30 16 N -2.170295 2.506764 -0.272057 0
M  V30 17 C -3.069764 1.696317 -1.009841 0
M  V30 18 C -3.910526 2.253764 -1.949445 0
M  V30 19 C -4.790754 1.463445 -2.649817 0
M  V30 20 C -4.872760 0.102929 -2.449604 0
M  V30 21 F -5.760025 -0.632073 -3.168843 0
M  V30 22 C -4.052331 -0.500013 -1.520143 0
M  V30 23 N -4.115714 -1.901991 -1.293877 0
M  V30 24 C -3.403574 -2.937717 -1.915022 0
M  V30 25 O -2.582115 -2.570701 -2.810057 0
M  V30 26 C -3.605160 -4.332984 -1.546198 0
M  V30 27 C -4.486990 -4.762274 -0.578883 0
M  V30 28 C -4.650195 -6.097731 -0.257384 0
M  V30 29 C -3.887203 -7.025008 -0.947018 0
M  V30 30 C -2.989326 -6.613758 -1.928953 0
M  V30 31 C -2.842489 -5.277443 -2.233513 0
M  V30 32 C -3.172790 0.339324 -0.830235 0
M  V30 33 C -0.173832 1.180572 0.114528 0
M  V30 34 C 1.025227 0.876816 0.732719 0
M  V30 35 C 1.731950 -0.334481 0.256116 0
M  V30 36 C 3.190245 -0.135012 -0.024133 0
M  V30 37 H 6.715165 1.401731 5.996232 0
M  V30 38 H 5.831875 -0.244647 6.083869 0
M  V30 39 H 6.826177 -1.691180 2.184581 0
M  V30 40 H 5.278273 -1.563777 0.251099 0
M  V30 41 H 4.433003 1.242841 4.272635 0
M  V30 42 H 1.016514 3.481398 2.843877 0
M  V30 43 H -1.102989 3.935564 1.684471 0
M  V30 44 H -2.457886 3.532096 -0.217060 0
M  V30 45 H -3.855711 3.321431 -2.115927 0
M  V30 46 H -5.426034 1.983944 -3.380404 0
M  V30 47 H -4.820399 -2.068838 -0.543548 0
M  V30 48 H -5.074216 -4.030322 -0.050214 0
M  V30 49 H -5.355805 -6.382187 0.509850 0
M  V30 50 H -3.995872 -8.079505 -0.714534 0
M  V30 51 H -2.430596 -7.400472 -2.421481 0
M  V30 52 H -2.118485 -5.044611 -3.014111 0
M  V30 53 H -2.571722 -0.199412 -0.113146 0
M  V30 54 H -0.396898 0.451388 -0.655859 0
M  V30 55 H 1.267191 -0.571975 -0.742252 0
M  V30 56 H 1.596438 -1.222926 0.875130 0
M  V30 57 H 3.339994 0.844751 -0.547188 0
M  V30 58 H 3.502169 -0.902557 -0.740361 0
M  V30 END ATOM
M  V30 BEGIN BOND
M  V30 1 1 1 2
M  V30 2 2 2 3
M  V30 3 1 2 4
M  V30 4 2 4 5
M  V30 5 1 5 6
M  V30 6 2 6 7
M  V30 7 1 7 8
M  V30 8 2 8 9
M  V30 9 1 8 10
M  V30 10 2 10 11
M  V30 11 1 10 12
M  V30 12 2 12 13
M  V30 13 1 13 14
M  V30 14 2 14 15
M  V30 15 1 15 16
M  V30 16 1 16 17
M  V30 17 2 17 18
M  V30 18 1 18 19
M  V30 19 2 19 20
M  V30 20 1 20 21
M  V30 21 1 20 22
M  V30 22 1 22 23
M  V30 23 1 23 24
M  V30 24 2 24 25
M  V30 25 1 24 26
M  V30 26 2 26 27
M  V30 27 1 27 28
M  V30 28 2 28 29
M  V30 29 1 29 30
M  V30 30 2 30 31
M  V30 31 2 22 32
M  V30 32 1 15 33
M  V30 33 2 33 34
M  V30 34 1 34 35
M  V30 35 1 35 36
M  V30 36 1 9 4
M  V30 37 1 34 12
M  V30 38 1 36 7
M  V30 39 1 32 17
M  V30 40 1 31 26
M  V30 41 1 1 37
M  V30 42 1 1 38
M  V30 43 1 5 39
M  V30 44 1 6 40
M  V30 45 1 9 41
M  V30 46 1 13 42
M  V30 47 1 14 43
M  V30 48 1 16 44
M  V30 49 1 18 45
M  V30 50 1 19 46
M  V30 51 1 23 47
M  V30 52 1 27 48
M  V30 53 1 28 49
M  V30 54 1 29 50
M  V30 55 1 30 51
M  V30 56 1 31 52
M  V30 57 1 32 53
M  V30 58 1 33 54
M  V30 59 1 35 55
M  V30 60 1 35 56
M  V30 61 1 36 57
M  V30 62 1 36 58
M  V30 END BOND
M  V30 END CTAB
M  END
>  <Dataset>  (455) 
ChEMBL_Kinases

>  <Ligand_Instance>  (455) 
nan

>  <PDB_ID>  (455) 
nan

>  <Standardized_SMILES>  (455) 
NC(=O)c1ccc2c(c1)C(=O)c1ccc(Nc3ccc(F)c(NC(=O)c4ccccc4)c3)cc1CC2

>  <Name>  (455) 
nan

>  <Pocket>  (455) 
nan

>  <ATP_Site>  (455) 
nan

>  <Peripheral>  (455) 
nan

>  <Num_H_Atoms_ProtBoundConf>  (455) 
nan

>  <Num_Resolved_Atoms>  (455) 
nan

>  <Num_Not_Resolved_Atoms>  (455) 
nan

$$$$
CHEMBL4799236
     RDKit          3D

  0  0  0  0  0  0  0  0  0  0999 V3000
M  V30 BEGIN CTAB
M  V30 COUNTS 52 56 0 0 0
M  V30 BEGIN ATOM
M  V30 1 C 3.401196 -4.919002 5.079298 0
M  V30 2 N 2.785742 -4.482125 3.842285 0
M  V30 3 C 3.120609 -3.395850 3.119846 0
M  V30 4 C 2.302352 -3.314472 2.016618 0
M  V30 5 C 2.182641 -2.380019 0.896039 0
M  V30 6 C 2.482609 -1.048244 1.095316 0
M  V30 7 C 2.333585 -0.222546 0.002250 0
M  V30 8 C 1.917492 -0.593829 -1.260061 0
M  V30 9 C 1.778741 0.304891 -2.316887 0
M  V30 10 N 2.132268 1.624398 -1.950702 0
M  V30 11 C 1.206617 2.369710 -1.143724 0
M  V30 12 C 1.503841 3.669110 -0.729836 0
M  V30 13 C 0.584999 4.329640 0.064345 0
M  V30 14 C -0.604192 3.736528 0.449724 0
M  V30 15 C -0.926554 2.435833 0.048185 0
M  V30 16 C -2.179496 1.826289 0.472934 0
M  V30 17 O -2.850395 2.522756 1.274741 0
M  V30 18 N -2.529829 0.549413 -0.029531 0
M  V30 19 C -3.763386 -0.038837 0.401555 0
M  V30 20 C -5.008850 0.122628 -0.157191 0
M  V30 21 C -6.104818 -0.528159 0.380867 0
M  V30 22 C -5.897854 -1.341261 1.495048 0
M  V30 23 F -7.026182 -1.958411 1.980616 0
M  V30 24 C -4.648840 -1.517760 2.074644 0
M  V30 25 C -3.566182 -0.852227 1.513736 0
M  V30 26 C 0.014127 1.813634 -0.740654 0
M  V30 27 N 1.354354 -0.179517 -3.490321 0
M  V30 28 C 1.073363 -1.483059 -3.641653 0
M  V30 29 N 1.205618 -2.348376 -2.629482 0
M  V30 30 C 1.630098 -1.946433 -1.401386 0
M  V30 31 C 1.762202 -2.811455 -0.343739 0
M  V30 32 C 1.447853 -4.417992 2.109234 0
M  V30 33 N 1.766881 -5.109391 3.231002 0
M  V30 34 H 4.443698 -5.227943 4.875873 0
M  V30 35 H 2.884711 -5.825054 5.464696 0
M  V30 36 H 3.392374 -4.117440 5.848143 0
M  V30 37 H 3.876070 -2.668080 3.297728 0
M  V30 38 H 2.817832 -0.655635 2.054656 0
M  V30 39 H 2.580921 0.827614 0.192206 0
M  V30 40 H 3.021080 2.014949 -2.263752 0
M  V30 41 H 2.443315 4.088645 -1.055426 0
M  V30 42 H 0.799768 5.334582 0.393538 0
M  V30 43 H -1.263599 4.314222 1.067162 0
M  V30 44 H -1.978779 -0.008546 -0.684113 0
M  V30 45 H -5.039924 0.789460 -1.030154 0
M  V30 46 H -7.066561 -0.381005 -0.077664 0
M  V30 47 H -4.544426 -2.162893 2.941062 0
M  V30 48 H -2.613704 -1.030955 2.012031 0
M  V30 49 H -0.169613 0.826128 -1.079553 0
M  V30 50 H 0.732996 -1.858572 -4.594218 0
M  V30 51 H 1.524622 -3.851365 -0.516486 0
M  V30 52 H 0.642951 -4.720520 1.424846 0
M  V30 END ATOM
M  V30 BEGIN BOND
M  V30 1 1 1 2
M  V30 2 1 2 3
M  V30 3 2 3 4
M  V30 4 1 4 5
M  V30 5 2 5 6
M  V30 6 1 6 7
M  V30 7 2 7 8
M  V30 8 1 8 9
M  V30 9 1 9 10
M  V30 10 1 10 11
M  V30 11 2 11 12
M  V30 12 1 12 13
M  V30 13 2 13 14
M  V30 14 1 14 15
M  V30 15 1 15 16
M  V30 16 2 16 17
M  V30 17 1 16 18
M  V30 18 1 18 19
M  V30 19 2 19 20
M  V30 20 1 20 21
M  V30 21 2 21 22
M  V30 22 1 22 23
M  V30 23 1 22 24
M  V30 24 2 24 25
M  V30 25 2 15 26
M  V30 26 2 9 27
M  V30 27 1 27 28
M  V30 28 2 28 29
M  V30 29 1 29 30
M  V30 30 2 30 31
M  V30 31 1 4 32
M  V30 32 2 32 33
M  V30 33 1 33 2
M  V30 34 1 31 5
M  V30 35 1 30 8
M  V30 36 1 26 11
M  V30 37 1 25 19
M  V30 38 1 1 34
M  V30 39 1 1 35
M  V30 40 1 1 36
M  V30 41 1 3 37
M  V30 42 1 6 38
M  V30 43 1 7 39
M  V30 44 1 10 40
M  V30 45 1 12 41
M  V30 46 1 13 42
M  V30 47 1 14 43
M  V30 48 1 18 44
M  V30 49 1 20 45
M  V30 50 1 21 46
M  V30 51 1 24 47
M  V30 52 1 25 48
M  V30 53 1 26 49
M  V30 54 1 28 50
M  V30 55 1 31 51
M  V30 56 1 32 52
M  V30 END BOND
M  V30 END CTAB
M  END
>  <Dataset>  (456) 
ChEMBL_Kinases

>  <Ligand_Instance>  (456) 
nan

>  <PDB_ID>  (456) 
nan

>  <Standardized_SMILES>  (456) 
Cn1cc(-c2ccc3c(Nc4cccc(C(=O)Nc5ccc(F)cc5)c4)ncnc3c2)cn1

>  <Name>  (456) 
nan

>  <Pocket>  (456) 
nan

>  <ATP_Site>  (456) 
nan

>  <Peripheral>  (456) 
nan

>  <Num_H_Atoms_ProtBoundConf>  (456) 
nan

>  <Num_Resolved_Atoms>  (456) 
nan

>  <Num_Not_Resolved_Atoms>  (456) 
nan

$$$$
CHEMBL4101552
     RDKit          3D

  0  0  0  0  0  0  0  0  0  0999 V3000
M  V30 BEGIN CTAB
M  V30 COUNTS 65 69 0 0 0
M  V30 BEGIN ATOM
M  V30 1 O 2.565835 -4.502012 1.522389 0
M  V30 2 C 2.385329 -3.275543 1.725521 0
M  V30 3 C 2.898734 -2.524771 2.864338 0
M  V30 4 C 2.752428 -1.241491 3.142691 0
M  V30 5 C 3.300689 -0.574816 4.304705 0
M  V30 6 C 4.030537 -1.221506 5.265817 0
M  V30 7 N 4.527910 -0.562110 6.351525 0
M  V30 8 C 4.323801 0.752540 6.526801 0
M  V30 9 C 3.591254 1.407446 5.564037 0
M  V30 10 C 3.060560 0.776697 4.433463 0
M  V30 11 C 2.323107 1.625704 3.509308 0
M  V30 12 C 2.311188 1.846972 2.148057 0
M  V30 13 N 1.386169 2.770559 1.834372 0
M  V30 14 N 0.788138 3.163647 2.955726 0
M  V30 15 C -0.261050 4.163719 2.908636 0
M  V30 16 C -1.553649 3.429775 2.735368 0
M  V30 17 C -2.386059 2.956413 3.709158 0
M  V30 18 C -3.541754 2.300305 3.412465 0
M  V30 19 C -3.946778 2.071254 2.109104 0
M  V30 20 C -3.092588 2.556992 1.116552 0
M  V30 21 C -1.932119 3.215771 1.408928 0
M  V30 22 C 1.332438 2.488709 3.992644 0
M  V30 23 N 1.617795 -2.598717 0.751694 0
M  V30 24 C 0.958633 -2.942748 -0.460747 0
M  V30 25 C -0.364411 -3.351888 -0.351363 0
M  V30 26 C -1.111221 -3.712140 -1.465229 0
M  V30 27 C -0.512370 -3.658427 -2.710045 0
M  V30 28 C -1.181799 -4.010712 -3.988790 0
M  V30 29 N -1.816492 -2.842952 -4.576253 0
M  V30 30 C -2.815798 -2.256198 -3.724755 0
M  V30 31 C -3.214261 -0.913701 -4.300379 0
M  V30 32 O -3.417261 -1.001224 -5.670432 0
M  V30 33 C -3.656971 -2.328261 -6.014839 0
M  V30 34 C -2.432876 -3.189734 -5.831406 0
M  V30 35 C 0.814399 -3.246390 -2.803760 0
M  V30 36 C 1.563849 -2.886484 -1.700904 0
M  V30 37 H 3.471364 -3.132565 3.552328 0
M  V30 38 H 2.163489 -0.727985 2.398191 0
M  V30 39 H 4.241566 -2.260778 5.210112 0
M  V30 40 H 4.713758 1.302806 7.391744 0
M  V30 41 H 3.434008 2.462944 5.716106 0
M  V30 42 H 2.989299 1.308756 1.511667 0
M  V30 43 H -0.255224 4.646467 3.910801 0
M  V30 44 H -0.113535 4.872139 2.093040 0
M  V30 45 H -2.043177 3.150343 4.716924 0
M  V30 46 H -4.176058 1.939574 4.219350 0
M  V30 47 H -4.853825 1.556381 1.822806 0
M  V30 48 H -3.381233 2.393825 0.068719 0
M  V30 49 H -1.339587 3.552958 0.568474 0
M  V30 50 H 0.971474 2.673257 5.013894 0
M  V30 51 H 1.364219 -1.587711 0.750149 0
M  V30 52 H -0.929139 -3.429644 0.576491 0
M  V30 53 H -2.148281 -4.037294 -1.416413 0
M  V30 54 H -1.957164 -4.767863 -3.749108 0
M  V30 55 H -0.436942 -4.383396 -4.713894 0
M  V30 56 H -3.689759 -2.927806 -3.552792 0
M  V30 57 H -2.429252 -2.035632 -2.703761 0
M  V30 58 H -2.392487 -0.201599 -4.054800 0
M  V30 59 H -4.146373 -0.533957 -3.793959 0
M  V30 60 H -3.906483 -2.339944 -7.114820 0
M  V30 61 H -4.487398 -2.734563 -5.418667 0
M  V30 62 H -1.779116 -3.049787 -6.715944 0
M  V30 63 H -2.791325 -4.250233 -5.847984 0
M  V30 64 H 1.335391 -3.186925 -3.770526 0
M  V30 65 H 2.595388 -2.564249 -1.757737 0
M  V30 END ATOM
M  V30 BEGIN BOND
M  V30 1 2 1 2
M  V30 2 1 2 3
M  V30 3 2 3 4
M  V30 4 1 4 5
M  V30 5 2 5 6
M  V30 6 1 6 7
M  V30 7 2 7 8
M  V30 8 1 8 9
M  V30 9 2 9 10
M  V30 10 1 10 11
M  V30 11 1 11 12
M  V30 12 2 12 13
M  V30 13 1 13 14
M  V30 14 1 14 15
M  V30 15 1 15 16
M  V30 16 2 16 17
M  V30 17 1 17 18
M  V30 18 2 18 19
M  V30 19 1 19 20
M  V30 20 2 20 21
M  V30 21 1 14 22
M  V30 22 1 2 23
M  V30 23 1 23 24
M  V30 24 2 24 25
M  V30 25 1 25 26
M  V30 26 2 26 27
M  V30 27 1 27 28
M  V30 28 1 28 29
M  V30 29 1 29 30
M  V30 30 1 30 31
M  V30 31 1 31 32
M  V30 32 1 32 33
M  V30 33 1 33 34
M  V30 34 1 27 35
M  V30 35 2 35 36
M  V30 36 1 10 5
M  V30 37 2 22 11
M  V30 38 1 36 24
M  V30 39 1 21 16
M  V30 40 1 34 29
M  V30 41 1 3 37
M  V30 42 1 4 38
M  V30 43 1 6 39
M  V30 44 1 8 40
M  V30 45 1 9 41
M  V30 46 1 12 42
M  V30 47 1 15 43
M  V30 48 1 15 44
M  V30 49 1 17 45
M  V30 50 1 18 46
M  V30 51 1 19 47
M  V30 52 1 20 48
M  V30 53 1 21 49
M  V30 54 1 22 50
M  V30 55 1 23 51
M  V30 56 1 25 52
M  V30 57 1 26 53
M  V30 58 1 28 54
M  V30 59 1 28 55
M  V30 60 1 30 56
M  V30 61 1 30 57
M  V30 62 1 31 58
M  V30 63 1 31 59
M  V30 64 1 33 60
M  V30 65 1 33 61
M  V30 66 1 34 62
M  V30 67 1 34 63
M  V30 68 1 35 64
M  V30 69 1 36 65
M  V30 END BOND
M  V30 END CTAB
M  END
>  <Dataset>  (457) 
ChEMBL_Kinases

>  <Ligand_Instance>  (457) 
nan

>  <PDB_ID>  (457) 
nan

>  <Standardized_SMILES>  (457) 
O=C(/C=C/c1cnccc1-c1cnn(Cc2ccccc2)c1)Nc1ccc(CN2CCOCC2)cc1

>  <Name>  (457) 
nan

>  <Pocket>  (457) 
nan

>  <ATP_Site>  (457) 
nan

>  <Peripheral>  (457) 
nan

>  <Num_H_Atoms_ProtBoundConf>  (457) 
nan

>  <Num_Resolved_Atoms>  (457) 
nan

>  <Num_Not_Resolved_Atoms>  (457) 
nan

$$$$
CHEMBL4101520
     RDKit          3D

  0  0  0  0  0  0  0  0  0  0999 V3000
M  V30 BEGIN CTAB
M  V30 COUNTS 37 38 0 0 0
M  V30 BEGIN ATOM
M  V30 1 C -0.985170 -5.079913 3.415756 0
M  V30 2 O -0.985043 -5.324416 2.007991 0
M  V30 3 C -0.261044 -4.559888 1.127729 0
M  V30 4 C -0.358648 -4.914619 -0.201326 0
M  V30 5 C 0.327865 -4.212784 -1.168987 0
M  V30 6 C 1.148046 -3.120502 -0.865016 0
M  V30 7 N 1.873212 -2.384262 -1.841787 0
M  V30 8 C 2.709248 -1.253285 -1.549579 0
M  V30 9 C 2.014382 -0.081770 -1.001217 0
M  V30 10 O 2.897565 0.820776 -0.786219 0
M  V30 11 N 0.663101 0.222463 -0.688251 0
M  V30 12 N 0.556219 1.519592 -0.175306 0
M  V30 13 C -0.450615 1.945264 0.467078 0
M  V30 14 C -0.615040 3.300571 1.028756 0
M  V30 15 C -1.757470 3.685337 1.722725 0
M  V30 16 C -1.842848 4.978925 2.223916 0
M  V30 17 N -0.829482 5.861461 2.043113 0
M  V30 18 C 0.269581 5.463776 1.365712 0
M  V30 19 C 0.427075 4.185072 0.834629 0
M  V30 20 C 1.190627 -2.832256 0.482736 0
M  V30 21 C 0.529305 -3.494461 1.494678 0
M  V30 22 H 0.041029 -4.769833 3.719305 0
M  V30 23 H -1.339247 -5.945591 3.979398 0
M  V30 24 H -1.662474 -4.226456 3.595838 0
M  V30 25 H -0.970574 -5.746324 -0.524517 0
M  V30 26 H 0.236508 -4.509518 -2.209996 0
M  V30 27 H 1.748875 -2.741627 -2.836593 0
M  V30 28 H 3.199862 -0.942689 -2.502170 0
M  V30 29 H 3.581392 -1.564100 -0.900402 0
M  V30 30 H 0.059691 -0.597383 -0.918345 0
M  V30 31 H -1.265914 1.233349 0.611900 0
M  V30 32 H -2.546856 2.941804 1.843637 0
M  V30 33 H -2.784273 5.183907 2.755964 0
M  V30 34 H 1.008239 6.243754 1.282481 0
M  V30 35 H 1.350033 3.967803 0.307224 0
M  V30 36 H 1.814730 -1.989320 0.781837 0
M  V30 37 H 0.605758 -3.219282 2.520278 0
M  V30 END ATOM
M  V30 BEGIN BOND
M  V30 1 1 1 2
M  V30 2 1 2 3
M  V30 3 2 3 4
M  V30 4 1 4 5
M  V30 5 2 5 6
M  V30 6 1 6 7
M  V30 7 1 7 8
M  V30 8 1 8 9
M  V30 9 2 9 10
M  V30 10 1 9 11
M  V30 11 1 11 12
M  V30 12 2 12 13
M  V30 13 1 13 14
M  V30 14 2 14 15
M  V30 15 1 15 16
M  V30 16 2 16 17
M  V30 17 1 17 18
M  V30 18 2 18 19
M  V30 19 1 6 20
M  V30 20 2 20 21
M  V30 21 1 21 3
M  V30 22 1 19 14
M  V30 23 1 1 22
M  V30 24 1 1 23
M  V30 25 1 1 24
M  V30 26 1 4 25
M  V30 27 1 5 26
M  V30 28 1 7 27
M  V30 29 1 8 28
M  V30 30 1 8 29
M  V30 31 1 11 30
M  V30 32 1 13 31
M  V30 33 1 15 32
M  V30 34 1 16 33
M  V30 35 1 18 34
M  V30 36 1 19 35
M  V30 37 1 20 36
M  V30 38 1 21 37
M  V30 END BOND
M  V30 END CTAB
M  END
>  <Dataset>  (458) 
ChEMBL_Kinases

>  <Ligand_Instance>  (458) 
nan

>  <PDB_ID>  (458) 
nan

>  <Standardized_SMILES>  (458) 
COc1ccc(NCC(=O)N/N=C/c2ccncc2)cc1

>  <Name>  (458) 
nan

>  <Pocket>  (458) 
nan

>  <ATP_Site>  (458) 
nan

>  <Peripheral>  (458) 
nan

>  <Num_H_Atoms_ProtBoundConf>  (458) 
nan

>  <Num_Resolved_Atoms>  (458) 
nan

>  <Num_Not_Resolved_Atoms>  (458) 
nan

$$$$
CHEMBL4101459
     RDKit          3D

  0  0  0  0  0  0  0  0  0  0999 V3000
M  V30 BEGIN CTAB
M  V30 COUNTS 81 86 0 0 0
M  V30 BEGIN ATOM
M  V30 1 C 3.680105 -0.084915 3.661375 0
M  V30 2 C 4.720061 -0.162485 2.569609 0
M  V30 3 C 4.115191 -0.141078 1.241585 0 CFG=2
M  V30 4 C 5.111824 -0.290303 0.117898 0
M  V30 5 C 6.446431 -0.575430 -0.010076 0
M  V30 6 C 7.453142 -0.609506 1.074755 0
M  V30 7 O 8.707485 -0.884766 0.465630 0
M  V30 8 N 6.650217 -0.818142 -1.339328 0
M  V30 9 C 5.455697 -0.669682 -1.953891 0
M  V30 10 N 4.467826 -0.328628 -1.047846 0
M  V30 11 C 3.180095 0.132821 -1.453580 0
M  V30 12 C 2.692375 -0.075079 -2.719059 0
M  V30 13 N 1.442519 0.402247 -2.927519 0
M  V30 14 C 0.765216 1.032314 -1.925386 0
M  V30 15 N -0.544634 1.500874 -2.223145 0
M  V30 16 C -1.746116 0.755043 -1.961223 0
M  V30 17 C -1.583673 -0.484325 -1.341225 0
M  V30 18 C -2.733047 -1.200134 -1.078106 0
M  V30 19 C -4.014760 -0.799822 -1.372446 0
M  V30 20 C -5.215788 -1.566103 -1.081131 0
M  V30 21 O -6.346464 -1.116934 -1.465743 0
M  V30 22 N -5.186419 -2.801841 -0.381590 0
M  V30 23 C -6.338795 -3.631301 -0.052271 0
M  V30 24 C -6.470624 -3.682647 1.470897 0
M  V30 25 C -5.115842 -3.898774 2.055587 0
M  V30 26 N -4.456191 -5.000580 1.383671 0
M  V30 27 C -3.788706 -5.851306 2.349059 0
M  V30 28 C -5.372147 -5.789598 0.601212 0
M  V30 29 C -6.026988 -5.037542 -0.502952 0
M  V30 30 C -4.102900 0.432532 -1.983714 0
M  V30 31 C -3.019789 1.228502 -2.290971 0
M  V30 32 O -3.126932 2.467870 -2.906849 0
M  V30 33 C -4.331945 3.065200 -3.292445 0
M  V30 34 N 1.291000 1.207682 -0.710039 0
M  V30 35 C 2.508122 0.783686 -0.386708 0
M  V30 36 N 3.204183 0.905196 0.881133 0
M  V30 37 C 2.945774 2.122841 1.572962 0
M  V30 38 C 1.899993 3.060313 1.085107 0
M  V30 39 C 2.586138 3.988330 0.104040 0
M  V30 40 C 4.024516 4.067015 0.575201 0
M  V30 41 C 4.228706 2.989860 1.615345 0
M  V30 42 H 3.779133 0.805134 4.317805 0
M  V30 43 H 2.641880 -0.243601 3.309229 0
M  V30 44 H 3.815017 -0.954986 4.389931 0
M  V30 45 H 5.550869 0.560250 2.748117 0
M  V30 46 H 5.191628 -1.170471 2.705727 0
M  V30 47 H 3.524192 -1.126280 1.165571 0
M  V30 48 H 7.615568 0.349306 1.583771 0
M  V30 49 H 7.327120 -1.482755 1.769446 0
M  V30 50 H 8.579956 -1.635301 -0.155849 0
M  V30 51 H 5.416340 -0.827517 -3.030961 0
M  V30 52 H 3.282302 -0.575541 -3.444796 0
M  V30 53 H -0.526675 2.435432 -2.647329 0
M  V30 54 H -0.604352 -0.855563 -1.084604 0
M  V30 55 H -2.575913 -2.146179 -0.603169 0
M  V30 56 H -4.252170 -3.147938 -0.076935 0
M  V30 57 H -7.269781 -3.220369 -0.501252 0
M  V30 58 H -7.062154 -4.627262 1.655632 0
M  V30 59 H -7.011792 -2.822479 1.864972 0
M  V30 60 H -4.506855 -2.997527 1.930671 0
M  V30 61 H -5.165940 -4.155435 3.144545 0
M  V30 62 H -4.554438 -6.554938 2.754252 0
M  V30 63 H -3.403996 -5.168486 3.154193 0
M  V30 64 H -2.951934 -6.351413 1.831349 0
M  V30 65 H -4.730135 -6.594183 0.130901 0
M  V30 66 H -6.092833 -6.389281 1.230056 0
M  V30 67 H -7.012639 -5.549283 -0.703656 0
M  V30 68 H -5.446008 -5.051354 -1.449274 0
M  V30 69 H -5.075439 0.855378 -2.265739 0
M  V30 70 H -4.143016 4.175424 -3.322790 0
M  V30 71 H -5.061739 2.884533 -2.477766 0
M  V30 72 H -4.674081 2.704672 -4.272001 0
M  V30 73 H 2.741719 1.920425 2.634416 0
M  V30 74 H 0.929258 2.692327 0.818583 0
M  V30 75 H 1.655936 3.777275 1.964207 0
M  V30 76 H 2.478544 3.693142 -0.952773 0
M  V30 77 H 2.190768 5.043612 0.172524 0
M  V30 78 H 4.751955 3.968488 -0.245232 0
M  V30 79 H 4.253360 5.038824 1.093038 0
M  V30 80 H 4.459987 3.349339 2.613944 0
M  V30 81 H 5.041979 2.326240 1.264599 0
M  V30 END ATOM
M  V30 BEGIN BOND
M  V30 1 1 1 2
M  V30 2 1 2 3
M  V30 3 1 3 4
M  V30 4 2 4 5
M  V30 5 1 5 6
M  V30 6 1 6 7
M  V30 7 1 5 8
M  V30 8 2 8 9
M  V30 9 1 9 10
M  V30 10 1 10 11
M  V30 11 2 11 12
M  V30 12 1 12 13
M  V30 13 2 13 14
M  V30 14 1 14 15
M  V30 15 1 15 16
M  V30 16 2 16 17
M  V30 17 1 17 18
M  V30 18 2 18 19
M  V30 19 1 19 20
M  V30 20 2 20 21
M  V30 21 1 20 22
M  V30 22 1 22 23
M  V30 23 1 23 24
M  V30 24 1 24 25
M  V30 25 1 25 26
M  V30 26 1 26 27
M  V30 27 1 26 28
M  V30 28 1 28 29
M  V30 29 1 19 30
M  V30 30 2 30 31
M  V30 31 1 31 32
M  V30 32 1 32 33
M  V30 33 1 14 34
M  V30 34 2 34 35
M  V30 35 1 35 36
M  V30 36 1 36 37
M  V30 37 1 37 38
M  V30 38 1 38 39
M  V30 39 1 39 40
M  V30 40 1 40 41
M  V30 41 1 36 3
M  V30 42 1 41 37
M  V30 43 1 10 4
M  V30 44 1 35 11
M  V30 45 1 31 16
M  V30 46 1 29 23
M  V30 47 1 1 42
M  V30 48 1 1 43
M  V30 49 1 1 44
M  V30 50 1 2 45
M  V30 51 1 2 46
M  V30 52 1 3 47 CFG=1
M  V30 53 1 6 48
M  V30 54 1 6 49
M  V30 55 1 7 50
M  V30 56 1 9 51
M  V30 57 1 12 52
M  V30 58 1 15 53
M  V30 59 1 17 54
M  V30 60 1 18 55
M  V30 61 1 22 56
M  V30 62 1 23 57
M  V30 63 1 24 58
M  V30 64 1 24 59
M  V30 65 1 25 60
M  V30 66 1 25 61
M  V30 67 1 27 62
M  V30 68 1 27 63
M  V30 69 1 27 64
M  V30 70 1 28 65
M  V30 71 1 28 66
M  V30 72 1 29 67
M  V30 73 1 29 68
M  V30 74 1 30 69
M  V30 75 1 33 70
M  V30 76 1 33 71
M  V30 77 1 33 72
M  V30 78 1 37 73
M  V30 79 1 38 74
M  V30 80 1 38 75
M  V30 81 1 39 76
M  V30 82 1 39 77
M  V30 83 1 40 78
M  V30 84 1 40 79
M  V30 85 1 41 80
M  V30 86 1 41 81
M  V30 END BOND
M  V30 END CTAB
M  END
>  <Dataset>  (459) 
ChEMBL_Kinases

>  <Ligand_Instance>  (459) 
nan

>  <PDB_ID>  (459) 
nan

>  <Standardized_SMILES>  (459) 
CC[C@@H]1c2c(CO)ncn2-c2cnc(Nc3ccc(C(=O)NC4CCN(C)CC4)cc3OC)nc2N1C1CCCC1

>  <Name>  (459) 
nan

>  <Pocket>  (459) 
nan

>  <ATP_Site>  (459) 
nan

>  <Peripheral>  (459) 
nan

>  <Num_H_Atoms_ProtBoundConf>  (459) 
nan

>  <Num_Resolved_Atoms>  (459) 
nan

>  <Num_Not_Resolved_Atoms>  (459) 
nan

$$$$
CHEMBL4799304
     RDKit          3D

  0  0  0  0  0  0  0  0  0  0999 V3000
M  V30 BEGIN CTAB
M  V30 COUNTS 48 50 0 0 0
M  V30 BEGIN ATOM
M  V30 1 C 3.542374 -3.472224 4.289294 0
M  V30 2 O 3.384214 -2.389596 3.401575 0
M  V30 3 C 2.196968 -2.107445 2.757373 0
M  V30 4 O 1.729377 -3.095252 3.346930 0
M  V30 5 C 1.973830 -1.011841 1.836262 0
M  V30 6 C 3.062935 -0.214970 1.616430 0
M  V30 7 N 2.947425 0.815951 0.783161 0
M  V30 8 C 1.761442 1.059498 0.169386 0
M  V30 9 N 1.741067 2.183740 -0.701342 0
M  V30 10 C 1.374326 3.437583 -0.090411 0
M  V30 11 C 0.075836 3.901630 -0.005494 0
M  V30 12 N -0.151435 5.086560 0.586529 0
M  V30 13 C 0.861577 5.801934 1.083690 0
M  V30 14 C 0.541883 7.066934 1.706368 0
M  V30 15 N 0.285653 8.089267 2.211517 0
M  V30 16 C 2.187668 5.378011 1.023115 0
M  V30 17 N 2.393238 4.180607 0.421924 0
M  V30 18 C 0.692853 0.243232 0.411772 0
M  V30 19 C 0.736303 -0.840512 1.259149 0
M  V30 20 N -0.372537 -1.653007 1.506477 0
M  V30 21 C -1.701602 -1.646168 1.007388 0
M  V30 22 C -1.825491 -2.035255 -0.463848 0
M  V30 23 C -1.297783 -3.435357 -0.695338 0
M  V30 24 C -2.394743 -4.387780 -0.271333 0
M  V30 25 C -3.479531 -4.191216 -1.322924 0
M  V30 26 N -4.082075 -2.919185 -1.012095 0
M  V30 27 C -3.187826 -1.817167 -0.997088 0
M  V30 28 H 4.583444 -3.505464 4.654750 0
M  V30 29 H 2.857350 -3.364951 5.157645 0
M  V30 30 H 3.324563 -4.454886 3.827134 0
M  V30 31 H 4.014699 -0.382193 2.087516 0
M  V30 32 H 1.951933 2.257404 -1.734223 0
M  V30 33 H -0.667854 3.243753 -0.439884 0
M  V30 34 H 3.002175 5.964407 1.428711 0
M  V30 35 H -0.175920 0.547014 -0.121132 0
M  V30 36 H -0.176676 -2.426439 2.204672 0
M  V30 37 H -2.379146 -2.276239 1.614280 0
M  V30 38 H -2.144576 -0.605739 1.115230 0
M  V30 39 H -1.142251 -1.371365 -1.021565 0
M  V30 40 H -0.391765 -3.616020 -0.129217 0
M  V30 41 H -1.145128 -3.522050 -1.790921 0
M  V30 42 H -2.057159 -5.437827 -0.217327 0
M  V30 43 H -2.817872 -4.059344 0.690942 0
M  V30 44 H -2.966992 -4.125329 -2.321849 0
M  V30 45 H -4.259847 -4.950777 -1.298038 0
M  V30 46 H -4.821406 -2.745043 -1.732082 0
M  V30 47 H -3.668481 -1.042526 -0.328353 0
M  V30 48 H -3.171014 -1.321568 -2.010032 0
M  V30 END ATOM
M  V30 BEGIN BOND
M  V30 1 1 1 2
M  V30 2 1 2 3
M  V30 3 2 3 4
M  V30 4 1 3 5
M  V30 5 2 5 6
M  V30 6 1 6 7
M  V30 7 2 7 8
M  V30 8 1 8 9
M  V30 9 1 9 10
M  V30 10 2 10 11
M  V30 11 1 11 12
M  V30 12 2 12 13
M  V30 13 1 13 14
M  V30 14 3 14 15
M  V30 15 1 13 16
M  V30 16 2 16 17
M  V30 17 1 8 18
M  V30 18 2 18 19
M  V30 19 1 19 20
M  V30 20 1 20 21
M  V30 21 1 21 22
M  V30 22 1 22 23
M  V30 23 1 23 24
M  V30 24 1 24 25
M  V30 25 1 25 26
M  V30 26 1 26 27
M  V30 27 1 19 5
M  V30 28 1 27 22
M  V30 29 1 17 10
M  V30 30 1 1 28
M  V30 31 1 1 29
M  V30 32 1 1 30
M  V30 33 1 6 31
M  V30 34 1 9 32
M  V30 35 1 11 33
M  V30 36 1 16 34
M  V30 37 1 18 35
M  V30 38 1 20 36
M  V30 39 1 21 37
M  V30 40 1 21 38
M  V30 41 1 22 39
M  V30 42 1 23 40
M  V30 43 1 23 41
M  V30 44 1 24 42
M  V30 45 1 24 43
M  V30 46 1 25 44
M  V30 47 1 25 45
M  V30 48 1 26 46
M  V30 49 1 27 47
M  V30 50 1 27 48
M  V30 END BOND
M  V30 END CTAB
M  END
>  <Dataset>  (460) 
ChEMBL_Kinases

>  <Ligand_Instance>  (460) 
nan

>  <PDB_ID>  (460) 
nan

>  <Standardized_SMILES>  (460) 
COC(=O)c1cnc(Nc2cnc(C#N)cn2)cc1NCC1CCCNC1

>  <Name>  (460) 
nan

>  <Pocket>  (460) 
nan

>  <ATP_Site>  (460) 
nan

>  <Peripheral>  (460) 
nan

>  <Num_H_Atoms_ProtBoundConf>  (460) 
nan

>  <Num_Resolved_Atoms>  (460) 
nan

>  <Num_Not_Resolved_Atoms>  (460) 
nan

$$$$
CHEMBL410136
     RDKit          3D

  0  0  0  0  0  0  0  0  0  0999 V3000
M  V30 BEGIN CTAB
M  V30 COUNTS 49 53 0 0 0
M  V30 BEGIN ATOM
M  V30 1 C 0.848209 -1.080801 3.623214 0
M  V30 2 C 1.577914 -0.357593 2.520797 0
M  V30 3 C 2.887210 -0.753676 2.358900 0
M  V30 4 C 3.580426 -0.108830 1.359273 0
M  V30 5 C 3.013354 0.864683 0.571664 0
M  V30 6 C 3.691572 1.582896 -0.502791 0
M  V30 7 O 3.181115 2.474443 -1.226692 0
M  V30 8 N 5.056298 1.315773 -0.832130 0
M  V30 9 C 5.696645 2.039297 -1.896460 0
M  V30 10 C 6.439628 3.194838 -2.158647 0
M  V30 11 C 6.696875 3.175946 -3.533382 0
M  V30 12 N 6.130814 2.061491 -4.051247 0
M  V30 13 N 5.535507 1.384276 -3.079085 0
M  V30 14 C 1.697411 1.235153 0.764090 0
M  V30 15 C 0.930972 0.620699 1.763643 0
M  V30 16 N -0.410090 0.929365 2.054391 0
M  V30 17 C -1.697403 0.345190 2.067202 0
M  V30 18 N -2.709079 1.087930 2.557464 0
M  V30 19 C -3.949547 0.583858 2.586321 0
M  V30 20 N -4.232768 -0.651355 2.139504 0
M  V30 21 C -3.276535 -1.446092 1.637964 0
M  V30 22 C -2.006730 -0.916731 1.613923 0
M  V30 23 C -1.229540 -1.895309 1.064095 0
M  V30 24 N -2.017570 -2.935394 0.787748 0
M  V30 25 N -3.266818 -2.689483 1.126432 0
M  V30 26 C -4.416992 -3.527178 1.002736 0
M  V30 27 C -4.677205 -4.642883 1.771209 0
M  V30 28 C -5.827072 -5.341745 1.528168 0
M  V30 29 C -6.734427 -4.998447 0.567026 0
M  V30 30 C -6.478782 -3.887131 -0.201101 0
M  V30 31 C -5.311335 -3.151195 0.022901 0
M  V30 32 H -0.044689 -0.526825 3.914073 0
M  V30 33 H 0.644297 -2.132354 3.334380 0
M  V30 34 H 1.529334 -1.129414 4.501643 0
M  V30 35 H 3.349395 -1.504969 2.955654 0
M  V30 36 H 4.611015 -0.367000 1.174214 0
M  V30 37 H 5.610707 0.600445 -0.315626 0
M  V30 38 H 6.602836 3.763389 -1.252702 0
M  V30 39 H 7.274712 4.033641 -3.863034 0
M  V30 40 H 6.243240 1.914373 -5.078691 0
M  V30 41 H 1.192551 1.992126 0.180190 0
M  V30 42 H -0.299081 1.926631 2.342081 0
M  V30 43 H -4.743029 1.215740 2.991073 0
M  V30 44 H -0.172256 -1.855522 0.873162 0
M  V30 45 H -3.932393 -4.872714 2.515300 0
M  V30 46 H -5.994797 -6.206373 2.148417 0
M  V30 47 H -7.626204 -5.587789 0.419621 0
M  V30 48 H -7.187092 -3.586677 -0.979258 0
M  V30 49 H -5.187702 -2.296155 -0.622027 0
M  V30 END ATOM
M  V30 BEGIN BOND
M  V30 1 1 1 2
M  V30 2 2 2 3
M  V30 3 1 3 4
M  V30 4 2 4 5
M  V30 5 1 5 6
M  V30 6 2 6 7
M  V30 7 1 6 8
M  V30 8 1 8 9
M  V30 9 1 9 10
M  V30 10 2 10 11
M  V30 11 1 11 12
M  V30 12 1 12 13
M  V30 13 1 5 14
M  V30 14 2 14 15
M  V30 15 1 15 16
M  V30 16 1 16 17
M  V30 17 2 17 18
M  V30 18 1 18 19
M  V30 19 2 19 20
M  V30 20 1 20 21
M  V30 21 2 21 22
M  V30 22 1 22 23
M  V30 23 2 23 24
M  V30 24 1 24 25
M  V30 25 1 25 26
M  V30 26 2 26 27
M  V30 27 1 27 28
M  V30 28 2 28 29
M  V30 29 1 29 30
M  V30 30 2 30 31
M  V30 31 1 15 2
M  V30 32 1 22 17
M  V30 33 1 31 26
M  V30 34 2 13 9
M  V30 35 1 25 21
M  V30 36 1 1 32
M  V30 37 1 1 33
M  V30 38 1 1 34
M  V30 39 1 3 35
M  V30 40 1 4 36
M  V30 41 1 8 37
M  V30 42 1 10 38
M  V30 43 1 11 39
M  V30 44 1 12 40
M  V30 45 1 14 41
M  V30 46 1 16 42
M  V30 47 1 19 43
M  V30 48 1 23 44
M  V30 49 1 27 45
M  V30 50 1 28 46
M  V30 51 1 29 47
M  V30 52 1 30 48
M  V30 53 1 31 49
M  V30 END BOND
M  V30 END CTAB
M  END
>  <Dataset>  (461) 
ChEMBL_Kinases

>  <Ligand_Instance>  (461) 
nan

>  <PDB_ID>  (461) 
nan

>  <Standardized_SMILES>  (461) 
Cc1ccc(C(=O)Nc2cc[nH]n2)cc1Nc1ncnc2c1cnn2-c1ccccc1

>  <Name>  (461) 
nan

>  <Pocket>  (461) 
nan

>  <ATP_Site>  (461) 
nan

>  <Peripheral>  (461) 
nan

>  <Num_H_Atoms_ProtBoundConf>  (461) 
nan

>  <Num_Resolved_Atoms>  (461) 
nan

>  <Num_Not_Resolved_Atoms>  (461) 
nan

$$$$
CHEMBL4101327
     RDKit          3D

  0  0  0  0  0  0  0  0  0  0999 V3000
M  V30 BEGIN CTAB
M  V30 COUNTS 52 56 0 0 0
M  V30 BEGIN ATOM
M  V30 1 C 3.794154 2.394738 1.122349 0
M  V30 2 O 3.078589 1.706701 0.141196 0
M  V30 3 C 3.553339 1.224452 -1.049977 0
M  V30 4 C 4.845538 1.322177 -1.524609 0
M  V30 5 C 5.247193 0.807721 -2.741299 0
M  V30 6 N 4.327715 0.180780 -3.497389 0
M  V30 7 C 3.058477 0.068249 -3.063644 0
M  V30 8 N 2.008620 -0.515197 -3.667147 0
M  V30 9 C 0.921568 -0.400397 -2.881266 0
M  V30 10 O -0.284881 -0.755736 -2.956380 0
M  V30 11 N 1.280085 0.269087 -1.752397 0
M  V30 12 C 0.533272 0.657899 -0.604292 0
M  V30 13 N 0.175501 -0.225207 0.373786 0
M  V30 14 C -0.536538 0.200535 1.446358 0
M  V30 15 N -0.912955 -0.714022 2.469658 0
M  V30 16 C -1.676244 -0.253327 3.617382 0
M  V30 17 C -1.811555 -1.418775 4.573461 0
M  V30 18 N -2.447579 -2.503861 3.882204 0
M  V30 19 C -1.645754 -3.048074 2.804684 0
M  V30 20 C -2.496620 -3.401938 1.647951 0
M  V30 21 C -3.473266 -2.514688 1.222696 0
M  V30 22 C -4.261575 -2.834278 0.156848 0
M  V30 23 C -4.109379 -4.042895 -0.523635 0
M  V30 24 C -3.140003 -4.935707 -0.110038 0
M  V30 25 C -2.337635 -4.615456 0.971306 0
M  V30 26 C -0.537503 -2.112543 2.374611 0
M  V30 27 C -0.898916 1.525985 1.548360 0
M  V30 28 C -0.552646 2.448543 0.574567 0
M  V30 29 C 0.172319 1.986693 -0.506108 0
M  V30 30 Cl 0.609195 3.154240 -1.736107 0
M  V30 31 C 2.604189 0.570635 -1.843503 0
M  V30 32 H 3.286360 3.396337 1.243107 0
M  V30 33 H 3.720571 1.931398 2.132662 0
M  V30 34 H 4.829316 2.628795 0.842270 0
M  V30 35 H 5.557293 1.832973 -0.889295 0
M  V30 36 H 6.287276 0.921598 -3.054220 0
M  V30 37 H 1.906108 -1.009497 -4.584267 0
M  V30 38 H -2.672466 0.063823 3.264723 0
M  V30 39 H -1.201707 0.579885 4.162279 0
M  V30 40 H -2.476887 -1.107861 5.389533 0
M  V30 41 H -0.819587 -1.676453 4.986982 0
M  V30 42 H -2.825514 -3.204806 4.529855 0
M  V30 43 H -1.120218 -3.979725 3.164850 0
M  V30 44 H -3.619022 -1.569602 1.726185 0
M  V30 45 H -5.024416 -2.111618 -0.154627 0
M  V30 46 H -4.759993 -4.273281 -1.380034 0
M  V30 47 H -2.992572 -5.881841 -0.612493 0
M  V30 48 H -1.571149 -5.242632 1.353303 0
M  V30 49 H -0.302326 -2.396786 1.317459 0
M  V30 50 H 0.405672 -2.321312 2.950628 0
M  V30 51 H -1.461942 1.836761 2.406831 0
M  V30 52 H -0.867162 3.460967 0.718328 0
M  V30 END ATOM
M  V30 BEGIN BOND
M  V30 1 1 1 2
M  V30 2 1 2 3
M  V30 3 2 3 4
M  V30 4 1 4 5
M  V30 5 2 5 6
M  V30 6 1 6 7
M  V30 7 1 7 8
M  V30 8 1 8 9
M  V30 9 2 9 10
M  V30 10 1 9 11
M  V30 11 1 11 12
M  V30 12 2 12 13
M  V30 13 1 13 14
M  V30 14 1 14 15
M  V30 15 1 15 16
M  V30 16 1 16 17
M  V30 17 1 17 18
M  V30 18 1 18 19
M  V30 19 1 19 20
M  V30 20 2 20 21
M  V30 21 1 21 22
M  V30 22 2 22 23
M  V30 23 1 23 24
M  V30 24 2 24 25
M  V30 25 1 19 26
M  V30 26 2 14 27
M  V30 27 1 27 28
M  V30 28 2 28 29
M  V30 29 1 29 30
M  V30 30 1 11 31
M  V30 31 1 31 3
M  V30 32 2 31 7
M  V30 33 1 29 12
M  V30 34 1 26 15
M  V30 35 1 25 20
M  V30 36 1 1 32
M  V30 37 1 1 33
M  V30 38 1 1 34
M  V30 39 1 4 35
M  V30 40 1 5 36
M  V30 41 1 8 37
M  V30 42 1 16 38
M  V30 43 1 16 39
M  V30 44 1 17 40
M  V30 45 1 17 41
M  V30 46 1 18 42
M  V30 47 1 19 43
M  V30 48 1 21 44
M  V30 49 1 22 45
M  V30 50 1 23 46
M  V30 51 1 24 47
M  V30 52 1 25 48
M  V30 53 1 26 49
M  V30 54 1 26 50
M  V30 55 1 27 51
M  V30 56 1 28 52
M  V30 END BOND
M  V30 END CTAB
M  END
>  <Dataset>  (462) 
ChEMBL_Kinases

>  <Ligand_Instance>  (462) 
nan

>  <PDB_ID>  (462) 
nan

>  <Standardized_SMILES>  (462) 
COc1ccnc2[nH]c(=O)n(-c3nc(N4CCNC(c5ccccc5)C4)ccc3Cl)c12

>  <Name>  (462) 
nan

>  <Pocket>  (462) 
nan

>  <ATP_Site>  (462) 
nan

>  <Peripheral>  (462) 
nan

>  <Num_H_Atoms_ProtBoundConf>  (462) 
nan

>  <Num_Resolved_Atoms>  (462) 
nan

>  <Num_Not_Resolved_Atoms>  (462) 
nan

$$$$
CHEMBL4799316
     RDKit          3D

  0  0  0  0  0  0  0  0  0  0999 V3000
M  V30 BEGIN CTAB
M  V30 COUNTS 45 48 0 0 0
M  V30 BEGIN ATOM
M  V30 1 C 4.547284 -1.174360 6.174970 0
M  V30 2 O 4.285152 -0.427796 5.022800 0
M  V30 3 C 3.927526 -0.942444 3.792598 0
M  V30 4 C 3.768809 -2.278334 3.493341 0
M  V30 5 C 3.408136 -2.716244 2.234620 0
M  V30 6 C 3.199149 -1.788594 1.242100 0
M  V30 7 C 3.343451 -0.442373 1.484831 0
M  V30 8 C 3.709745 -0.022188 2.768642 0
M  V30 9 C 3.139155 0.652474 0.472827 0
M  V30 10 C 2.561596 0.094705 -0.781218 0
M  V30 11 C 1.088128 0.078817 -0.832252 0
M  V30 12 O 0.426913 -1.009836 -0.967651 0
M  V30 13 N 0.247154 1.222370 -0.741485 0
M  V30 14 C -1.132341 0.863652 -0.825057 0
M  V30 15 C -1.710876 0.593222 0.403606 0
M  V30 16 C -3.063708 0.229306 0.449196 0
M  V30 17 F -3.677224 -0.045111 1.622003 0
M  V30 18 C -3.764444 0.156611 -0.746987 0
M  V30 19 C -5.177171 -0.225232 -0.679835 0
M  V30 20 C -6.339618 0.514261 -0.543899 0
M  V30 21 N -7.349648 -0.403583 -0.545186 0
M  V30 22 N -6.847387 -1.621704 -0.672681 0
M  V30 23 C -5.488551 -1.569360 -0.761431 0
M  V30 24 C -3.194541 0.425630 -1.985024 0
M  V30 25 F -3.893942 0.347715 -3.122501 0
M  V30 26 C -1.842206 0.787792 -2.013488 0
M  V30 27 C 3.050754 -1.305054 -1.089578 0
M  V30 28 O 2.836351 -2.215586 -0.027014 0
M  V30 29 H 4.090154 -0.696093 7.078741 0
M  V30 30 H 5.658161 -1.168382 6.342126 0
M  V30 31 H 4.234563 -2.221930 6.142232 0
M  V30 32 H 3.934954 -2.986389 4.275699 0
M  V30 33 H 3.284619 -3.765160 2.003747 0
M  V30 34 H 3.827803 1.047818 2.974182 0
M  V30 35 H 2.537700 1.404354 0.973483 0
M  V30 36 H 4.148301 1.082066 0.298933 0
M  V30 37 H 2.906660 0.720920 -1.634678 0
M  V30 38 H 0.716822 2.153408 -0.628761 0
M  V30 39 H -1.189043 0.642262 1.348127 0
M  V30 40 H -6.286320 1.569375 -0.466800 0
M  V30 41 H -7.434855 -2.484322 -0.698582 0
M  V30 42 H -4.896808 -2.467005 -0.870523 0
M  V30 43 H -1.319370 1.014399 -2.936535 0
M  V30 44 H 4.131530 -1.301180 -1.371434 0
M  V30 45 H 2.426317 -1.695902 -1.936055 0
M  V30 END ATOM
M  V30 BEGIN BOND
M  V30 1 1 1 2
M  V30 2 1 2 3
M  V30 3 2 3 4
M  V30 4 1 4 5
M  V30 5 2 5 6
M  V30 6 1 6 7
M  V30 7 2 7 8
M  V30 8 1 7 9
M  V30 9 1 9 10
M  V30 10 1 10 11
M  V30 11 2 11 12
M  V30 12 1 11 13
M  V30 13 1 13 14
M  V30 14 2 14 15
M  V30 15 1 15 16
M  V30 16 1 16 17
M  V30 17 2 16 18
M  V30 18 1 18 19
M  V30 19 1 19 20
M  V30 20 2 20 21
M  V30 21 1 21 22
M  V30 22 1 22 23
M  V30 23 1 18 24
M  V30 24 1 24 25
M  V30 25 2 24 26
M  V30 26 1 10 27
M  V30 27 1 27 28
M  V30 28 1 8 3
M  V30 29 1 26 14
M  V30 30 1 28 6
M  V30 31 2 23 19
M  V30 32 1 1 29
M  V30 33 1 1 30
M  V30 34 1 1 31
M  V30 35 1 4 32
M  V30 36 1 5 33
M  V30 37 1 8 34
M  V30 38 1 9 35
M  V30 39 1 9 36
M  V30 40 1 10 37
M  V30 41 1 13 38
M  V30 42 1 15 39
M  V30 43 1 20 40
M  V30 44 1 22 41
M  V30 45 1 23 42
M  V30 46 1 26 43
M  V30 47 1 27 44
M  V30 48 1 27 45
M  V30 END BOND
M  V30 END CTAB
M  END
>  <Dataset>  (463) 
ChEMBL_Kinases

>  <Ligand_Instance>  (463) 
nan

>  <PDB_ID>  (463) 
nan

>  <Standardized_SMILES>  (463) 
COc1ccc2c(c1)CC(C(=O)Nc1cc(F)c(-c3cn[nH]c3)c(F)c1)CO2

>  <Name>  (463) 
nan

>  <Pocket>  (463) 
nan

>  <ATP_Site>  (463) 
nan

>  <Peripheral>  (463) 
nan

>  <Num_H_Atoms_ProtBoundConf>  (463) 
nan

>  <Num_Resolved_Atoms>  (463) 
nan

>  <Num_Not_Resolved_Atoms>  (463) 
nan

$$$$
CHEMBL4101308
     RDKit          3D

  0  0  0  0  0  0  0  0  0  0999 V3000
M  V30 BEGIN CTAB
M  V30 COUNTS 38 40 0 0 0
M  V30 BEGIN ATOM
M  V30 1 C -0.501491 -5.950516 1.774996 0
M  V30 2 C 0.732033 -5.124774 2.117607 0
M  V30 3 C 0.421056 -4.208401 3.267765 0
M  V30 4 O -0.602770 -3.305889 3.050711 0
M  V30 5 C -0.713161 -2.313000 2.137337 0
M  V30 6 C 0.102526 -1.847377 1.131832 0
M  V30 7 C -0.229111 -0.798480 0.313551 0
M  V30 8 C 0.725903 -0.423193 -0.723167 0
M  V30 9 C 0.991178 0.863127 -0.893379 0
M  V30 10 O 0.386337 1.865026 -0.109819 0
M  V30 11 C 0.861419 3.104521 -0.521246 0
M  V30 12 C 0.452442 4.309228 0.062856 0
M  V30 13 C 1.032165 5.464157 -0.473761 0
M  V30 14 C 1.934642 5.328493 -1.505864 0
M  V30 15 C 2.326181 4.135569 -2.069494 0
M  V30 16 C 1.761942 2.991408 -1.548989 0
M  V30 17 C 1.873377 1.563347 -1.819917 0
M  V30 18 O 2.577392 1.012907 -2.669978 0
M  V30 19 C -1.420953 -0.125034 0.442786 0
M  V30 20 C -2.276553 -0.570478 1.454902 0
M  V30 21 C -1.928357 -1.632413 2.274210 0
M  V30 22 O -2.947646 -1.876615 3.195992 0
M  V30 23 H -0.457332 -6.088770 0.667566 0
M  V30 24 H -1.433832 -5.530329 2.143798 0
M  V30 25 H -0.383385 -6.963596 2.241175 0
M  V30 26 H 1.538834 -5.820314 2.514258 0
M  V30 27 H 1.181002 -4.652210 1.244121 0
M  V30 28 H 1.350465 -3.629701 3.561863 0
M  V30 29 H 0.104388 -4.839630 4.156080 0
M  V30 30 H 1.029876 -2.356458 1.030463 0
M  V30 31 H 1.273753 -1.082928 -1.405278 0
M  V30 32 H -0.254560 4.399624 0.870882 0
M  V30 33 H 0.759949 6.426596 -0.063658 0
M  V30 34 H 2.352380 6.264518 -1.881226 0
M  V30 35 H 3.025599 4.033968 -2.870623 0
M  V30 36 H -1.599849 0.681680 -0.235642 0
M  V30 37 H -3.192541 0.013404 1.489117 0
M  V30 38 H -3.378580 -1.138599 3.730354 0
M  V30 END ATOM
M  V30 BEGIN BOND
M  V30 1 1 1 2
M  V30 2 1 2 3
M  V30 3 1 3 4
M  V30 4 1 4 5
M  V30 5 2 5 6
M  V30 6 1 6 7
M  V30 7 1 7 8
M  V30 8 2 8 9
M  V30 9 1 9 10
M  V30 10 1 10 11
M  V30 11 2 11 12
M  V30 12 1 12 13
M  V30 13 2 13 14
M  V30 14 1 14 15
M  V30 15 2 15 16
M  V30 16 1 16 17
M  V30 17 2 17 18
M  V30 18 2 7 19
M  V30 19 1 19 20
M  V30 20 2 20 21
M  V30 21 1 21 22
M  V30 22 1 21 5
M  V30 23 1 17 9
M  V30 24 1 16 11
M  V30 25 1 1 23
M  V30 26 1 1 24
M  V30 27 1 1 25
M  V30 28 1 2 26
M  V30 29 1 2 27
M  V30 30 1 3 28
M  V30 31 1 3 29
M  V30 32 1 6 30
M  V30 33 1 8 31
M  V30 34 1 12 32
M  V30 35 1 13 33
M  V30 36 1 14 34
M  V30 37 1 15 35
M  V30 38 1 19 36
M  V30 39 1 20 37
M  V30 40 1 22 38
M  V30 END BOND
M  V30 END CTAB
M  END
>  <Dataset>  (464) 
ChEMBL_Kinases

>  <Ligand_Instance>  (464) 
nan

>  <PDB_ID>  (464) 
nan

>  <Standardized_SMILES>  (464) 
CCCOc1cc(/C=C2\Oc3ccccc3C2=O)ccc1O

>  <Name>  (464) 
nan

>  <Pocket>  (464) 
nan

>  <ATP_Site>  (464) 
nan

>  <Peripheral>  (464) 
nan

>  <Num_H_Atoms_ProtBoundConf>  (464) 
nan

>  <Num_Resolved_Atoms>  (464) 
nan

>  <Num_Not_Resolved_Atoms>  (464) 
nan

$$$$
CHEMBL4101751
     RDKit          3D

  0  0  0  0  0  0  0  0  0  0999 V3000
M  V30 BEGIN CTAB
M  V30 COUNTS 45 48 0 0 0
M  V30 BEGIN ATOM
M  V30 1 C 3.769209 -1.574709 5.394788 0
M  V30 2 N 4.306513 -1.002353 4.162964 0
M  V30 3 C 3.385283 -0.685502 3.096508 0
M  V30 4 O 2.423123 -1.085298 3.772704 0
M  V30 5 N 3.983569 -0.138565 1.945207 0
M  V30 6 N 5.293556 0.102973 1.765916 0
M  V30 7 C 5.497223 0.617356 0.571425 0
M  V30 8 C 4.280539 0.713324 -0.045732 0
M  V30 9 N 3.999933 1.176820 -1.268288 0
M  V30 10 C 2.724437 1.200225 -1.727520 0
M  V30 11 C 1.742357 0.729162 -0.884395 0
M  V30 12 C 2.051163 0.256955 0.369803 0
M  V30 13 N 1.015066 -0.192141 1.182274 0
M  V30 14 C -0.300839 -0.064493 0.674071 0
M  V30 15 C -1.239941 -1.015355 0.340969 0
M  V30 16 C -2.501924 -0.782896 -0.127692 0
M  V30 17 C -3.463995 -1.803245 -0.468355 0
M  V30 18 C -4.688913 -1.356626 -0.925655 0
M  V30 19 C -5.698182 -2.216540 -1.285859 0
M  V30 20 F -6.892919 -1.759486 -1.732176 0
M  V30 21 C -5.550987 -3.584252 -1.213157 0
M  V30 22 C -4.339838 -4.045593 -0.760732 0
M  V30 23 C -3.361291 -3.165313 -0.412121 0
M  V30 24 F -2.195912 -3.681838 0.024167 0
M  V30 25 N -2.825271 0.508252 -0.264608 0
M  V30 26 C -1.972732 1.502161 0.036535 0
M  V30 27 C -0.684571 1.274576 0.514941 0
M  V30 28 C 0.068255 2.532918 0.789615 0
M  V30 29 C 3.340845 0.233261 0.833489 0
M  V30 30 H 3.023451 -0.919373 5.881377 0
M  V30 31 H 3.253276 -2.545962 5.186487 0
M  V30 32 H 4.582944 -1.837968 6.095893 0
M  V30 33 H 5.367701 -0.835366 4.089296 0
M  V30 34 H 6.517266 0.848426 0.326649 0
M  V30 35 H 2.556854 1.581451 -2.713090 0
M  V30 36 H 0.774159 0.779152 -1.347473 0
M  V30 37 H 0.653622 -0.607755 2.043276 0
M  V30 38 H -0.861874 -2.002326 0.494161 0
M  V30 39 H -4.937499 -0.298722 -1.031529 0
M  V30 40 H -6.306348 -4.295398 -1.481831 0
M  V30 41 H -4.178656 -5.111655 -0.686954 0
M  V30 42 H -2.392082 2.505907 -0.131778 0
M  V30 43 H -0.584512 3.200719 1.417258 0
M  V30 44 H 0.976448 2.379456 1.377943 0
M  V30 45 H 0.220328 3.092633 -0.158627 0
M  V30 END ATOM
M  V30 BEGIN BOND
M  V30 1 1 1 2
M  V30 2 1 2 3
M  V30 3 2 3 4
M  V30 4 1 3 5
M  V30 5 1 5 6
M  V30 6 2 6 7
M  V30 7 1 7 8
M  V30 8 2 8 9
M  V30 9 1 9 10
M  V30 10 2 10 11
M  V30 11 1 11 12
M  V30 12 1 12 13
M  V30 13 1 13 14
M  V30 14 2 14 15
M  V30 15 1 15 16
M  V30 16 1 16 17
M  V30 17 2 17 18
M  V30 18 1 18 19
M  V30 19 1 19 20
M  V30 20 2 19 21
M  V30 21 1 21 22
M  V30 22 2 22 23
M  V30 23 1 23 24
M  V30 24 2 16 25
M  V30 25 1 25 26
M  V30 26 2 26 27
M  V30 27 1 27 28
M  V30 28 2 12 29
M  V30 29 1 29 5
M  V30 30 1 29 8
M  V30 31 1 27 14
M  V30 32 1 23 17
M  V30 33 1 1 30
M  V30 34 1 1 31
M  V30 35 1 1 32
M  V30 36 1 2 33
M  V30 37 1 7 34
M  V30 38 1 10 35
M  V30 39 1 11 36
M  V30 40 1 13 37
M  V30 41 1 15 38
M  V30 42 1 18 39
M  V30 43 1 21 40
M  V30 44 1 22 41
M  V30 45 1 26 42
M  V30 46 1 28 43
M  V30 47 1 28 44
M  V30 48 1 28 45
M  V30 END BOND
M  V30 END CTAB
M  END
>  <Dataset>  (465) 
ChEMBL_Kinases

>  <Ligand_Instance>  (465) 
nan

>  <PDB_ID>  (465) 
nan

>  <Standardized_SMILES>  (465) 
CNC(=O)n1ncc2nccc(Nc3cc(-c4cc(F)ccc4F)ncc3C)c21

>  <Name>  (465) 
nan

>  <Pocket>  (465) 
nan

>  <ATP_Site>  (465) 
nan

>  <Peripheral>  (465) 
nan

>  <Num_H_Atoms_ProtBoundConf>  (465) 
nan

>  <Num_Resolved_Atoms>  (465) 
nan

>  <Num_Not_Resolved_Atoms>  (465) 
nan

$$$$
CHEMBL4798714
     RDKit          3D

  0  0  0  0  0  0  0  0  0  0999 V3000
M  V30 BEGIN CTAB
M  V30 COUNTS 30 32 0 0 0
M  V30 BEGIN ATOM
M  V30 1 O 0.120920 -1.185305 3.343260 0
M  V30 2 C 0.410916 -0.867243 2.159289 0
M  V30 3 C 1.424828 -1.541804 1.505584 0
M  V30 4 C 2.081262 -2.557904 2.212180 0
M  V30 5 C 3.086076 -3.205988 1.524233 0
M  V30 6 C 3.467805 -2.922716 0.230193 0
M  V30 7 C 2.802394 -1.917906 -0.436925 0
M  V30 8 C 1.801172 -1.253063 0.211374 0
M  V30 9 N 1.134273 -0.271576 -0.407151 0
M  V30 10 C 1.253373 0.246936 -1.636204 0
M  V30 11 S 2.215877 -0.071516 -2.877816 0
M  V30 12 N 0.341666 1.227090 -1.767759 0
M  V30 13 N -0.338997 1.314423 -0.624198 0
M  V30 14 C 0.148175 0.385648 0.226200 0
M  V30 15 N -0.227635 0.111774 1.489723 0
M  V30 16 C -1.281980 0.766770 2.231804 0
M  V30 17 C -2.610653 0.083616 2.098148 0
M  V30 18 C -3.162171 -0.029921 0.726578 0
M  V30 19 F -4.398498 -0.690718 0.847179 0
M  V30 20 F -2.428911 -0.871757 -0.094587 0
M  V30 21 F -3.333724 1.177550 0.129030 0
M  V30 22 H 1.813257 -2.812732 3.229819 0
M  V30 23 H 3.592001 -3.989543 2.069638 0
M  V30 24 H 4.269325 -3.492451 -0.215656 0
M  V30 25 H 3.150059 -1.752293 -1.435502 0
M  V30 26 H 0.091729 1.883584 -2.551079 0
M  V30 27 H -1.359386 1.801704 1.839921 0
M  V30 28 H -1.031605 0.820305 3.313089 0
M  V30 29 H -3.367056 0.560594 2.759180 0
M  V30 30 H -2.461614 -0.962701 2.483357 0
M  V30 END ATOM
M  V30 BEGIN BOND
M  V30 1 2 1 2
M  V30 2 1 2 3
M  V30 3 2 3 4
M  V30 4 1 4 5
M  V30 5 2 5 6
M  V30 6 1 6 7
M  V30 7 2 7 8
M  V30 8 1 8 9
M  V30 9 1 9 10
M  V30 10 2 10 11
M  V30 11 1 10 12
M  V30 12 1 12 13
M  V30 13 2 13 14
M  V30 14 1 14 15
M  V30 15 1 15 16
M  V30 16 1 16 17
M  V30 17 1 17 18
M  V30 18 1 18 19
M  V30 19 1 18 20
M  V30 20 1 18 21
M  V30 21 1 15 2
M  V30 22 1 8 3
M  V30 23 1 14 9
M  V30 24 1 4 22
M  V30 25 1 5 23
M  V30 26 1 6 24
M  V30 27 1 7 25
M  V30 28 1 12 26
M  V30 29 1 16 27
M  V30 30 1 16 28
M  V30 31 1 17 29
M  V30 32 1 17 30
M  V30 END BOND
M  V30 END CTAB
M  END
>  <Dataset>  (466) 
ChEMBL_Kinases

>  <Ligand_Instance>  (466) 
nan

>  <PDB_ID>  (466) 
nan

>  <Standardized_SMILES>  (466) 
O=c1c2ccccc2n2c(=S)[nH]nc2n1CCC(F)(F)F

>  <Name>  (466) 
nan

>  <Pocket>  (466) 
nan

>  <ATP_Site>  (466) 
nan

>  <Peripheral>  (466) 
nan

>  <Num_H_Atoms_ProtBoundConf>  (466) 
nan

>  <Num_Resolved_Atoms>  (466) 
nan

>  <Num_Not_Resolved_Atoms>  (466) 
nan

$$$$
CHEMBL4798737
     RDKit          3D

  0  0  0  0  0  0  0  0  0  0999 V3000
M  V30 BEGIN CTAB
M  V30 COUNTS 44 47 0 0 0
M  V30 BEGIN ATOM
M  V30 1 O -0.355265 -2.374349 0.104725 0
M  V30 2 C 0.492759 -1.736426 -0.565254 0
M  V30 3 N 1.838081 -2.100191 -0.511621 0
M  V30 4 C 2.465360 -3.138695 0.218529 0
M  V30 5 C 1.858805 -4.037717 1.056940 0
M  V30 6 C 2.497755 -5.038605 1.754518 0
M  V30 7 C 3.863154 -5.166248 1.613088 0
M  V30 8 C 4.508839 -4.279665 0.777750 0
M  V30 9 Cl 6.240380 -4.372482 0.542362 0
M  V30 10 C 3.826504 -3.293138 0.099611 0
M  V30 11 N -0.056856 -0.674202 -1.328590 0
M  V30 12 C -1.489652 -0.443780 -1.258198 0
M  V30 13 C -1.701630 1.067492 -1.196565 0
M  V30 14 C -0.493402 1.769487 -0.642274 0
M  V30 15 N -0.292119 1.532500 0.771768 0
M  V30 16 C -1.226123 1.881583 1.754515 0
M  V30 17 N -2.404168 2.471666 1.498437 0
M  V30 18 C -3.264785 2.786266 2.474270 0
M  V30 19 N -2.983213 2.521517 3.770494 0
M  V30 20 C -1.836306 1.936781 4.122117 0
M  V30 21 N -1.226819 1.530011 5.267655 0
M  V30 22 N -0.048887 0.991441 5.009992 0
M  V30 23 C 0.127431 1.040490 3.676964 0
M  V30 24 C -0.989444 1.635379 3.080349 0
M  V30 25 C 0.751580 1.558380 -1.439839 0
M  V30 26 C 0.623544 0.260067 -2.208995 0
M  V30 27 H 2.411981 -1.477471 -1.120036 0
M  V30 28 H 0.797844 -3.986840 1.206034 0
M  V30 29 H 1.954627 -5.715136 2.400989 0
M  V30 30 H 4.396562 -5.941156 2.146222 0
M  V30 31 H 4.379381 -2.609971 -0.553997 0
M  V30 32 H -2.037915 -0.821550 -2.127472 0
M  V30 33 H -1.932832 -0.842330 -0.323120 0
M  V30 34 H -2.566497 1.310840 -0.568973 0
M  V30 35 H -1.918030 1.483786 -2.196986 0
M  V30 36 H -0.727905 2.867225 -0.716893 0
M  V30 37 H 0.601073 1.078354 1.041152 0
M  V30 38 H -4.221828 3.266279 2.259971 0
M  V30 39 H -1.755985 1.694809 6.153568 0
M  V30 40 H 1.022704 0.658199 3.211182 0
M  V30 41 H 1.587119 1.383051 -0.705038 0
M  V30 42 H 1.026696 2.419767 -2.080552 0
M  V30 43 H 1.621042 -0.151247 -2.452722 0
M  V30 44 H 0.034325 0.385009 -3.138486 0
M  V30 END ATOM
M  V30 BEGIN BOND
M  V30 1 2 1 2
M  V30 2 1 2 3
M  V30 3 1 3 4
M  V30 4 2 4 5
M  V30 5 1 5 6
M  V30 6 2 6 7
M  V30 7 1 7 8
M  V30 8 1 8 9
M  V30 9 2 8 10
M  V30 10 1 2 11
M  V30 11 1 11 12
M  V30 12 1 12 13
M  V30 13 1 13 14
M  V30 14 1 14 15
M  V30 15 1 15 16
M  V30 16 2 16 17
M  V30 17 1 17 18
M  V30 18 2 18 19
M  V30 19 1 19 20
M  V30 20 1 20 21
M  V30 21 1 21 22
M  V30 22 2 22 23
M  V30 23 1 23 24
M  V30 24 1 14 25
M  V30 25 1 25 26
M  V30 26 1 10 4
M  V30 27 1 26 11
M  V30 28 1 24 16
M  V30 29 2 24 20
M  V30 30 1 3 27
M  V30 31 1 5 28
M  V30 32 1 6 29
M  V30 33 1 7 30
M  V30 34 1 10 31
M  V30 35 1 12 32
M  V30 36 1 12 33
M  V30 37 1 13 34
M  V30 38 1 13 35
M  V30 39 1 14 36
M  V30 40 1 15 37
M  V30 41 1 18 38
M  V30 42 1 21 39
M  V30 43 1 23 40
M  V30 44 1 25 41
M  V30 45 1 25 42
M  V30 46 1 26 43
M  V30 47 1 26 44
M  V30 END BOND
M  V30 END CTAB
M  END
>  <Dataset>  (467) 
ChEMBL_Kinases

>  <Ligand_Instance>  (467) 
nan

>  <PDB_ID>  (467) 
nan

>  <Standardized_SMILES>  (467) 
O=C(Nc1cccc(Cl)c1)N1CCC(Nc2ncnc3[nH]ncc23)CC1

>  <Name>  (467) 
nan

>  <Pocket>  (467) 
nan

>  <ATP_Site>  (467) 
nan

>  <Peripheral>  (467) 
nan

>  <Num_H_Atoms_ProtBoundConf>  (467) 
nan

>  <Num_Resolved_Atoms>  (467) 
nan

>  <Num_Not_Resolved_Atoms>  (467) 
nan

$$$$
CHEMBL4798741
     RDKit          3D

  0  0  0  0  0  0  0  0  0  0999 V3000
M  V30 BEGIN CTAB
M  V30 COUNTS 43 46 0 0 0
M  V30 BEGIN ATOM
M  V30 1 O 2.949723 0.288522 4.883446 0
M  V30 2 C 2.400308 0.262316 3.732937 0
M  V30 3 N 3.072753 -0.076460 2.582506 0
M  V30 4 C 2.414235 -0.067423 1.477053 0
M  V30 5 N 2.958418 -0.395451 0.171852 0
M  V30 6 C 3.841138 -1.510074 0.095467 0
M  V30 7 C 4.269205 -1.696526 -1.342222 0
M  V30 8 C 3.177086 -1.969350 -2.354038 0
M  V30 9 O 2.234444 -0.965803 -2.445729 0
M  V30 10 C 5.590975 -2.298201 -1.651623 0
M  V30 11 C 5.409208 -0.814590 -1.859111 0
M  V30 12 S 0.697888 0.434109 1.827333 0
M  V30 13 C 1.011445 0.596770 3.589947 0
M  V30 14 C 0.049300 0.954284 4.392868 0
M  V30 15 C -1.326589 1.248398 3.998801 0
M  V30 16 C -2.123383 2.283830 4.558609 0
M  V30 17 S -3.736009 2.042042 3.588972 0
M  V30 18 C -3.003598 0.642740 2.671323 0
M  V30 19 C -3.898181 -0.056288 1.636996 0
M  V30 20 C -5.186874 0.376530 1.448090 0
M  V30 21 C -5.887317 -0.350384 0.479676 0
M  V30 22 C -5.362605 -1.403650 -0.232324 0
M  V30 23 C -4.048269 -1.722241 0.070719 0
M  V30 24 C -3.263537 -1.074175 1.005662 0
M  V30 25 O -1.969771 -1.484941 1.215338 0
M  V30 26 N -1.932368 0.526218 3.065979 0
M  V30 27 H 2.597596 0.284291 -0.569223 0
M  V30 28 H 4.774925 -1.379290 0.692426 0
M  V30 29 H 3.426666 -2.479696 0.433218 0
M  V30 30 H 2.615289 -2.888234 -2.049157 0
M  V30 31 H 3.615586 -2.228391 -3.352051 0
M  V30 32 H 2.442917 -0.391183 -3.206565 0
M  V30 33 H 5.649608 -2.969401 -2.532265 0
M  V30 34 H 6.330817 -2.527518 -0.861820 0
M  V30 35 H 5.346646 -0.427676 -2.887262 0
M  V30 36 H 5.848480 -0.101259 -1.141162 0
M  V30 37 H 0.336627 1.030211 5.455431 0
M  V30 38 H -1.657218 2.950671 5.374136 0
M  V30 39 H -5.613271 1.187779 1.987546 0
M  V30 40 H -6.924220 -0.069629 0.267423 0
M  V30 41 H -5.931078 -1.943737 -0.974676 0
M  V30 42 H -3.625287 -2.564277 -0.497761 0
M  V30 43 H -1.596738 -1.632241 2.142025 0
M  V30 END ATOM
M  V30 BEGIN BOND
M  V30 1 2 1 2
M  V30 2 1 2 3
M  V30 3 2 3 4
M  V30 4 1 4 5
M  V30 5 1 5 6
M  V30 6 1 6 7
M  V30 7 1 7 8
M  V30 8 1 8 9
M  V30 9 1 7 10
M  V30 10 1 10 11
M  V30 11 1 4 12
M  V30 12 1 12 13
M  V30 13 2 13 14
M  V30 14 1 14 15
M  V30 15 2 15 16
M  V30 16 1 16 17
M  V30 17 1 17 18
M  V30 18 1 18 19
M  V30 19 2 19 20
M  V30 20 1 20 21
M  V30 21 2 21 22
M  V30 22 1 22 23
M  V30 23 2 23 24
M  V30 24 1 24 25
M  V30 25 2 18 26
M  V30 26 1 13 2
M  V30 27 1 26 15
M  V30 28 1 11 7
M  V30 29 1 24 19
M  V30 30 1 5 27
M  V30 31 1 6 28
M  V30 32 1 6 29
M  V30 33 1 8 30
M  V30 34 1 8 31
M  V30 35 1 9 32
M  V30 36 1 10 33
M  V30 37 1 10 34
M  V30 38 1 11 35
M  V30 39 1 11 36
M  V30 40 1 14 37
M  V30 41 1 16 38
M  V30 42 1 20 39
M  V30 43 1 21 40
M  V30 44 1 22 41
M  V30 45 1 23 42
M  V30 46 1 25 43
M  V30 END BOND
M  V30 END CTAB
M  END
>  <Dataset>  (468) 
ChEMBL_Kinases

>  <Ligand_Instance>  (468) 
nan

>  <PDB_ID>  (468) 
nan

>  <Standardized_SMILES>  (468) 
O=C1N=C(NCC2(CO)CC2)S/C1=C\c1csc(-c2ccccc2O)n1

>  <Name>  (468) 
nan

>  <Pocket>  (468) 
nan

>  <ATP_Site>  (468) 
nan

>  <Peripheral>  (468) 
nan

>  <Num_H_Atoms_ProtBoundConf>  (468) 
nan

>  <Num_Resolved_Atoms>  (468) 
nan

>  <Num_Not_Resolved_Atoms>  (468) 
nan

$$$$
CHEMBL4798892
     RDKit          3D

  0  0  0  0  0  0  0  0  0  0999 V3000
M  V30 BEGIN CTAB
M  V30 COUNTS 115 121 0 0 0
M  V30 BEGIN ATOM
M  V30 1 C -0.813574 0.073641 5.448778 0
M  V30 2 O -1.760660 -0.018334 4.435822 0
M  V30 3 C -1.902423 0.804829 3.338691 0
M  V30 4 C -1.120481 1.894877 3.030089 0
M  V30 5 C -1.362730 2.645662 1.896141 0
M  V30 6 N -0.557617 3.796646 1.562327 0
M  V30 7 C -0.626311 4.333955 0.246147 0
M  V30 8 C 0.569436 5.002196 -0.302055 0
M  V30 9 C 1.697869 5.002471 0.684994 0
M  V30 10 O 2.184339 3.693005 0.789396 0
M  V30 11 C 3.518008 3.736503 0.372634 0
M  V30 12 C 4.173238 2.413148 0.498021 0
M  V30 13 O 5.380269 2.473112 0.107207 0
M  V30 14 N 3.467026 1.261748 1.007184 0
M  V30 15 C 4.086083 -0.038919 1.140000 0 CFG=2
M  V30 16 C 3.316640 -1.165753 0.647162 0
M  V30 17 O 4.042818 -2.202671 0.840818 0
M  V30 18 N 2.026618 -1.265385 0.053752 0
M  V30 19 C 1.047190 -0.217839 -0.256150 0
M  V30 20 C -0.081615 -0.938484 -0.964327 0 CFG=2
M  V30 21 O -1.297263 -0.318756 -0.784134 0
M  V30 22 C -0.023590 -2.288394 -0.227990 0
M  V30 23 C 1.483105 -2.548490 -0.345303 0 CFG=1
M  V30 24 C 1.743608 -2.927009 -1.729523 0
M  V30 25 O 1.203854 -4.033337 -1.969322 0
M  V30 26 N 2.480782 -2.207494 -2.705225 0
M  V30 27 C 2.688603 -2.654666 -4.066532 0
M  V30 28 C 1.486833 -2.448393 -4.912791 0
M  V30 29 C 1.398582 -1.207342 -5.536953 0
M  V30 30 C 0.282856 -1.021130 -6.320927 0
M  V30 31 C -0.751866 -1.887868 -6.571626 0
M  V30 32 C -1.896815 -1.713357 -7.367717 0
M  V30 33 S -3.143558 -2.999512 -7.560175 0
M  V30 34 C -4.223141 -1.972829 -8.704087 0
M  V30 35 N -3.591735 -0.965371 -8.768970 0
M  V30 36 C -2.437203 -0.727674 -8.155373 0
M  V30 37 C -1.759320 0.584525 -8.325428 0
M  V30 38 C -0.563040 -3.101673 -5.897342 0
M  V30 39 C 0.508968 -3.397431 -5.090454 0
M  V30 40 C 4.387877 -0.163303 2.645075 0
M  V30 41 C 3.132246 -0.071751 3.454258 0
M  V30 42 C 5.102755 -1.457513 2.958214 0
M  V30 43 C 5.321297 0.963986 3.069703 0
M  V30 44 C 1.161795 5.472363 2.020875 0
M  V30 45 C 0.280762 4.377229 2.593153 0
M  V30 46 C -2.422744 2.289632 1.048978 0
M  V30 47 C -3.207366 1.176630 1.380883 0
M  V30 48 C -2.953192 0.419857 2.534470 0
M  V30 49 N -3.885808 -0.642138 2.636993 0
M  V30 50 C -5.143736 -0.879024 3.229506 0
M  V30 51 O -5.667223 0.059332 3.879153 0
M  V30 52 C -5.729596 -2.198690 3.032473 0
M  V30 53 C -6.955504 -2.398914 3.629152 0
M  V30 54 C -7.522716 -3.660989 3.432757 0
M  V30 55 C -6.890859 -4.645768 2.685816 0
M  V30 56 C -5.658893 -4.376536 2.114109 0
M  V30 57 C -4.954387 -5.374372 1.322328 0
M  V30 58 C -3.738301 -5.233166 0.713232 0
M  V30 59 C -3.471977 -6.450196 0.074624 0
M  V30 60 N -4.531934 -7.250352 0.331415 0
M  V30 61 N -5.403696 -6.613955 1.066559 0
M  V30 62 N -5.144185 -3.164864 2.319324 0
M  V30 63 H -1.373082 0.181343 6.424653 0
M  V30 64 H -0.258406 -0.900607 5.469094 0
M  V30 65 H -0.140818 0.915682 5.287426 0
M  V30 66 H -0.311645 2.145837 3.698933 0
M  V30 67 H -0.863500 3.459560 -0.434413 0
M  V30 68 H -1.547899 4.984329 0.113537 0
M  V30 69 H 0.353126 6.027018 -0.694289 0
M  V30 70 H 0.935159 4.428461 -1.208100 0
M  V30 71 H 2.507945 5.693781 0.343252 0
M  V30 72 H 3.534307 4.153360 -0.645623 0
M  V30 73 H 4.036927 4.465153 1.030266 0
M  V30 74 H 2.479246 1.468653 1.266537 0
M  V30 75 H 5.086862 -0.014438 0.669634 0
M  V30 76 H 1.460166 0.632295 -0.791873 0
M  V30 77 H 0.568184 0.184928 0.680070 0
M  V30 78 H 0.111305 -1.149536 -2.016126 0
M  V30 79 H -1.225082 0.571118 -1.210386 0
M  V30 80 H -0.593140 -3.058252 -0.750222 0
M  V30 81 H -0.307874 -2.089148 0.812054 0
M  V30 82 H 1.794980 -3.358496 0.334390 0
M  V30 83 H 2.838618 -1.308849 -2.260969 0
M  V30 84 H 2.966677 -3.731828 -4.043432 0
M  V30 85 H 3.541573 -2.149405 -4.553362 0
M  V30 86 H 2.147652 -0.450706 -5.415483 0
M  V30 87 H 0.225152 -0.061621 -6.798573 0
M  V30 88 H -5.156022 -2.330025 -9.124849 0
M  V30 89 H -2.345763 1.312070 -8.938757 0
M  V30 90 H -0.785937 0.523711 -8.813040 0
M  V30 91 H -1.738675 1.074417 -7.306230 0
M  V30 92 H -1.291815 -3.925466 -5.976721 0
M  V30 93 H 0.597986 -4.344513 -4.605963 0
M  V30 94 H 2.319190 -0.708072 3.070403 0
M  V30 95 H 3.371675 -0.413563 4.479795 0
M  V30 96 H 2.833735 1.002442 3.507856 0
M  V30 97 H 5.870553 -1.706464 2.199162 0
M  V30 98 H 4.369091 -2.271515 3.145339 0
M  V30 99 H 5.668968 -1.270195 3.907553 0
M  V30 100 H 6.340910 0.816793 2.650982 0
M  V30 101 H 4.898012 1.950705 2.863352 0
M  V30 102 H 5.438656 0.865717 4.167808 0
M  V30 103 H 0.525890 6.351706 1.840946 0
M  V30 104 H 1.939515 5.718907 2.752415 0
M  V30 105 H 0.942860 3.584307 2.981677 0
M  V30 106 H -0.375484 4.796284 3.373097 0
M  V30 107 H -2.668824 2.854366 0.135248 0
M  V30 108 H -4.017115 0.973106 0.659815 0
M  V30 109 H -3.400152 -1.398002 2.084529 0
M  V30 110 H -7.436104 -1.632819 4.206400 0
M  V30 111 H -8.489593 -3.833261 3.898342 0
M  V30 112 H -7.373428 -5.607939 2.564161 0
M  V30 113 H -3.155843 -4.302074 0.772738 0
M  V30 114 H -2.542209 -6.604231 -0.496622 0
M  V30 115 H -6.306324 -7.087710 1.368131 0
M  V30 END ATOM
M  V30 BEGIN BOND
M  V30 1 1 1 2
M  V30 2 1 2 3
M  V30 3 2 3 4
M  V30 4 1 4 5
M  V30 5 1 5 6
M  V30 6 1 6 7
M  V30 7 1 7 8
M  V30 8 1 8 9
M  V30 9 1 9 10
M  V30 10 1 10 11
M  V30 11 1 11 12
M  V30 12 2 12 13
M  V30 13 1 12 14
M  V30 14 1 14 15
M  V30 15 1 15 16
M  V30 16 2 16 17
M  V30 17 1 16 18
M  V30 18 1 18 19
M  V30 19 1 19 20
M  V30 20 1 20 21
M  V30 21 1 20 22
M  V30 22 1 22 23
M  V30 23 1 23 24
M  V30 24 2 24 25
M  V30 25 1 24 26
M  V30 26 1 26 27
M  V30 27 1 27 28
M  V30 28 2 28 29
M  V30 29 1 29 30
M  V30 30 2 30 31
M  V30 31 1 31 32
M  V30 32 1 32 33
M  V30 33 1 33 34
M  V30 34 2 34 35
M  V30 35 1 35 36
M  V30 36 1 36 37
M  V30 37 1 31 38
M  V30 38 2 38 39
M  V30 39 1 15 40
M  V30 40 1 40 41
M  V30 41 1 40 42
M  V30 42 1 40 43
M  V30 43 1 9 44
M  V30 44 1 44 45
M  V30 45 2 5 46
M  V30 46 1 46 47
M  V30 47 2 47 48
M  V30 48 1 48 49
M  V30 49 1 49 50
M  V30 50 2 50 51
M  V30 51 1 50 52
M  V30 52 2 52 53
M  V30 53 1 53 54
M  V30 54 2 54 55
M  V30 55 1 55 56
M  V30 56 1 56 57
M  V30 57 2 57 58
M  V30 58 1 58 59
M  V30 59 2 59 60
M  V30 60 1 60 61
M  V30 61 2 56 62
M  V30 62 1 48 3
M  V30 63 1 62 52
M  V30 64 1 45 6
M  V30 65 1 61 57
M  V30 66 1 23 18
M  V30 67 1 39 28
M  V30 68 2 36 32
M  V30 69 1 1 63
M  V30 70 1 1 64
M  V30 71 1 1 65
M  V30 72 1 4 66
M  V30 73 1 7 67
M  V30 74 1 7 68
M  V30 75 1 8 69
M  V30 76 1 8 70
M  V30 77 1 9 71
M  V30 78 1 11 72
M  V30 79 1 11 73
M  V30 80 1 14 74
M  V30 81 1 15 75 CFG=3
M  V30 82 1 19 76
M  V30 83 1 19 77
M  V30 84 1 20 78 CFG=3
M  V30 85 1 21 79
M  V30 86 1 22 80
M  V30 87 1 22 81
M  V30 88 1 23 82 CFG=1
M  V30 89 1 26 83
M  V30 90 1 27 84
M  V30 91 1 27 85
M  V30 92 1 29 86
M  V30 93 1 30 87
M  V30 94 1 34 88
M  V30 95 1 37 89
M  V30 96 1 37 90
M  V30 97 1 37 91
M  V30 98 1 38 92
M  V30 99 1 39 93
M  V30 100 1 41 94
M  V30 101 1 41 95
M  V30 102 1 41 96
M  V30 103 1 42 97
M  V30 104 1 42 98
M  V30 105 1 42 99
M  V30 106 1 43 100
M  V30 107 1 43 101
M  V30 108 1 43 102
M  V30 109 1 44 103
M  V30 110 1 44 104
M  V30 111 1 45 105
M  V30 112 1 45 106
M  V30 113 1 46 107
M  V30 114 1 47 108
M  V30 115 1 49 109
M  V30 116 1 53 110
M  V30 117 1 54 111
M  V30 118 1 55 112
M  V30 119 1 58 113
M  V30 120 1 59 114
M  V30 121 1 61 115
M  V30 END BOND
M  V30 END CTAB
M  END
>  <Dataset>  (469) 
ChEMBL_Kinases

>  <Ligand_Instance>  (469) 
nan

>  <PDB_ID>  (469) 
nan

>  <Standardized_SMILES>  (469) 
COc1cc(N2CCC(OCC(=O)N[C@H](C(=O)N3C[C@H](O)C[C@H]3C(=O)NCc3ccc(-c4scnc4C)cc3)C(C)(C)C)CC2)ccc1NC(=O)c1cccc(-c2ccn[nH]2)n1

>  <Name>  (469) 
nan

>  <Pocket>  (469) 
nan

>  <ATP_Site>  (469) 
nan

>  <Peripheral>  (469) 
nan

>  <Num_H_Atoms_ProtBoundConf>  (469) 
nan

>  <Num_Resolved_Atoms>  (469) 
nan

>  <Num_Not_Resolved_Atoms>  (469) 
nan

$$$$
CHEMBL4798911
     RDKit          3D

  0  0  0  0  0  0  0  0  0  0999 V3000
M  V30 BEGIN CTAB
M  V30 COUNTS 78 80 0 0 0
M  V30 BEGIN ATOM
M  V30 1 C -1.928360 1.026599 6.875462 0
M  V30 2 C -1.685640 -0.082555 5.870842 0
M  V30 3 C -2.905396 -1.011994 5.843261 0
M  V30 4 C -0.522691 -0.944150 6.329733 0
M  V30 5 O -1.528234 0.381951 4.560751 0
M  V30 6 C -0.548103 1.261472 4.130611 0
M  V30 7 O 0.275223 1.677955 5.013211 0
M  V30 8 N -0.405000 1.720022 2.795217 0
M  V30 9 C 0.629654 2.640028 2.383962 0
M  V30 10 C 0.553167 2.958941 0.905253 0
M  V30 11 O -0.637830 3.530883 0.544125 0
M  V30 12 C -0.638458 3.807967 -0.838002 0
M  V30 13 C -1.923060 4.435324 -1.258759 0
M  V30 14 O -3.059599 3.708612 -1.049124 0
M  V30 15 C -3.051010 2.513432 -1.794771 0
M  V30 16 C -4.319236 1.755856 -1.526150 0
M  V30 17 O -4.567960 0.626841 -2.122552 0
M  V30 18 C -3.935090 -0.523727 -2.216118 0
M  V30 19 C -2.676413 -0.485989 -2.997998 0
M  V30 20 C -2.033169 -1.858344 -3.066627 0
M  V30 21 O -2.797254 -2.521187 -2.314444 0
M  V30 22 N -0.871154 -2.143987 -3.834038 0
M  V30 23 C -0.504290 -3.506159 -3.707109 0
M  V30 24 C 0.671665 -3.964055 -4.461289 0
M  V30 25 C 1.990931 -3.387681 -4.249962 0
M  V30 26 N 2.622269 -3.440523 -2.986538 0
M  V30 27 C 3.419884 -4.435433 -2.527780 0
M  V30 28 O 3.609828 -5.418365 -3.298473 0
M  V30 29 C 4.010734 -4.400299 -1.277274 0
M  V30 30 C 4.817893 -5.422768 -0.831063 0
M  V30 31 C 5.388724 -5.358377 0.412235 0
M  V30 32 F 6.185328 -6.386110 0.829478 0
M  V30 33 C 5.194056 -4.281793 1.282551 0
M  V30 34 C 4.381594 -3.265765 0.817982 0
M  V30 35 C 3.811010 -3.333732 -0.428818 0
M  V30 36 N 3.025078 -2.350020 -0.877530 0
M  V30 37 C 2.642927 -1.203656 -0.318841 0
M  V30 38 S 2.948537 -0.509015 1.117357 0
M  V30 39 N 1.848679 -0.537336 -1.164782 0
M  V30 40 N 1.748432 -1.289053 -2.249119 0
M  V30 41 C 2.466213 -2.414681 -2.096959 0
M  V30 42 H -1.340564 1.925076 6.681908 0
M  V30 43 H -1.669013 0.645596 7.886357 0
M  V30 44 H -3.026778 1.219817 6.863034 0
M  V30 45 H -2.852061 -1.699492 6.724202 0
M  V30 46 H -2.825175 -1.649223 4.954112 0
M  V30 47 H -3.854223 -0.457106 5.941934 0
M  V30 48 H -0.124597 -1.443032 5.416930 0
M  V30 49 H -0.904333 -1.794597 6.961073 0
M  V30 50 H 0.237852 -0.380816 6.896205 0
M  V30 51 H -1.097493 1.363070 2.073372 0
M  V30 52 H 1.609337 2.185712 2.590255 0
M  V30 53 H 0.570356 3.597976 2.955006 0
M  V30 54 H 0.857743 2.094616 0.306724 0
M  V30 55 H 1.343728 3.740485 0.724567 0
M  V30 56 H -0.432363 2.884233 -1.390720 0
M  V30 57 H 0.178788 4.540195 -1.068500 0
M  V30 58 H -2.036856 5.481863 -0.869634 0
M  V30 59 H -1.845703 4.591857 -2.376702 0
M  V30 60 H -2.843715 2.703026 -2.845527 0
M  V30 61 H -2.182369 1.954427 -1.344849 0
M  V30 62 H -5.145555 2.498529 -1.820110 0
M  V30 63 H -4.445116 1.737743 -0.391214 0
M  V30 64 H -4.630363 -1.253902 -2.767492 0
M  V30 65 H -3.797167 -1.071410 -1.228991 0
M  V30 66 H -2.980030 -0.309895 -4.077363 0
M  V30 67 H -1.935809 0.254349 -2.775860 0
M  V30 68 H -0.488181 -1.331827 -4.349855 0
M  V30 69 H -0.402117 -3.729225 -2.600569 0
M  V30 70 H -1.414207 -4.131933 -3.958117 0
M  V30 71 H 0.790372 -5.089085 -4.462755 0
M  V30 72 H 0.415703 -3.799841 -5.557449 0
M  V30 73 H 2.708493 -3.934166 -4.938610 0
M  V30 74 H 2.114238 -2.332807 -4.634055 0
M  V30 75 H 5.013380 -6.290919 -1.454244 0
M  V30 76 H 5.686003 -4.313405 2.251167 0
M  V30 77 H 4.265594 -2.466981 1.521978 0
M  V30 78 H 1.313174 0.341494 -1.232204 0
M  V30 END ATOM
M  V30 BEGIN BOND
M  V30 1 1 1 2
M  V30 2 1 2 3
M  V30 3 1 2 4
M  V30 4 1 2 5
M  V30 5 1 5 6
M  V30 6 2 6 7
M  V30 7 1 6 8
M  V30 8 1 8 9
M  V30 9 1 9 10
M  V30 10 1 10 11
M  V30 11 1 11 12
M  V30 12 1 12 13
M  V30 13 1 13 14
M  V30 14 1 14 15
M  V30 15 1 15 16
M  V30 16 1 16 17
M  V30 17 1 17 18
M  V30 18 1 18 19
M  V30 19 1 19 20
M  V30 20 2 20 21
M  V30 21 1 20 22
M  V30 22 1 22 23
M  V30 23 1 23 24
M  V30 24 1 24 25
M  V30 25 1 25 26
M  V30 26 1 26 27
M  V30 27 2 27 28
M  V30 28 1 27 29
M  V30 29 2 29 30
M  V30 30 1 30 31
M  V30 31 1 31 32
M  V30 32 2 31 33
M  V30 33 1 33 34
M  V30 34 2 34 35
M  V30 35 1 35 36
M  V30 36 1 36 37
M  V30 37 2 37 38
M  V30 38 1 37 39
M  V30 39 1 39 40
M  V30 40 2 40 41
M  V30 41 1 41 26
M  V30 42 1 35 29
M  V30 43 1 41 36
M  V30 44 1 1 42
M  V30 45 1 1 43
M  V30 46 1 1 44
M  V30 47 1 3 45
M  V30 48 1 3 46
M  V30 49 1 3 47
M  V30 50 1 4 48
M  V30 51 1 4 49
M  V30 52 1 4 50
M  V30 53 1 8 51
M  V30 54 1 9 52
M  V30 55 1 9 53
M  V30 56 1 10 54
M  V30 57 1 10 55
M  V30 58 1 12 56
M  V30 59 1 12 57
M  V30 60 1 13 58
M  V30 61 1 13 59
M  V30 62 1 15 60
M  V30 63 1 15 61
M  V30 64 1 16 62
M  V30 65 1 16 63
M  V30 66 1 18 64
M  V30 67 1 18 65
M  V30 68 1 19 66
M  V30 69 1 19 67
M  V30 70 1 22 68
M  V30 71 1 23 69
M  V30 72 1 23 70
M  V30 73 1 24 71
M  V30 74 1 24 72
M  V30 75 1 25 73
M  V30 76 1 25 74
M  V30 77 1 30 75
M  V30 78 1 33 76
M  V30 79 1 34 77
M  V30 80 1 39 78
M  V30 END BOND
M  V30 END CTAB
M  END
>  <Dataset>  (470) 
ChEMBL_Kinases

>  <Ligand_Instance>  (470) 
nan

>  <PDB_ID>  (470) 
nan

>  <Standardized_SMILES>  (470) 
CC(C)(C)OC(=O)NCCOCCOCCOCCC(=O)NCCCn1c(=O)c2cc(F)ccc2n2c(=S)[nH]nc12

>  <Name>  (470) 
nan

>  <Pocket>  (470) 
nan

>  <ATP_Site>  (470) 
nan

>  <Peripheral>  (470) 
nan

>  <Num_H_Atoms_ProtBoundConf>  (470) 
nan

>  <Num_Resolved_Atoms>  (470) 
nan

>  <Num_Not_Resolved_Atoms>  (470) 
nan

$$$$
CHEMBL4798937
     RDKit          3D

  0  0  0  0  0  0  0  0  0  0999 V3000
M  V30 BEGIN CTAB
M  V30 COUNTS 50 53 0 0 0
M  V30 BEGIN ATOM
M  V30 1 F 5.371861 -3.240237 2.380023 0
M  V30 2 C 4.811346 -4.302496 1.710627 0
M  V30 3 F 4.137728 -5.167300 2.569332 0
M  V30 4 F 5.843564 -4.959085 1.046899 0
M  V30 5 C 3.835451 -3.804691 0.714911 0
M  V30 6 C 3.365273 -2.521947 0.825265 0
M  V30 7 C 2.446515 -1.981418 -0.071407 0
M  V30 8 N 1.987871 -0.650697 0.081091 0
M  V30 9 C 1.069666 0.095368 -0.697993 0
M  V30 10 S 0.248748 -0.361520 -2.030470 0
M  V30 11 N 0.780455 1.455242 -0.306879 0
M  V30 12 C 1.278312 2.266315 0.804363 0
M  V30 13 C 0.196235 3.086447 1.432317 0
M  V30 14 C -1.200978 2.517112 1.233549 0
M  V30 15 N -1.441897 1.289823 1.928695 0
M  V30 16 C -2.477331 0.393818 2.254399 0
M  V30 17 N -2.227235 -0.761181 2.942001 0
M  V30 18 C -3.212167 -1.605857 3.259752 0
M  V30 19 N -4.483609 -1.357261 2.919005 0
M  V30 20 C -4.836114 -0.252329 2.243979 0
M  V30 21 N -6.021689 0.207470 1.808042 0
M  V30 22 N -5.767872 1.366692 1.205725 0
M  V30 23 C -4.443245 1.625611 1.265215 0
M  V30 24 C -3.802049 0.604962 1.927003 0
M  V30 25 C -1.449155 2.304169 -0.259527 0
M  V30 26 C -0.132402 2.308685 -1.021066 0
M  V30 27 C 2.065818 -2.852202 -1.062331 0
M  V30 28 C 2.503479 -4.140900 -1.218625 0
M  V30 29 C 2.048956 -5.031381 -2.317346 0
M  V30 30 F 1.902294 -6.317211 -1.859139 0
M  V30 31 F 2.853301 -4.958931 -3.437338 0
M  V30 32 F 0.787297 -4.562935 -2.682016 0
M  V30 33 C 3.408314 -4.617858 -0.304201 0
M  V30 34 H 3.737821 -1.913247 1.657230 0
M  V30 35 H 2.398749 -0.148799 0.901218 0
M  V30 36 H 2.017978 2.963569 0.308798 0
M  V30 37 H 1.865193 1.690792 1.518294 0
M  V30 38 H 0.327085 3.228471 2.504183 0
M  V30 39 H 0.171594 4.082454 0.944402 0
M  V30 40 H -1.897233 3.279748 1.618494 0
M  V30 41 H -0.502684 0.972987 2.317408 0
M  V30 42 H -2.840814 -2.466560 3.801265 0
M  V30 43 H -6.928479 -0.298613 1.949061 0
M  V30 44 H -4.011948 2.505665 0.852874 0
M  V30 45 H -2.047633 3.150378 -0.655268 0
M  V30 46 H -1.908350 1.311305 -0.445465 0
M  V30 47 H -0.330563 1.775985 -1.995740 0
M  V30 48 H 0.226001 3.310097 -1.247039 0
M  V30 49 H 1.366575 -2.552073 -1.807696 0
M  V30 50 H 3.811488 -5.607873 -0.336608 0
M  V30 END ATOM
M  V30 BEGIN BOND
M  V30 1 1 1 2
M  V30 2 1 2 3
M  V30 3 1 2 4
M  V30 4 1 2 5
M  V30 5 2 5 6
M  V30 6 1 6 7
M  V30 7 1 7 8
M  V30 8 1 8 9
M  V30 9 2 9 10
M  V30 10 1 9 11
M  V30 11 1 11 12
M  V30 12 1 12 13
M  V30 13 1 13 14
M  V30 14 1 14 15
M  V30 15 1 15 16
M  V30 16 2 16 17
M  V30 17 1 17 18
M  V30 18 2 18 19
M  V30 19 1 19 20
M  V30 20 1 20 21
M  V30 21 1 21 22
M  V30 22 2 22 23
M  V30 23 1 23 24
M  V30 24 1 14 25
M  V30 25 1 25 26
M  V30 26 2 7 27
M  V30 27 1 27 28
M  V30 28 1 28 29
M  V30 29 1 29 30
M  V30 30 1 29 31
M  V30 31 1 29 32
M  V30 32 2 28 33
M  V30 33 1 33 5
M  V30 34 1 26 11
M  V30 35 1 24 16
M  V30 36 2 24 20
M  V30 37 1 6 34
M  V30 38 1 8 35
M  V30 39 1 12 36
M  V30 40 1 12 37
M  V30 41 1 13 38
M  V30 42 1 13 39
M  V30 43 1 14 40
M  V30 44 1 15 41
M  V30 45 1 18 42
M  V30 46 1 21 43
M  V30 47 1 23 44
M  V30 48 1 25 45
M  V30 49 1 25 46
M  V30 50 1 26 47
M  V30 51 1 26 48
M  V30 52 1 27 49
M  V30 53 1 33 50
M  V30 END BOND
M  V30 END CTAB
M  END
>  <Dataset>  (471) 
ChEMBL_Kinases

>  <Ligand_Instance>  (471) 
nan

>  <PDB_ID>  (471) 
nan

>  <Standardized_SMILES>  (471) 
FC(F)(F)c1cc(NC(=S)N2CCC(Nc3ncnc4[nH]ncc34)CC2)cc(C(F)(F)F)c1

>  <Name>  (471) 
nan

>  <Pocket>  (471) 
nan

>  <ATP_Site>  (471) 
nan

>  <Peripheral>  (471) 
nan

>  <Num_H_Atoms_ProtBoundConf>  (471) 
nan

>  <Num_Resolved_Atoms>  (471) 
nan

>  <Num_Not_Resolved_Atoms>  (471) 
nan

$$$$
CHEMBL4798964
     RDKit          3D

  0  0  0  0  0  0  0  0  0  0999 V3000
M  V30 BEGIN CTAB
M  V30 COUNTS 46 49 0 0 0
M  V30 BEGIN ATOM
M  V30 1 C 2.315081 -5.968274 0.199827 0
M  V30 2 O 1.302318 -5.257403 -0.507664 0
M  V30 3 C 1.066852 -3.908215 -0.195172 0
M  V30 4 N 1.768319 -3.252780 0.757170 0
M  V30 5 C 1.541190 -1.958154 1.056319 0
M  V30 6 C 0.541358 -1.365823 0.313635 0
M  V30 7 C 0.242498 0.030991 0.591916 0
M  V30 8 C 0.524778 1.084686 -0.218204 0
M  V30 9 C 1.173801 1.143280 -1.515682 0
M  V30 10 C 0.824963 0.626814 -2.744631 0
M  V30 11 C 1.637843 0.830849 -3.831649 0
M  V30 12 C 2.823434 1.545776 -3.769553 0
M  V30 13 F 3.560682 1.696465 -4.895243 0
M  V30 14 C 3.183768 2.070327 -2.536271 0
M  V30 15 C 2.368159 1.872536 -1.417094 0
M  V30 16 N 0.058690 2.157209 0.457720 0
M  V30 17 C -0.479191 1.758242 1.623541 0
M  V30 18 N -0.378099 0.413057 1.738949 0
M  V30 19 C -0.822663 -0.436774 2.825885 0
M  V30 20 C -0.683918 0.170314 4.179226 0
M  V30 21 C -1.922520 0.759958 4.763599 0
M  V30 22 N -2.928398 1.182506 3.867330 0
M  V30 23 C -3.109995 0.400606 2.692183 0
M  V30 24 C -2.271995 -0.829790 2.621312 0
M  V30 25 C -0.197422 -1.996126 -0.664731 0
M  V30 26 N 0.083323 -3.308268 -0.918256 0
M  V30 27 H 2.469862 -6.949663 -0.290511 0
M  V30 28 H 3.278435 -5.428158 0.163758 0
M  V30 29 H 2.073344 -6.112856 1.260203 0
M  V30 30 H 2.088813 -1.414739 1.815627 0
M  V30 31 H -0.092630 0.097763 -2.702991 0
M  V30 32 H 1.293196 0.391289 -4.766532 0
M  V30 33 H 4.104026 2.614886 -2.527816 0
M  V30 34 H 2.792275 2.346429 -0.532276 0
M  V30 35 H -0.925539 2.421710 2.357673 0
M  V30 36 H -0.155664 -1.344063 2.770681 0
M  V30 37 H 0.169704 0.909545 4.203290 0
M  V30 38 H -0.349219 -0.628340 4.888256 0
M  V30 39 H -1.613461 1.652623 5.366169 0
M  V30 40 H -2.398719 0.075485 5.526307 0
M  V30 41 H -3.043171 2.203896 3.757087 0
M  V30 42 H -4.180290 0.085065 2.598822 0
M  V30 43 H -2.889672 1.029969 1.805795 0
M  V30 44 H -2.547352 -1.603603 3.354802 0
M  V30 45 H -2.435454 -1.278686 1.618507 0
M  V30 46 H -0.973043 -1.577029 -1.253413 0
M  V30 END ATOM
M  V30 BEGIN BOND
M  V30 1 1 1 2
M  V30 2 1 2 3
M  V30 3 2 3 4
M  V30 4 1 4 5
M  V30 5 2 5 6
M  V30 6 1 6 7
M  V30 7 2 7 8
M  V30 8 1 8 9
M  V30 9 2 9 10
M  V30 10 1 10 11
M  V30 11 2 11 12
M  V30 12 1 12 13
M  V30 13 1 12 14
M  V30 14 2 14 15
M  V30 15 1 8 16
M  V30 16 2 16 17
M  V30 17 1 17 18
M  V30 18 1 18 19
M  V30 19 1 19 20
M  V30 20 1 20 21
M  V30 21 1 21 22
M  V30 22 1 22 23
M  V30 23 1 23 24
M  V30 24 1 6 25
M  V30 25 2 25 26
M  V30 26 1 26 3
M  V30 27 1 18 7
M  V30 28 1 24 19
M  V30 29 1 15 9
M  V30 30 1 1 27
M  V30 31 1 1 28
M  V30 32 1 1 29
M  V30 33 1 5 30
M  V30 34 1 10 31
M  V30 35 1 11 32
M  V30 36 1 14 33
M  V30 37 1 15 34
M  V30 38 1 17 35
M  V30 39 1 19 36
M  V30 40 1 20 37
M  V30 41 1 20 38
M  V30 42 1 21 39
M  V30 43 1 21 40
M  V30 44 1 22 41
M  V30 45 1 23 42
M  V30 46 1 23 43
M  V30 47 1 24 44
M  V30 48 1 24 45
M  V30 49 1 25 46
M  V30 END BOND
M  V30 END CTAB
M  END
>  <Dataset>  (472) 
ChEMBL_Kinases

>  <Ligand_Instance>  (472) 
nan

>  <PDB_ID>  (472) 
nan

>  <Standardized_SMILES>  (472) 
COc1ncc(-c2c(-c3ccc(F)cc3)ncn2C2CCNCC2)cn1

>  <Name>  (472) 
nan

>  <Pocket>  (472) 
nan

>  <ATP_Site>  (472) 
nan

>  <Peripheral>  (472) 
nan

>  <Num_H_Atoms_ProtBoundConf>  (472) 
nan

>  <Num_Resolved_Atoms>  (472) 
nan

>  <Num_Not_Resolved_Atoms>  (472) 
nan

$$$$
CHEMBL4102920
     RDKit          3D

  0  0  0  0  0  0  0  0  0  0999 V3000
M  V30 BEGIN CTAB
M  V30 COUNTS 55 58 0 0 0
M  V30 BEGIN ATOM
M  V30 1 C 6.794840 -2.242720 3.389745 0
M  V30 2 C 5.822754 -2.055686 2.282548 0
M  V30 3 C 5.595927 -2.918369 1.231764 0
M  V30 4 C 4.656677 -2.620223 0.264984 0
M  V30 5 C 3.905127 -1.441474 0.313514 0
M  V30 6 S 2.771523 -1.226656 -0.981791 0
M  V30 7 O 2.544761 0.265882 -1.179736 0
M  V30 8 O 3.345898 -1.799868 -2.244650 0
M  V30 9 N 1.225694 -1.909040 -0.638442 0
M  V30 10 C 0.615711 -1.282011 0.517969 0
M  V30 11 C -0.459067 -0.368359 0.025147 0
M  V30 12 N -1.565167 -1.039844 -0.633552 0
M  V30 13 C -2.844060 -0.469624 -0.398105 0
M  V30 14 N -2.835417 0.618810 0.390136 0
M  V30 15 C -3.992431 1.276118 0.705058 0
M  V30 16 C -3.910878 2.448377 1.564212 0
M  V30 17 C -2.684502 2.866077 2.036280 0
M  V30 18 C -2.704673 3.985086 2.843264 0
M  V30 19 N -3.826971 4.680676 3.191219 0
M  V30 20 C -4.998051 4.209829 2.688353 0
M  V30 21 N -5.038200 3.107314 1.884920 0
M  V30 22 C -5.191581 0.822410 0.210757 0
M  V30 23 C -5.213814 -0.289716 -0.596427 0
M  V30 24 O -6.272484 -0.732304 -1.063207 0
M  V30 25 N -4.035026 -0.875647 -0.856630 0
M  V30 26 C -4.069934 -2.042077 -1.701559 0
M  V30 27 C -1.041284 -2.150125 -1.382987 0 CFG=2
M  V30 28 C -0.855545 -3.410305 -0.552155 0
M  V30 29 C 0.386924 -1.767134 -1.810960 0
M  V30 30 C 4.159531 -0.603689 1.378451 0
M  V30 31 C 5.087253 -0.890351 2.340286 0
M  V30 32 H 6.194380 -2.282017 4.339412 0
M  V30 33 H 7.438912 -1.343749 3.474956 0
M  V30 34 H 7.401929 -3.183188 3.270224 0
M  V30 35 H 6.194831 -3.820217 1.225943 0
M  V30 36 H 4.537739 -3.346352 -0.525448 0
M  V30 37 H 1.393546 -0.636863 0.972244 0
M  V30 38 H 0.275074 -1.964673 1.293434 0
M  V30 39 H -0.819336 0.328977 0.824002 0
M  V30 40 H 0.000182 0.337106 -0.730011 0
M  V30 41 H -1.749315 2.372649 1.808743 0
M  V30 42 H -1.759692 4.371403 3.253646 0
M  V30 43 H -5.853150 4.781651 2.983811 0
M  V30 44 H -6.099111 1.318262 0.443429 0
M  V30 45 H -3.563900 -2.930662 -1.278131 0
M  V30 46 H -3.790140 -1.809455 -2.755387 0
M  V30 47 H -5.141341 -2.413511 -1.823595 0
M  V30 48 H -1.550275 -2.340014 -2.350927 0
M  V30 49 H 0.192007 -3.676371 -0.367401 0
M  V30 50 H -1.407961 -3.401594 0.394991 0
M  V30 51 H -1.245102 -4.248890 -1.205322 0
M  V30 52 H 0.744001 -2.550001 -2.531828 0
M  V30 53 H 0.447047 -0.815444 -2.323195 0
M  V30 54 H 3.560701 0.295194 1.380052 0
M  V30 55 H 5.170523 -0.128535 3.115198 0
M  V30 END ATOM
M  V30 BEGIN BOND
M  V30 1 1 1 2
M  V30 2 2 2 3
M  V30 3 1 3 4
M  V30 4 2 4 5
M  V30 5 1 5 6
M  V30 6 2 6 7
M  V30 7 2 6 8
M  V30 8 1 6 9
M  V30 9 1 9 10
M  V30 10 1 10 11
M  V30 11 1 11 12
M  V30 12 1 12 13
M  V30 13 2 13 14
M  V30 14 1 14 15
M  V30 15 1 15 16
M  V30 16 2 16 17
M  V30 17 1 17 18
M  V30 18 2 18 19
M  V30 19 1 19 20
M  V30 20 2 20 21
M  V30 21 2 15 22
M  V30 22 1 22 23
M  V30 23 2 23 24
M  V30 24 1 23 25
M  V30 25 1 25 26
M  V30 26 1 12 27
M  V30 27 1 27 28
M  V30 28 1 27 29
M  V30 29 1 5 30
M  V30 30 2 30 31
M  V30 31 1 31 2
M  V30 32 1 29 9
M  V30 33 1 25 13
M  V30 34 1 21 16
M  V30 35 1 1 32
M  V30 36 1 1 33
M  V30 37 1 1 34
M  V30 38 1 3 35
M  V30 39 1 4 36
M  V30 40 1 10 37
M  V30 41 1 10 38
M  V30 42 1 11 39
M  V30 43 1 11 40
M  V30 44 1 17 41
M  V30 45 1 18 42
M  V30 46 1 20 43
M  V30 47 1 22 44
M  V30 48 1 26 45
M  V30 49 1 26 46
M  V30 50 1 26 47
M  V30 51 1 27 48 CFG=3
M  V30 52 1 28 49
M  V30 53 1 28 50
M  V30 54 1 28 51
M  V30 55 1 29 52
M  V30 56 1 29 53
M  V30 57 1 30 54
M  V30 58 1 31 55
M  V30 END BOND
M  V30 END CTAB
M  END
>  <Dataset>  (473) 
ChEMBL_Kinases

>  <Ligand_Instance>  (473) 
nan

>  <PDB_ID>  (473) 
nan

>  <Standardized_SMILES>  (473) 
Cc1ccc(S(=O)(=O)N2CCN(c3nc(-c4ccncn4)cc(=O)n3C)[C@H](C)C2)cc1

>  <Name>  (473) 
nan

>  <Pocket>  (473) 
nan

>  <ATP_Site>  (473) 
nan

>  <Peripheral>  (473) 
nan

>  <Num_H_Atoms_ProtBoundConf>  (473) 
nan

>  <Num_Resolved_Atoms>  (473) 
nan

>  <Num_Not_Resolved_Atoms>  (473) 
nan

$$$$
CHEMBL4102907
     RDKit          3D

  0  0  0  0  0  0  0  0  0  0999 V3000
M  V30 BEGIN CTAB
M  V30 COUNTS 28 30 0 0 0
M  V30 BEGIN ATOM
M  V30 1 C -0.111682 -1.918754 4.728440 0
M  V30 2 S 0.708046 -0.435871 4.185753 0 CHG=1 VAL=3
M  V30 3 O 2.187604 -0.303887 4.986540 0 CHG=-1 VAL=1
M  V30 4 C 1.068153 -0.662884 2.474379 0
M  V30 5 S 2.618717 -1.403303 1.844274 0
M  V30 6 C 2.219933 -1.278024 0.160252 0
M  V30 7 C 3.110402 -1.727054 -0.874771 0
M  V30 8 N 2.771739 -1.618606 -2.252351 0
M  V30 9 O 4.206006 -2.222315 -0.522372 0
M  V30 10 C 0.927869 -0.680689 0.127137 0
M  V30 11 C 0.387967 -0.388095 1.329960 0
M  V30 12 C -0.963177 0.244131 1.362709 0
M  V30 13 S -2.013287 0.776360 2.594261 0
M  V30 14 N -3.387168 1.382275 1.508217 0
M  V30 15 C -2.806337 1.070653 0.313387 0
M  V30 16 C -1.595269 0.498463 0.134674 0
M  V30 17 C -1.029469 0.191485 -1.195032 0
M  V30 18 C 0.287667 -0.428436 -1.160395 0
M  V30 19 H 0.637036 -2.734482 4.817926 0
M  V30 20 H -0.781884 -2.212995 3.904496 0
M  V30 21 H -0.656987 -1.757425 5.692205 0
M  V30 22 H 2.402138 -1.829148 -3.203078 0
M  V30 23 H 3.204788 -0.668147 -2.321166 0
M  V30 24 H -3.582803 1.409990 -0.392393 0
M  V30 25 H -1.790121 -0.394251 -1.798087 0
M  V30 26 H -0.971550 1.159399 -1.781568 0
M  V30 27 H 0.978126 0.112740 -1.880528 0
M  V30 28 H 0.179149 -1.434117 -1.680258 0
M  V30 END ATOM
M  V30 BEGIN BOND
M  V30 1 1 1 2
M  V30 2 1 2 3
M  V30 3 1 2 4
M  V30 4 1 4 5
M  V30 5 1 5 6
M  V30 6 1 6 7
M  V30 7 1 7 8
M  V30 8 2 7 9
M  V30 9 2 6 10
M  V30 10 1 10 11
M  V30 11 1 11 12
M  V30 12 1 12 13
M  V30 13 1 13 14
M  V30 14 2 14 15
M  V30 15 1 15 16
M  V30 16 1 16 17
M  V30 17 1 17 18
M  V30 18 2 11 4
M  V30 19 2 16 12
M  V30 20 1 18 10
M  V30 21 1 1 19
M  V30 22 1 1 20
M  V30 23 1 1 21
M  V30 24 1 8 22
M  V30 25 1 8 23
M  V30 26 1 15 24
M  V30 27 1 17 25
M  V30 28 1 17 26
M  V30 29 1 18 27
M  V30 30 1 18 28
M  V30 END BOND
M  V30 END CTAB
M  END
>  <Dataset>  (474) 
ChEMBL_Kinases

>  <Ligand_Instance>  (474) 
nan

>  <PDB_ID>  (474) 
nan

>  <Standardized_SMILES>  (474) 
C[S+]([O-])c1sc(C(N)=O)c2c1-c1sncc1CC2

>  <Name>  (474) 
nan

>  <Pocket>  (474) 
nan

>  <ATP_Site>  (474) 
nan

>  <Peripheral>  (474) 
nan

>  <Num_H_Atoms_ProtBoundConf>  (474) 
nan

>  <Num_Resolved_Atoms>  (474) 
nan

>  <Num_Not_Resolved_Atoms>  (474) 
nan

$$$$
CHEMBL4799009
     RDKit          3D

  0  0  0  0  0  0  0  0  0  0999 V3000
M  V30 BEGIN CTAB
M  V30 COUNTS 40 43 0 0 0
M  V30 BEGIN ATOM
M  V30 1 F -0.288249 -5.073893 1.071619 0
M  V30 2 C 0.964916 -5.059849 0.443948 0
M  V30 3 F 1.901649 -5.619984 1.301385 0
M  V30 4 F 0.886081 -5.806157 -0.724932 0
M  V30 5 C 1.364997 -3.669282 0.114220 0
M  V30 6 C 1.614006 -3.259086 -1.178843 0
M  V30 7 N 1.980124 -1.969065 -1.434462 0
M  V30 8 C 2.096506 -1.096077 -0.404975 0
M  V30 9 N 2.456116 0.279561 -0.429201 0
M  V30 10 C 1.412769 1.246896 -0.516816 0
M  V30 11 C 1.662247 2.610392 -0.515710 0
M  V30 12 C 0.663262 3.561481 -0.596487 0
M  V30 13 C -0.667086 3.159996 -0.684152 0
M  V30 14 C -0.946858 1.787056 -0.687779 0
M  V30 15 C 0.086223 0.875705 -0.605035 0
M  V30 16 O -2.276544 1.355101 -0.775952 0
M  V30 17 C -3.329624 2.252767 -1.081781 0
M  V30 18 C -3.082142 3.620325 -0.472455 0
M  V30 19 O -1.737936 4.034746 -0.768211 0
M  V30 20 N 1.844420 -1.531851 0.856278 0
M  V30 21 C 1.480903 -2.787028 1.168514 0
M  V30 22 N 1.230248 -3.155643 2.542558 0
M  V30 23 C 1.384472 -2.143846 3.559557 0
M  V30 24 C 1.136643 -2.440009 4.983957 0
M  V30 25 C 0.067230 -1.693208 4.215552 0
M  V30 26 H 1.526022 -3.942385 -2.010647 0
M  V30 27 H 3.441594 0.646577 -0.388122 0
M  V30 28 H 2.693466 2.977896 -0.448542 0
M  V30 29 H 0.864416 4.632161 -0.594890 0
M  V30 30 H -0.188473 -0.176638 -0.611865 0
M  V30 31 H -3.453433 2.422116 -2.164683 0
M  V30 32 H -4.253048 1.844962 -0.646851 0
M  V30 33 H -3.140870 3.502476 0.629981 0
M  V30 34 H -3.789183 4.344277 -0.873604 0
M  V30 35 H 0.946416 -4.134683 2.762019 0
M  V30 36 H 2.089784 -1.331747 3.319694 0
M  V30 37 H 1.685263 -1.830451 5.730421 0
M  V30 38 H 0.810450 -3.452589 5.304916 0
M  V30 39 H -0.863112 -2.206983 3.906972 0
M  V30 40 H -0.070183 -0.622479 4.410230 0
M  V30 END ATOM
M  V30 BEGIN BOND
M  V30 1 1 1 2
M  V30 2 1 2 3
M  V30 3 1 2 4
M  V30 4 1 2 5
M  V30 5 2 5 6
M  V30 6 1 6 7
M  V30 7 2 7 8
M  V30 8 1 8 9
M  V30 9 1 9 10
M  V30 10 2 10 11
M  V30 11 1 11 12
M  V30 12 2 12 13
M  V30 13 1 13 14
M  V30 14 2 14 15
M  V30 15 1 14 16
M  V30 16 1 16 17
M  V30 17 1 17 18
M  V30 18 1 18 19
M  V30 19 1 8 20
M  V30 20 2 20 21
M  V30 21 1 21 22
M  V30 22 1 22 23
M  V30 23 1 23 24
M  V30 24 1 24 25
M  V30 25 1 21 5
M  V30 26 1 25 23
M  V30 27 1 15 10
M  V30 28 1 19 13
M  V30 29 1 6 26
M  V30 30 1 9 27
M  V30 31 1 11 28
M  V30 32 1 12 29
M  V30 33 1 15 30
M  V30 34 1 17 31
M  V30 35 1 17 32
M  V30 36 1 18 33
M  V30 37 1 18 34
M  V30 38 1 22 35
M  V30 39 1 23 36
M  V30 40 1 24 37
M  V30 41 1 24 38
M  V30 42 1 25 39
M  V30 43 1 25 40
M  V30 END BOND
M  V30 END CTAB
M  END
>  <Dataset>  (475) 
ChEMBL_Kinases

>  <Ligand_Instance>  (475) 
nan

>  <PDB_ID>  (475) 
nan

>  <Standardized_SMILES>  (475) 
FC(F)(F)c1cnc(Nc2ccc3c(c2)OCCO3)nc1NC1CC1

>  <Name>  (475) 
nan

>  <Pocket>  (475) 
nan

>  <ATP_Site>  (475) 
nan

>  <Peripheral>  (475) 
nan

>  <Num_H_Atoms_ProtBoundConf>  (475) 
nan

>  <Num_Resolved_Atoms>  (475) 
nan

>  <Num_Not_Resolved_Atoms>  (475) 
nan

$$$$
CHEMBL4799010
     RDKit          3D

  0  0  0  0  0  0  0  0  0  0999 V3000
M  V30 BEGIN CTAB
M  V30 COUNTS 69 72 0 0 0
M  V30 BEGIN ATOM
M  V30 1 C 2.019026 5.765199 -4.735212 0
M  V30 2 O 2.808426 5.111529 -3.731577 0
M  V30 3 C 3.805029 4.218013 -4.053515 0
M  V30 4 O 4.026172 3.970404 -5.266787 0
M  V30 5 C 4.599436 3.560452 -3.067248 0
M  V30 6 S 5.850063 2.443616 -3.522674 0
M  V30 7 C 6.392218 2.039907 -1.799778 0
M  V30 8 C 5.507816 2.850211 -0.986227 0
M  V30 9 C 5.631729 2.805953 0.491845 0
M  V30 10 C 4.619787 3.598974 -1.708267 0
M  V30 11 N 3.674562 4.450772 -1.074065 0
M  V30 12 C 2.408957 3.921150 -0.723664 0
M  V30 13 N 2.162612 2.638678 -1.004436 0
M  V30 14 C 1.017248 2.001546 -0.732996 0
M  V30 15 N 0.905018 0.633988 -1.097843 0
M  V30 16 C -0.182072 -0.246225 -0.910872 0
M  V30 17 C -1.372487 0.083080 -0.299466 0
M  V30 18 C -2.447015 -0.759374 -0.102886 0
M  V30 19 C -2.348985 -2.061795 -0.550635 0
M  V30 20 N -3.398702 -3.010922 -0.400510 0
M  V30 21 C -3.261063 -4.398636 -0.738809 0
M  V30 22 C -4.192480 -5.333075 -0.055625 0
M  V30 23 C -4.829206 -4.866784 1.197570 0
M  V30 24 N -4.312658 -5.515047 2.386396 0
M  V30 25 C -2.923150 -5.311030 2.623342 0
M  V30 26 C -4.764221 -6.872623 2.562773 0
M  V30 27 C -4.756433 -3.391363 1.466885 0
M  V30 28 C -4.723122 -2.696253 0.101966 0
M  V30 29 C -1.175487 -2.432679 -1.168039 0
M  V30 30 C -0.123547 -1.575477 -1.350535 0
M  V30 31 O 1.055095 -2.000389 -1.987868 0
M  V30 32 C 1.238225 -3.294866 -2.469675 0
M  V30 33 N 0.059034 2.714658 -0.136535 0
M  V30 34 C 0.235981 4.002240 0.173946 0
M  V30 35 C 1.410527 4.633686 -0.111052 0
M  V30 36 N 1.621458 5.995803 0.207753 0 CHG=1 VAL=4
M  V30 37 O 1.013036 6.496687 1.150441 0
M  V30 38 O 2.417314 6.959624 -0.344779 0 CHG=-1 VAL=1
M  V30 39 H 2.623856 6.102395 -5.595994 0
M  V30 40 H 1.470036 6.608767 -4.271148 0
M  V30 41 H 1.246113 5.049835 -5.098889 0
M  V30 42 H 7.190993 1.358000 -1.354570 0
M  V30 43 H 6.682655 2.979714 0.803954 0
M  V30 44 H 4.984453 3.575442 0.941125 0
M  V30 45 H 5.347306 1.812503 0.903127 0
M  V30 46 H 4.042684 5.396317 -0.939070 0
M  V30 47 H 1.741419 0.198711 -1.576641 0
M  V30 48 H -1.530239 1.067346 0.075921 0
M  V30 49 H -3.349037 -0.420822 0.388640 0
M  V30 50 H -3.418851 -4.448154 -1.858565 0
M  V30 51 H -2.204562 -4.709562 -0.605008 0
M  V30 52 H -5.015757 -5.584911 -0.792613 0
M  V30 53 H -3.721046 -6.352566 0.114612 0
M  V30 54 H -5.929148 -5.117799 1.157604 0
M  V30 55 H -2.318063 -5.073254 1.746918 0
M  V30 56 H -2.530093 -6.171714 3.208114 0
M  V30 57 H -2.827753 -4.433696 3.331318 0
M  V30 58 H -5.843718 -6.909013 2.403742 0
M  V30 59 H -4.207261 -7.617863 1.963082 0
M  V30 60 H -4.585901 -7.099922 3.654298 0
M  V30 61 H -5.604871 -3.081896 2.075615 0
M  V30 62 H -3.768573 -3.192431 1.948855 0
M  V30 63 H -4.942557 -1.631260 0.185792 0
M  V30 64 H -5.493062 -3.241849 -0.509800 0
M  V30 65 H -0.989112 -3.435735 -1.563942 0
M  V30 66 H 0.661602 -3.394115 -3.422094 0
M  V30 67 H 2.333203 -3.435512 -2.627791 0
M  V30 68 H 0.942991 -4.067219 -1.718161 0
M  V30 69 H -0.578237 4.524630 0.654340 0
M  V30 END ATOM
M  V30 BEGIN BOND
M  V30 1 1 1 2
M  V30 2 1 2 3
M  V30 3 2 3 4
M  V30 4 1 3 5
M  V30 5 1 5 6
M  V30 6 1 6 7
M  V30 7 2 7 8
M  V30 8 1 8 9
M  V30 9 1 8 10
M  V30 10 1 10 11
M  V30 11 1 11 12
M  V30 12 2 12 13
M  V30 13 1 13 14
M  V30 14 1 14 15
M  V30 15 1 15 16
M  V30 16 2 16 17
M  V30 17 1 17 18
M  V30 18 2 18 19
M  V30 19 1 19 20
M  V30 20 1 20 21
M  V30 21 1 21 22
M  V30 22 1 22 23
M  V30 23 1 23 24
M  V30 24 1 24 25
M  V30 25 1 24 26
M  V30 26 1 23 27
M  V30 27 1 27 28
M  V30 28 1 19 29
M  V30 29 2 29 30
M  V30 30 1 30 31
M  V30 31 1 31 32
M  V30 32 2 14 33
M  V30 33 1 33 34
M  V30 34 2 34 35
M  V30 35 1 35 36
M  V30 36 2 36 37
M  V30 37 1 36 38
M  V30 38 2 10 5
M  V30 39 1 35 12
M  V30 40 1 30 16
M  V30 41 1 28 20
M  V30 42 1 1 39
M  V30 43 1 1 40
M  V30 44 1 1 41
M  V30 45 1 7 42
M  V30 46 1 9 43
M  V30 47 1 9 44
M  V30 48 1 9 45
M  V30 49 1 11 46
M  V30 50 1 15 47
M  V30 51 1 17 48
M  V30 52 1 18 49
M  V30 53 1 21 50
M  V30 54 1 21 51
M  V30 55 1 22 52
M  V30 56 1 22 53
M  V30 57 1 23 54
M  V30 58 1 25 55
M  V30 59 1 25 56
M  V30 60 1 25 57
M  V30 61 1 26 58
M  V30 62 1 26 59
M  V30 63 1 26 60
M  V30 64 1 27 61
M  V30 65 1 27 62
M  V30 66 1 28 63
M  V30 67 1 28 64
M  V30 68 1 29 65
M  V30 69 1 32 66
M  V30 70 1 32 67
M  V30 71 1 32 68
M  V30 72 1 34 69
M  V30 END BOND
M  V30 END CTAB
M  END
>  <Dataset>  (476) 
ChEMBL_Kinases

>  <Ligand_Instance>  (476) 
nan

>  <PDB_ID>  (476) 
nan

>  <Standardized_SMILES>  (476) 
COC(=O)c1scc(C)c1Nc1nc(Nc2ccc(N3CCC(N(C)C)CC3)cc2OC)ncc1[N+](=O)[O-]

>  <Name>  (476) 
nan

>  <Pocket>  (476) 
nan

>  <ATP_Site>  (476) 
nan

>  <Peripheral>  (476) 
nan

>  <Num_H_Atoms_ProtBoundConf>  (476) 
nan

>  <Num_Resolved_Atoms>  (476) 
nan

>  <Num_Not_Resolved_Atoms>  (476) 
nan

$$$$
CHEMBL4102347
     RDKit          3D

  0  0  0  0  0  0  0  0  0  0999 V3000
M  V30 BEGIN CTAB
M  V30 COUNTS 50 53 0 0 0
M  V30 BEGIN ATOM
M  V30 1 C 1.759815 -3.416031 3.610778 0
M  V30 2 C 1.674889 -3.202731 2.148384 0
M  V30 3 C 0.570857 -3.733668 1.513484 0
M  V30 4 C 0.695384 -3.406469 0.175589 0
M  V30 5 N 0.114954 -3.510592 -1.137240 0
M  V30 6 C -0.818285 -2.410329 -1.255672 0
M  V30 7 N -0.330890 -1.165150 -1.438387 0
M  V30 8 C -1.099653 -0.062708 -1.567333 0
M  V30 9 C -0.301105 1.147713 -1.738541 0
M  V30 10 O 0.012893 1.865964 -2.713322 0
M  V30 11 N 0.254283 1.624327 -0.499604 0
M  V30 12 C 1.097216 2.805664 -0.342486 0
M  V30 13 C 2.314053 2.365214 0.453556 0
M  V30 14 C 1.929931 2.172504 1.910929 0
M  V30 15 C 2.172094 3.393673 2.751830 0
M  V30 16 N 2.665292 1.049221 2.430405 0
M  V30 17 C 0.431623 1.896462 1.924932 0
M  V30 18 C 0.047827 0.988145 0.805073 0
M  V30 19 N -2.454232 -0.208214 -1.510879 0
M  V30 20 C -3.004230 -1.433134 -1.329243 0
M  V30 21 C -4.376076 -1.522936 -1.282377 0
M  V30 22 C -4.898549 -2.806362 -1.096435 0
M  V30 23 C -4.090047 -3.932272 -0.966494 0
M  V30 24 Cl -4.853009 -5.490659 -0.740922 0
M  V30 25 C -2.717387 -3.800089 -1.018073 0
M  V30 26 C -2.194433 -2.540605 -1.200101 0
M  V30 27 N 1.852398 -2.699648 0.050729 0
M  V30 28 N 2.441178 -2.579313 1.243327 0
M  V30 29 H 2.775337 -3.102149 3.939973 0
M  V30 30 H 1.575067 -4.457908 3.903878 0
M  V30 31 H 0.961915 -2.811438 4.082885 0
M  V30 32 H -0.342998 -4.297810 1.669664 0
M  V30 33 H 0.363998 -4.253902 -1.808703 0
M  V30 34 H 0.581072 3.655829 0.122428 0
M  V30 35 H 1.494287 3.153243 -1.329061 0
M  V30 36 H 3.165952 3.055067 0.344403 0
M  V30 37 H 2.598259 1.346801 0.069333 0
M  V30 38 H 3.181610 3.795826 2.662824 0
M  V30 39 H 2.026481 3.040865 3.818286 0
M  V30 40 H 1.386807 4.143695 2.498435 0
M  V30 41 H 3.587362 0.889329 1.969449 0
M  V30 42 H 2.825969 1.130711 3.449356 0
M  V30 43 H 0.184534 1.422416 2.876586 0
M  V30 44 H -0.157598 2.826441 1.842021 0
M  V30 45 H -1.039648 0.785266 0.885230 0
M  V30 46 H 0.578734 0.025556 0.806889 0
M  V30 47 H -5.037691 -0.673225 -1.385140 0
M  V30 48 H -5.966281 -2.928755 -1.054140 0
M  V30 49 H -2.069883 -4.663866 -0.915136 0
M  V30 50 H 3.331444 -2.111411 1.537895 0
M  V30 END ATOM
M  V30 BEGIN BOND
M  V30 1 1 1 2
M  V30 2 2 2 3
M  V30 3 1 3 4
M  V30 4 1 4 5
M  V30 5 1 5 6
M  V30 6 2 6 7
M  V30 7 1 7 8
M  V30 8 1 8 9
M  V30 9 2 9 10
M  V30 10 1 9 11
M  V30 11 1 11 12
M  V30 12 1 12 13
M  V30 13 1 13 14
M  V30 14 1 14 15
M  V30 15 1 14 16
M  V30 16 1 14 17
M  V30 17 1 17 18
M  V30 18 2 8 19
M  V30 19 1 19 20
M  V30 20 2 20 21
M  V30 21 1 21 22
M  V30 22 2 22 23
M  V30 23 1 23 24
M  V30 24 1 23 25
M  V30 25 2 25 26
M  V30 26 2 4 27
M  V30 27 1 27 28
M  V30 28 1 28 2
M  V30 29 1 26 6
M  V30 30 1 18 11
M  V30 31 1 26 20
M  V30 32 1 1 29
M  V30 33 1 1 30
M  V30 34 1 1 31
M  V30 35 1 3 32
M  V30 36 1 5 33
M  V30 37 1 12 34
M  V30 38 1 12 35
M  V30 39 1 13 36
M  V30 40 1 13 37
M  V30 41 1 15 38
M  V30 42 1 15 39
M  V30 43 1 15 40
M  V30 44 1 16 41
M  V30 45 1 16 42
M  V30 46 1 17 43
M  V30 47 1 17 44
M  V30 48 1 18 45
M  V30 49 1 18 46
M  V30 50 1 21 47
M  V30 51 1 22 48
M  V30 52 1 25 49
M  V30 53 1 28 50
M  V30 END BOND
M  V30 END CTAB
M  END
>  <Dataset>  (477) 
ChEMBL_Kinases

>  <Ligand_Instance>  (477) 
nan

>  <PDB_ID>  (477) 
nan

>  <Standardized_SMILES>  (477) 
Cc1cc(Nc2nc(C(=O)N3CCC(C)(N)CC3)nc3ccc(Cl)cc23)n[nH]1

>  <Name>  (477) 
nan

>  <Pocket>  (477) 
nan

>  <ATP_Site>  (477) 
nan

>  <Peripheral>  (477) 
nan

>  <Num_H_Atoms_ProtBoundConf>  (477) 
nan

>  <Num_Resolved_Atoms>  (477) 
nan

>  <Num_Not_Resolved_Atoms>  (477) 
nan

$$$$
CHEMBL4102854
     RDKit          3D

  0  0  0  0  0  0  0  0  0  0999 V3000
M  V30 BEGIN CTAB
M  V30 COUNTS 61 65 0 0 0
M  V30 BEGIN ATOM
M  V30 1 C 10.008096 -1.221113 1.722286 0
M  V30 2 N 8.809105 -0.546246 2.227347 0
M  V30 3 C 7.643328 -0.511703 1.429869 0
M  V30 4 O 7.755398 -1.091353 0.312061 0
M  V30 5 C 6.419954 0.145626 1.879954 0
M  V30 6 C 6.292459 0.780269 3.099903 0
M  V30 7 C 5.111022 1.387701 3.477448 0
M  V30 8 C 4.012063 1.381244 2.644625 0
M  V30 9 C 4.161987 0.733483 1.414259 0
M  V30 10 C 5.346420 0.109565 1.004724 0
M  V30 11 C 3.118570 0.609815 0.380068 0
M  V30 12 O 3.540061 0.426938 -0.798109 0
M  V30 13 C 1.664167 0.685566 0.639229 0
M  V30 14 C 1.003253 0.438143 -0.549877 0
M  V30 15 C -0.397008 0.464002 -0.517539 0
M  V30 16 C -1.013453 0.731976 0.686669 0
M  V30 17 N -2.433604 0.766868 0.755282 0
M  V30 18 C -3.374007 0.579766 -0.296205 0
M  V30 19 C -4.310643 -0.448880 -0.253205 0
M  V30 20 C -5.217798 -0.628781 -1.266768 0
M  V30 21 N -6.112443 -1.737795 -1.062330 0
M  V30 22 C -5.575059 -2.931801 -1.608845 0
M  V30 23 O -4.463320 -2.794983 -2.145773 0
M  V30 24 C -6.315540 -4.196086 -1.518487 0
M  V30 25 C -7.548516 -4.401196 -0.935090 0
M  V30 26 C -8.109648 -5.660571 -0.934889 0
M  V30 27 C -7.500274 -6.757383 -1.495866 0
M  V30 28 C -6.266069 -6.556019 -2.080742 0
M  V30 29 C -5.693938 -5.300070 -2.087339 0
M  V30 30 C -5.236872 0.205746 -2.371424 0
M  V30 31 F -6.156095 -0.038219 -3.319385 0
M  V30 32 C -4.320244 1.238398 -2.446923 0
M  V30 33 C -3.421743 1.391692 -1.410955 0
M  V30 34 F -2.556074 2.415779 -1.542121 0
M  V30 35 C -0.358709 0.979241 1.874891 0
M  V30 36 C 1.030328 0.952485 1.837988 0
M  V30 37 C 1.573538 1.236333 3.192160 0
M  V30 38 C 2.821727 2.071957 3.187266 0
M  V30 39 H 10.383483 -0.739533 0.810459 0
M  V30 40 H 9.688727 -2.260207 1.499665 0
M  V30 41 H 10.795072 -1.271784 2.475408 0
M  V30 42 H 8.849741 -0.112628 3.156449 0
M  V30 43 H 7.127042 0.800925 3.765397 0
M  V30 44 H 5.041702 1.878015 4.441238 0
M  V30 45 H 5.341245 -0.362614 0.022306 0
M  V30 46 H 1.556723 0.237491 -1.446415 0
M  V30 47 H -0.925646 0.271680 -1.439220 0
M  V30 48 H -2.989065 0.938160 1.603447 0
M  V30 49 H -4.251039 -1.081302 0.646121 0
M  V30 50 H -7.042970 -1.708657 -0.580413 0
M  V30 51 H -7.999684 -3.519502 -0.503688 0
M  V30 52 H -9.080962 -5.791771 -0.468386 0
M  V30 53 H -7.948729 -7.747146 -1.491962 0
M  V30 54 H -5.758556 -7.395503 -2.530953 0
M  V30 55 H -4.713057 -5.220105 -2.570587 0
M  V30 56 H -4.326109 1.896728 -3.305754 0
M  V30 57 H -0.883059 1.182878 2.786399 0
M  V30 58 H 1.709972 0.274080 3.695961 0
M  V30 59 H 0.816497 1.821698 3.769826 0
M  V30 60 H 2.606541 3.048000 2.714791 0
M  V30 61 H 3.043897 2.290086 4.261184 0
M  V30 END ATOM
M  V30 BEGIN BOND
M  V30 1 1 1 2
M  V30 2 1 2 3
M  V30 3 2 3 4
M  V30 4 1 3 5
M  V30 5 2 5 6
M  V30 6 1 6 7
M  V30 7 2 7 8
M  V30 8 1 8 9
M  V30 9 2 9 10
M  V30 10 1 9 11
M  V30 11 2 11 12
M  V30 12 1 11 13
M  V30 13 2 13 14
M  V30 14 1 14 15
M  V30 15 2 15 16
M  V30 16 1 16 17
M  V30 17 1 17 18
M  V30 18 2 18 19
M  V30 19 1 19 20
M  V30 20 1 20 21
M  V30 21 1 21 22
M  V30 22 2 22 23
M  V30 23 1 22 24
M  V30 24 2 24 25
M  V30 25 1 25 26
M  V30 26 2 26 27
M  V30 27 1 27 28
M  V30 28 2 28 29
M  V30 29 2 20 30
M  V30 30 1 30 31
M  V30 31 1 30 32
M  V30 32 2 32 33
M  V30 33 1 33 34
M  V30 34 1 16 35
M  V30 35 2 35 36
M  V30 36 1 36 37
M  V30 37 1 37 38
M  V30 38 1 10 5
M  V30 39 1 36 13
M  V30 40 1 38 8
M  V30 41 1 33 18
M  V30 42 1 29 24
M  V30 43 1 1 39
M  V30 44 1 1 40
M  V30 45 1 1 41
M  V30 46 1 2 42
M  V30 47 1 6 43
M  V30 48 1 7 44
M  V30 49 1 10 45
M  V30 50 1 14 46
M  V30 51 1 15 47
M  V30 52 1 17 48
M  V30 53 1 19 49
M  V30 54 1 21 50
M  V30 55 1 25 51
M  V30 56 1 26 52
M  V30 57 1 27 53
M  V30 58 1 28 54
M  V30 59 1 29 55
M  V30 60 1 32 56
M  V30 61 1 35 57
M  V30 62 1 37 58
M  V30 63 1 37 59
M  V30 64 1 38 60
M  V30 65 1 38 61
M  V30 END BOND
M  V30 END CTAB
M  END
>  <Dataset>  (478) 
ChEMBL_Kinases

>  <Ligand_Instance>  (478) 
nan

>  <PDB_ID>  (478) 
nan

>  <Standardized_SMILES>  (478) 
CNC(=O)c1ccc2c(c1)C(=O)c1ccc(Nc3cc(NC(=O)c4ccccc4)c(F)cc3F)cc1CC2

>  <Name>  (478) 
nan

>  <Pocket>  (478) 
nan

>  <ATP_Site>  (478) 
nan

>  <Peripheral>  (478) 
nan

>  <Num_H_Atoms_ProtBoundConf>  (478) 
nan

>  <Num_Resolved_Atoms>  (478) 
nan

>  <Num_Not_Resolved_Atoms>  (478) 
nan

$$$$
CHEMBL4102839
     RDKit          3D

  0  0  0  0  0  0  0  0  0  0999 V3000
M  V30 BEGIN CTAB
M  V30 COUNTS 41 44 0 0 0
M  V30 BEGIN ATOM
M  V30 1 C 0.578117 -3.489069 3.132071 0
M  V30 2 O 1.975472 -3.514196 3.364630 0
M  V30 3 C 2.773346 -2.692999 2.593279 0
M  V30 4 C 4.150330 -2.684981 2.786934 0
M  V30 5 C 4.996390 -1.879713 2.039894 0
M  V30 6 C 4.440045 -1.068255 1.080087 0
M  V30 7 N 4.944577 -0.172613 0.185031 0
M  V30 8 N 3.965620 0.368330 -0.544171 0
M  V30 9 C 2.772211 -0.142401 -0.166845 0
M  V30 10 C 1.477936 0.208717 -0.737018 0
M  V30 11 C 1.393328 0.280405 -2.112381 0
M  V30 12 C 0.155016 0.614886 -2.616345 0
M  V30 13 N -0.929745 0.864349 -1.862036 0
M  V30 14 C -0.875764 0.801410 -0.512077 0
M  V30 15 N -2.018220 1.063703 0.294587 0
M  V30 16 C -2.065938 1.022983 1.744356 0
M  V30 17 C -3.191693 0.052916 2.079328 0
M  V30 18 O -3.769219 -0.528712 0.977438 0
M  V30 19 C -4.247491 0.321032 0.015685 0
M  V30 20 C -3.262609 1.405894 -0.375130 0
M  V30 21 C 0.350630 0.468799 0.023898 0
M  V30 22 C 3.079057 -1.033111 0.842082 0
M  V30 23 C 2.271012 -1.851865 1.609304 0
M  V30 24 H 0.107053 -2.525793 3.342887 0
M  V30 25 H 0.117348 -4.236032 3.786426 0
M  V30 26 H 0.330371 -3.778395 2.078235 0
M  V30 27 H 4.643470 -3.302175 3.527238 0
M  V30 28 H 6.077645 -1.876824 2.195640 0
M  V30 29 H 5.980420 0.012314 0.137135 0
M  V30 30 H 2.208570 0.097703 -2.810303 0
M  V30 31 H -0.022876 0.699679 -3.697804 0
M  V30 32 H -1.129764 0.785817 2.235920 0
M  V30 33 H -2.358029 2.040183 2.101838 0
M  V30 34 H -3.922767 0.536223 2.740665 0
M  V30 35 H -2.716747 -0.770842 2.659413 0
M  V30 36 H -4.351016 -0.304591 -0.919196 0
M  V30 37 H -5.264993 0.702760 0.221613 0
M  V30 38 H -3.683588 2.361170 0.038786 0
M  V30 39 H -3.137981 1.516576 -1.463424 0
M  V30 40 H 0.492376 0.394539 1.069422 0
M  V30 41 H 1.220933 -1.863871 1.467987 0
M  V30 END ATOM
M  V30 BEGIN BOND
M  V30 1 1 1 2
M  V30 2 1 2 3
M  V30 3 2 3 4
M  V30 4 1 4 5
M  V30 5 2 5 6
M  V30 6 1 6 7
M  V30 7 1 7 8
M  V30 8 2 8 9
M  V30 9 1 9 10
M  V30 10 2 10 11
M  V30 11 1 11 12
M  V30 12 2 12 13
M  V30 13 1 13 14
M  V30 14 1 14 15
M  V30 15 1 15 16
M  V30 16 1 16 17
M  V30 17 1 17 18
M  V30 18 1 18 19
M  V30 19 1 19 20
M  V30 20 2 14 21
M  V30 21 1 9 22
M  V30 22 2 22 23
M  V30 23 1 23 3
M  V30 24 1 22 6
M  V30 25 1 21 10
M  V30 26 1 20 15
M  V30 27 1 1 24
M  V30 28 1 1 25
M  V30 29 1 1 26
M  V30 30 1 4 27
M  V30 31 1 5 28
M  V30 32 1 7 29
M  V30 33 1 11 30
M  V30 34 1 12 31
M  V30 35 1 16 32
M  V30 36 1 16 33
M  V30 37 1 17 34
M  V30 38 1 17 35
M  V30 39 1 19 36
M  V30 40 1 19 37
M  V30 41 1 20 38
M  V30 42 1 20 39
M  V30 43 1 21 40
M  V30 44 1 23 41
M  V30 END BOND
M  V30 END CTAB
M  END
>  <Dataset>  (479) 
ChEMBL_Kinases

>  <Ligand_Instance>  (479) 
nan

>  <PDB_ID>  (479) 
nan

>  <Standardized_SMILES>  (479) 
COc1ccc2[nH]nc(-c3ccnc(N4CCOCC4)c3)c2c1

>  <Name>  (479) 
nan

>  <Pocket>  (479) 
nan

>  <ATP_Site>  (479) 
nan

>  <Peripheral>  (479) 
nan

>  <Num_H_Atoms_ProtBoundConf>  (479) 
nan

>  <Num_Resolved_Atoms>  (479) 
nan

>  <Num_Not_Resolved_Atoms>  (479) 
nan

$$$$
CHEMBL4102777
     RDKit          3D

  0  0  0  0  0  0  0  0  0  0999 V3000
M  V30 BEGIN CTAB
M  V30 COUNTS 29 31 0 0 0
M  V30 BEGIN ATOM
M  V30 1 O -1.025736 -1.818850 -1.150512 0
M  V30 2 C -0.253073 -1.456068 -0.227737 0
M  V30 3 C 1.108187 -2.038987 -0.128499 0
M  V30 4 C 1.939009 -2.023975 0.967006 0
M  V30 5 C 3.193444 -2.606365 0.905668 0
M  V30 6 C 3.604514 -3.206099 -0.268278 0
M  V30 7 O 4.845937 -3.809699 -0.399283 0
M  V30 8 C 2.797363 -3.251188 -1.414756 0
M  V30 9 O 3.242236 -3.872567 -2.595970 0
M  V30 10 C 1.547016 -2.643834 -1.281674 0
M  V30 11 C -0.633911 -0.467731 0.773996 0
M  V30 12 C -1.848066 0.181083 0.445561 0
M  V30 13 C -2.229852 1.131564 1.400590 0
M  V30 14 C -3.198353 2.053771 1.706450 0
M  V30 15 C -3.185141 2.846407 2.840864 0
M  V30 16 C -2.089107 2.647295 3.690305 0
M  V30 17 C -1.079778 1.750690 3.460769 0
M  V30 18 C -1.173321 1.002798 2.306375 0
M  V30 19 O -0.344843 0.110021 1.893581 0
M  V30 20 H 1.543237 -1.529992 1.833924 0
M  V30 21 H 3.830919 -2.574992 1.783639 0
M  V30 22 H 5.692512 -3.285361 -0.657737 0
M  V30 23 H 3.428556 -3.225554 -3.361039 0
M  V30 24 H 0.941076 -2.701295 -2.201018 0
M  V30 25 H -2.598303 0.150389 -0.373995 0
M  V30 26 H -3.994969 2.099721 0.948573 0
M  V30 27 H -3.985382 3.554115 3.008322 0
M  V30 28 H -2.101647 3.290593 4.583165 0
M  V30 29 H -0.249629 1.641713 4.160404 0
M  V30 END ATOM
M  V30 BEGIN BOND
M  V30 1 2 1 2
M  V30 2 1 2 3
M  V30 3 2 3 4
M  V30 4 1 4 5
M  V30 5 2 5 6
M  V30 6 1 6 7
M  V30 7 1 6 8
M  V30 8 1 8 9
M  V30 9 2 8 10
M  V30 10 1 2 11
M  V30 11 2 11 12
M  V30 12 1 12 13
M  V30 13 2 13 14
M  V30 14 1 14 15
M  V30 15 2 15 16
M  V30 16 1 16 17
M  V30 17 2 17 18
M  V30 18 1 18 19
M  V30 19 1 10 3
M  V30 20 1 19 11
M  V30 21 1 18 13
M  V30 22 1 4 20
M  V30 23 1 5 21
M  V30 24 1 7 22
M  V30 25 1 9 23
M  V30 26 1 10 24
M  V30 27 1 12 25
M  V30 28 1 14 26
M  V30 29 1 15 27
M  V30 30 1 16 28
M  V30 31 1 17 29
M  V30 END BOND
M  V30 END CTAB
M  END
>  <Dataset>  (480) 
ChEMBL_Kinases

>  <Ligand_Instance>  (480) 
nan

>  <PDB_ID>  (480) 
nan

>  <Standardized_SMILES>  (480) 
O=C(c1ccc(O)c(O)c1)c1cc2ccccc2o1

>  <Name>  (480) 
nan

>  <Pocket>  (480) 
nan

>  <ATP_Site>  (480) 
nan

>  <Peripheral>  (480) 
nan

>  <Num_H_Atoms_ProtBoundConf>  (480) 
nan

>  <Num_Resolved_Atoms>  (480) 
nan

>  <Num_Not_Resolved_Atoms>  (480) 
nan

$$$$
CHEMBL4102696
     RDKit          3D

  0  0  0  0  0  0  0  0  0  0999 V3000
M  V30 BEGIN CTAB
M  V30 COUNTS 38 41 0 0 0
M  V30 BEGIN ATOM
M  V30 1 C 1.295736 -2.627957 2.639996 0
M  V30 2 C 1.456309 -1.660747 1.526999 0
M  V30 3 C 2.552873 -1.735698 0.694605 0
M  V30 4 N 2.748145 -0.878192 -0.326915 0
M  V30 5 C 1.900726 0.120844 -0.627382 0
M  V30 6 C 2.236472 0.967543 -1.754099 0
M  V30 7 C 3.397590 0.699487 -2.446108 0
M  V30 8 C 3.802299 1.447853 -3.531271 0
M  V30 9 F 4.948278 1.154376 -4.185256 0
M  V30 10 C 3.058019 2.514513 -3.984830 0
M  V30 11 C 1.889685 2.813711 -3.318073 0
M  V30 12 C 1.529488 2.036930 -2.241251 0
M  V30 13 F 0.375525 2.381869 -1.632245 0
M  V30 14 C 0.814940 0.194658 0.197049 0
M  V30 15 C 0.558593 -0.648584 1.254609 0
M  V30 16 N -0.596970 -0.496779 2.067814 0
M  V30 17 C -1.702323 -1.346040 2.341680 0
M  V30 18 C -1.831055 -2.593196 1.771566 0
M  V30 19 C -2.910041 -3.397490 2.057889 0
M  V30 20 N -3.860839 -2.945256 2.919408 0
M  V30 21 C -3.716794 -1.707326 3.474435 0
M  V30 22 C -4.539841 -1.038289 4.365756 0
M  V30 23 N -3.953028 0.140124 4.598910 0
M  V30 24 N -2.822057 0.266093 3.922624 0
M  V30 25 C -2.649542 -0.862703 3.217070 0
M  V30 26 H 0.597815 -2.164017 3.387215 0
M  V30 27 H 0.852528 -3.590267 2.346492 0
M  V30 28 H 2.240714 -2.774486 3.205096 0
M  V30 29 H 3.308232 -2.497358 0.833237 0
M  V30 30 H 4.066052 -0.124481 -2.173131 0
M  V30 31 H 3.334472 3.129258 -4.829905 0
M  V30 32 H 1.279938 3.644011 -3.645983 0
M  V30 33 H 0.096255 0.954726 0.029675 0
M  V30 34 H -0.493731 0.441779 2.479122 0
M  V30 35 H -1.098024 -2.983373 1.081096 0
M  V30 36 H -3.070929 -4.382688 1.646542 0
M  V30 37 H -5.477187 -1.347919 4.818572 0
M  V30 38 H -2.143604 1.073939 3.901174 0
M  V30 END ATOM
M  V30 BEGIN BOND
M  V30 1 1 1 2
M  V30 2 2 2 3
M  V30 3 1 3 4
M  V30 4 2 4 5
M  V30 5 1 5 6
M  V30 6 2 6 7
M  V30 7 1 7 8
M  V30 8 1 8 9
M  V30 9 2 8 10
M  V30 10 1 10 11
M  V30 11 2 11 12
M  V30 12 1 12 13
M  V30 13 1 5 14
M  V30 14 2 14 15
M  V30 15 1 15 16
M  V30 16 1 16 17
M  V30 17 2 17 18
M  V30 18 1 18 19
M  V30 19 2 19 20
M  V30 20 1 20 21
M  V30 21 1 21 22
M  V30 22 2 22 23
M  V30 23 1 23 24
M  V30 24 1 24 25
M  V30 25 1 15 2
M  V30 26 1 25 17
M  V30 27 1 12 6
M  V30 28 2 25 21
M  V30 29 1 1 26
M  V30 30 1 1 27
M  V30 31 1 1 28
M  V30 32 1 3 29
M  V30 33 1 7 30
M  V30 34 1 10 31
M  V30 35 1 11 32
M  V30 36 1 14 33
M  V30 37 1 16 34
M  V30 38 1 18 35
M  V30 39 1 19 36
M  V30 40 1 22 37
M  V30 41 1 24 38
M  V30 END BOND
M  V30 END CTAB
M  END
>  <Dataset>  (481) 
ChEMBL_Kinases

>  <Ligand_Instance>  (481) 
nan

>  <PDB_ID>  (481) 
nan

>  <Standardized_SMILES>  (481) 
Cc1cnc(-c2cc(F)ccc2F)cc1Nc1ccnc2cn[nH]c12

>  <Name>  (481) 
nan

>  <Pocket>  (481) 
nan

>  <ATP_Site>  (481) 
nan

>  <Peripheral>  (481) 
nan

>  <Num_H_Atoms_ProtBoundConf>  (481) 
nan

>  <Num_Resolved_Atoms>  (481) 
nan

>  <Num_Not_Resolved_Atoms>  (481) 
nan

$$$$
CHEMBL4102644
     RDKit          3D

  0  0  0  0  0  0  0  0  0  0999 V3000
M  V30 BEGIN CTAB
M  V30 COUNTS 60 65 0 0 0
M  V30 BEGIN ATOM
M  V30 1 C 5.355658 -4.456016 0.969957 0
M  V30 2 C 6.542319 -3.555409 1.087823 0
M  V30 3 O 6.554605 -2.482851 0.231937 0
M  V30 4 C 5.506315 -1.605908 0.349318 0
M  V30 5 C 4.773627 -1.593283 -0.999188 0
M  V30 6 N 3.753302 -0.568077 -0.890902 0
M  V30 7 C 2.345181 -0.764662 -0.865767 0
M  V30 8 C 1.792150 -2.023566 -0.952002 0
M  V30 9 C 0.412846 -2.092868 -0.915614 0
M  V30 10 C -0.455962 -1.008675 -0.800383 0
M  V30 11 N -1.860740 -1.241480 -0.769599 0
M  V30 12 C -2.890288 -0.953380 0.179938 0
M  V30 13 N -3.668576 0.135447 0.139958 0
M  V30 14 C -4.633866 0.430805 1.024703 0
M  V30 15 C -5.342792 1.595639 0.837771 0
M  V30 16 C -5.171183 2.553273 -0.243463 0
M  V30 17 N -5.867871 3.689159 -0.355077 0
M  V30 18 N -5.478267 4.323703 -1.421674 0
M  V30 19 C -4.520971 3.599583 -2.012285 0
M  V30 20 N -4.326466 2.494883 -1.281120 0
M  V30 21 C -6.317484 1.817556 1.804123 0
M  V30 22 C -6.587741 0.983446 2.865434 0
M  V30 23 C -5.849386 -0.168043 3.004357 0
M  V30 24 C -4.875777 -0.427420 2.072523 0
M  V30 25 C -4.117238 -1.564673 2.178427 0
M  V30 26 C -4.313657 -2.456140 3.199267 0
M  V30 27 N -3.604099 -3.588095 3.356405 0
M  V30 28 C -2.627901 -3.867638 2.443721 0
M  V30 29 C -2.432098 -2.968001 1.416471 0
M  V30 30 C -3.153588 -1.798437 1.240576 0
M  V30 31 C 0.174286 0.216172 -0.719435 0
M  V30 32 Cl -0.824761 1.627305 -0.569226 0
M  V30 33 C 1.546057 0.351478 -0.750163 0
M  V30 34 C 4.346490 0.730105 -0.808109 0
M  V30 35 C 5.789309 0.574431 -0.346243 0
M  V30 36 O 5.900235 -0.319784 0.697254 0
M  V30 37 H 4.395365 -3.941622 0.956778 0
M  V30 38 H 5.429334 -5.136281 0.072203 0
M  V30 39 H 5.415990 -5.165405 1.843288 0
M  V30 40 H 7.455886 -4.161034 0.844771 0
M  V30 41 H 6.682575 -3.253585 2.149072 0
M  V30 42 H 4.832647 -1.963831 1.153152 0
M  V30 43 H 5.536892 -1.347488 -1.777448 0
M  V30 44 H 4.392348 -2.610142 -1.119757 0
M  V30 45 H 2.391070 -2.917951 -1.043125 0
M  V30 46 H 0.002661 -3.100499 -0.986447 0
M  V30 47 H -2.424338 -1.701888 -1.499575 0
M  V30 48 H -4.006385 3.890512 -2.933741 0
M  V30 49 H -3.641932 1.771627 -1.525957 0
M  V30 50 H -6.930407 2.727114 1.729168 0
M  V30 51 H -7.368951 1.248193 3.564035 0
M  V30 52 H -6.111214 -0.773840 3.852854 0
M  V30 53 H -5.044249 -2.359814 3.981898 0
M  V30 54 H -2.032794 -4.770591 2.534721 0
M  V30 55 H -1.659934 -3.233470 0.731601 0
M  V30 56 H 1.947691 1.330123 -0.682694 0
M  V30 57 H 3.888142 1.418813 -0.076229 0
M  V30 58 H 4.307351 1.183149 -1.826873 0
M  V30 59 H 6.139871 1.563277 0.072300 0
M  V30 60 H 6.487385 0.341095 -1.148835 0
M  V30 END ATOM
M  V30 BEGIN BOND
M  V30 1 1 1 2
M  V30 2 1 2 3
M  V30 3 1 3 4
M  V30 4 1 4 5
M  V30 5 1 5 6
M  V30 6 1 6 7
M  V30 7 2 7 8
M  V30 8 1 8 9
M  V30 9 2 9 10
M  V30 10 1 10 11
M  V30 11 1 11 12
M  V30 12 2 12 13
M  V30 13 1 13 14
M  V30 14 2 14 15
M  V30 15 1 15 16
M  V30 16 2 16 17
M  V30 17 1 17 18
M  V30 18 2 18 19
M  V30 19 1 19 20
M  V30 20 1 15 21
M  V30 21 2 21 22
M  V30 22 1 22 23
M  V30 23 2 23 24
M  V30 24 1 24 25
M  V30 25 2 25 26
M  V30 26 1 26 27
M  V30 27 2 27 28
M  V30 28 1 28 29
M  V30 29 2 29 30
M  V30 30 1 10 31
M  V30 31 1 31 32
M  V30 32 2 31 33
M  V30 33 1 6 34
M  V30 34 1 34 35
M  V30 35 1 35 36
M  V30 36 1 36 4
M  V30 37 1 33 7
M  V30 38 1 30 12
M  V30 39 1 24 14
M  V30 40 1 30 25
M  V30 41 1 20 16
M  V30 42 1 1 37
M  V30 43 1 1 38
M  V30 44 1 1 39
M  V30 45 1 2 40
M  V30 46 1 2 41
M  V30 47 1 4 42
M  V30 48 1 5 43
M  V30 49 1 5 44
M  V30 50 1 8 45
M  V30 51 1 9 46
M  V30 52 1 11 47
M  V30 53 1 19 48
M  V30 54 1 20 49
M  V30 55 1 21 50
M  V30 56 1 22 51
M  V30 57 1 23 52
M  V30 58 1 26 53
M  V30 59 1 28 54
M  V30 60 1 29 55
M  V30 61 1 33 56
M  V30 62 1 34 57
M  V30 63 1 34 58
M  V30 64 1 35 59
M  V30 65 1 35 60
M  V30 END BOND
M  V30 END CTAB
M  END
>  <Dataset>  (482) 
ChEMBL_Kinases

>  <Ligand_Instance>  (482) 
nan

>  <PDB_ID>  (482) 
nan

>  <Standardized_SMILES>  (482) 
CCOC1CN(c2ccc(Nc3nc4c(-c5nnc[nH]5)cccc4c4cnccc34)c(Cl)c2)CCO1

>  <Name>  (482) 
nan

>  <Pocket>  (482) 
nan

>  <ATP_Site>  (482) 
nan

>  <Peripheral>  (482) 
nan

>  <Num_H_Atoms_ProtBoundConf>  (482) 
nan

>  <Num_Resolved_Atoms>  (482) 
nan

>  <Num_Not_Resolved_Atoms>  (482) 
nan

$$$$
CHEMBL4799073
     RDKit          3D

  0  0  0  0  0  0  0  0  0  0999 V3000
M  V30 BEGIN CTAB
M  V30 COUNTS 50 55 0 0 0
M  V30 BEGIN ATOM
M  V30 1 C 0.563198 -2.454458 -2.377542 0
M  V30 2 C 1.019328 -3.493801 -1.472562 0
M  V30 3 C 1.790463 -3.047754 -0.391318 0
M  V30 4 C 2.106179 -1.613648 -0.207790 0
M  V30 5 C 1.189802 -0.881582 0.516823 0
M  V30 6 C 1.401815 0.464369 0.731373 0
M  V30 7 C 2.550563 1.072498 0.208884 0
M  V30 8 C 3.455220 0.321673 -0.513222 0
M  V30 9 C 3.241720 -1.023088 -0.727509 0
M  V30 10 F 4.114932 -1.793669 -1.436952 0
M  V30 11 N 2.546064 2.465897 0.562483 0
M  V30 12 C 1.366115 2.680671 1.309863 0
M  V30 13 O 1.119032 3.826100 1.741320 0
M  V30 14 C 0.614973 1.462748 1.445249 0
M  V30 15 C -0.547233 1.364474 2.065691 0
M  V30 16 C -1.242721 2.455328 2.759256 0
M  V30 17 C -2.597531 2.602773 2.426459 0
M  V30 18 C -3.164455 3.647648 3.166345 0
M  V30 19 N -4.374624 4.228490 3.268851 0
M  V30 20 C -4.579019 5.265000 4.124561 0
M  V30 21 C -3.503622 5.710737 4.893242 0
M  V30 22 C -2.250120 5.150708 4.824577 0
M  V30 23 C -2.112190 4.097749 3.931266 0
M  V30 24 N -0.999017 3.391462 3.681953 0
M  V30 25 C 2.276669 -3.949827 0.531923 0
M  V30 26 N 2.017948 -5.261764 0.406721 0
M  V30 27 C 1.287617 -5.765844 -0.600308 0
M  V30 28 C 0.790630 -4.861455 -1.540601 0
M  V30 29 N 0.002503 -5.323313 -2.638727 0
M  V30 30 C -0.629444 -6.629624 -2.450671 0
M  V30 31 C 0.467856 -7.571242 -2.003673 0
M  V30 32 O 1.003005 -7.121603 -0.756201 0
M  V30 33 H 0.156981 -2.734197 -3.339813 0
M  V30 34 H -0.300580 -1.939506 -1.857696 0
M  V30 35 H 1.304285 -1.644542 -2.547332 0
M  V30 36 H 0.304594 -1.327120 0.926257 0
M  V30 37 H 4.363341 0.787870 -0.929945 0
M  V30 38 H 3.301559 3.124045 0.284393 0
M  V30 39 H -0.973848 0.360761 2.025362 0
M  V30 40 H -3.268274 2.079011 1.725806 0
M  V30 41 H -5.565374 5.728756 4.198893 0
M  V30 42 H -3.671762 6.533832 5.570196 0
M  V30 43 H -1.431854 5.502990 5.421270 0
M  V30 44 H -0.046997 3.459487 4.088935 0
M  V30 45 H 2.874940 -3.616327 1.373399 0
M  V30 46 H -0.062385 -4.707250 -3.477491 0
M  V30 47 H -1.028433 -6.977508 -3.400413 0
M  V30 48 H -1.442915 -6.603238 -1.694238 0
M  V30 49 H 1.291183 -7.468799 -2.747728 0
M  V30 50 H 0.171409 -8.615357 -1.930357 0
M  V30 END ATOM
M  V30 BEGIN BOND
M  V30 1 1 1 2
M  V30 2 2 2 3
M  V30 3 1 3 4
M  V30 4 2 4 5
M  V30 5 1 5 6
M  V30 6 2 6 7
M  V30 7 1 7 8
M  V30 8 2 8 9
M  V30 9 1 9 10
M  V30 10 1 7 11
M  V30 11 1 11 12
M  V30 12 2 12 13
M  V30 13 1 12 14
M  V30 14 2 14 15
M  V30 15 1 15 16
M  V30 16 2 16 17
M  V30 17 1 17 18
M  V30 18 2 18 19
M  V30 19 1 19 20
M  V30 20 2 20 21
M  V30 21 1 21 22
M  V30 22 2 22 23
M  V30 23 1 23 24
M  V30 24 1 3 25
M  V30 25 2 25 26
M  V30 26 1 26 27
M  V30 27 2 27 28
M  V30 28 1 28 29
M  V30 29 1 29 30
M  V30 30 1 30 31
M  V30 31 1 31 32
M  V30 32 1 28 2
M  V30 33 1 9 4
M  V30 34 1 24 16
M  V30 35 1 32 27
M  V30 36 1 14 6
M  V30 37 1 23 18
M  V30 38 1 1 33
M  V30 39 1 1 34
M  V30 40 1 1 35
M  V30 41 1 5 36
M  V30 42 1 8 37
M  V30 43 1 11 38
M  V30 44 1 15 39
M  V30 45 1 17 40
M  V30 46 1 20 41
M  V30 47 1 21 42
M  V30 48 1 22 43
M  V30 49 1 24 44
M  V30 50 1 25 45
M  V30 51 1 29 46
M  V30 52 1 30 47
M  V30 53 1 30 48
M  V30 54 1 31 49
M  V30 55 1 31 50
M  V30 END BOND
M  V30 END CTAB
M  END
>  <Dataset>  (483) 
ChEMBL_Kinases

>  <Ligand_Instance>  (483) 
nan

>  <PDB_ID>  (483) 
nan

>  <Standardized_SMILES>  (483) 
Cc1c(-c2cc3c(cc2F)NC(=O)/C3=C\c2cc3ncccc3[nH]2)cnc2c1NCCO2

>  <Name>  (483) 
nan

>  <Pocket>  (483) 
nan

>  <ATP_Site>  (483) 
nan

>  <Peripheral>  (483) 
nan

>  <Num_H_Atoms_ProtBoundConf>  (483) 
nan

>  <Num_Resolved_Atoms>  (483) 
nan

>  <Num_Not_Resolved_Atoms>  (483) 
nan

$$$$
CHEMBL4102590
     RDKit          3D

  0  0  0  0  0  0  0  0  0  0999 V3000
M  V30 BEGIN CTAB
M  V30 COUNTS 64 68 0 0 0
M  V30 BEGIN ATOM
M  V30 1 O 5.778025 2.047499 -1.244047 0
M  V30 2 C 5.146644 1.811660 -0.181537 0
M  V30 3 N 5.763335 1.635561 1.073757 0
M  V30 4 C 7.225513 1.719908 1.210241 0
M  V30 5 C 7.487227 2.788662 2.253028 0
M  V30 6 O 6.856556 2.339821 3.418291 0
M  V30 7 C 7.740665 0.406757 1.822938 0
M  V30 8 O 7.164438 0.207591 3.074006 0
M  V30 9 C 3.696975 1.727101 -0.321170 0
M  V30 10 C 3.113220 1.907268 -1.569887 0
M  V30 11 C 1.746386 1.840424 -1.789039 0
M  V30 12 C 0.888980 1.579307 -0.713651 0
M  V30 13 C 1.504291 1.406260 0.508941 0
M  V30 14 C 2.850879 1.469841 0.738411 0
M  V30 15 C 0.800153 1.125010 1.755855 0
M  V30 16 O 1.366436 1.452542 2.839523 0
M  V30 17 C -0.517421 0.492861 1.904807 0
M  V30 18 C -0.832089 0.146677 3.201693 0
M  V30 19 C -2.028056 -0.458378 3.513142 0
M  V30 20 C -2.963886 -0.745093 2.542853 0
M  V30 21 N -4.204990 -1.354076 2.859269 0
M  V30 22 C -5.111861 -2.132731 2.095641 0
M  V30 23 C -6.440992 -2.243314 2.439296 0
M  V30 24 C -7.301857 -3.013036 1.701680 0
M  V30 25 C -6.900505 -3.715778 0.585708 0
M  V30 26 F -7.742104 -4.483092 -0.156018 0
M  V30 27 C -5.575960 -3.634605 0.203954 0
M  V30 28 N -5.108444 -4.341120 -0.938846 0
M  V30 29 C -5.015860 -3.976007 -2.306820 0
M  V30 30 O -5.448401 -2.791037 -2.450950 0
M  V30 31 C -4.456377 -5.007654 -3.248836 0
M  V30 32 C -3.446561 -4.441199 -4.290280 0
M  V30 33 C -4.816579 -4.842995 -4.693351 0
M  V30 34 C -4.743100 -2.848230 0.975031 0
M  V30 35 C -2.618448 -0.386016 1.259236 0
M  V30 36 C -1.436780 0.221019 0.891766 0
M  V30 37 O -1.269583 0.507160 -0.454538 0
M  V30 38 C -0.536932 1.540364 -1.110401 0
M  V30 39 H 5.246072 1.441210 1.956981 0
M  V30 40 H 7.724674 1.933927 0.262727 0
M  V30 41 H 8.583750 2.910499 2.433158 0
M  V30 42 H 6.978979 3.713057 1.941058 0
M  V30 43 H 7.314399 2.576499 4.245150 0
M  V30 44 H 7.343832 -0.411182 1.161359 0
M  V30 45 H 8.827659 0.392548 1.876413 0
M  V30 46 H 6.236283 -0.138165 3.010618 0
M  V30 47 H 3.724782 2.116136 -2.457223 0
M  V30 48 H 1.347419 1.989334 -2.786774 0
M  V30 49 H 3.238201 1.320929 1.733629 0
M  V30 50 H -0.110323 0.363535 3.977549 0
M  V30 51 H -2.291045 -0.738704 4.541429 0
M  V30 52 H -4.510734 -1.196532 3.854182 0
M  V30 53 H -6.849812 -1.721502 3.310868 0
M  V30 54 H -8.353098 -3.074352 2.008803 0
M  V30 55 H -4.824958 -5.262808 -0.510782 0
M  V30 56 H -4.160203 -5.993879 -2.834465 0
M  V30 57 H -2.584596 -5.070826 -4.511397 0
M  V30 58 H -3.206926 -3.366283 -4.163899 0
M  V30 59 H -4.908562 -5.739654 -5.365650 0
M  V30 60 H -5.548772 -4.045828 -4.942277 0
M  V30 61 H -3.714880 -2.838838 0.622585 0
M  V30 62 H -3.272395 -0.550139 0.422256 0
M  V30 63 H -0.576977 1.348953 -2.200920 0
M  V30 64 H -1.055241 2.497751 -0.851362 0
M  V30 END ATOM
M  V30 BEGIN BOND
M  V30 1 2 1 2
M  V30 2 1 2 3
M  V30 3 1 3 4
M  V30 4 1 4 5
M  V30 5 1 5 6
M  V30 6 1 4 7
M  V30 7 1 7 8
M  V30 8 1 2 9
M  V30 9 2 9 10
M  V30 10 1 10 11
M  V30 11 2 11 12
M  V30 12 1 12 13
M  V30 13 2 13 14
M  V30 14 1 13 15
M  V30 15 2 15 16
M  V30 16 1 15 17
M  V30 17 2 17 18
M  V30 18 1 18 19
M  V30 19 2 19 20
M  V30 20 1 20 21
M  V30 21 1 21 22
M  V30 22 2 22 23
M  V30 23 1 23 24
M  V30 24 2 24 25
M  V30 25 1 25 26
M  V30 26 1 25 27
M  V30 27 1 27 28
M  V30 28 1 28 29
M  V30 29 2 29 30
M  V30 30 1 29 31
M  V30 31 1 31 32
M  V30 32 1 32 33
M  V30 33 2 27 34
M  V30 34 1 20 35
M  V30 35 2 35 36
M  V30 36 1 36 37
M  V30 37 1 37 38
M  V30 38 1 14 9
M  V30 39 1 36 17
M  V30 40 1 38 12
M  V30 41 1 34 22
M  V30 42 1 33 31
M  V30 43 1 3 39
M  V30 44 1 4 40
M  V30 45 1 5 41
M  V30 46 1 5 42
M  V30 47 1 6 43
M  V30 48 1 7 44
M  V30 49 1 7 45
M  V30 50 1 8 46
M  V30 51 1 10 47
M  V30 52 1 11 48
M  V30 53 1 14 49
M  V30 54 1 18 50
M  V30 55 1 19 51
M  V30 56 1 21 52
M  V30 57 1 23 53
M  V30 58 1 24 54
M  V30 59 1 28 55
M  V30 60 1 31 56
M  V30 61 1 32 57
M  V30 62 1 32 58
M  V30 63 1 33 59
M  V30 64 1 33 60
M  V30 65 1 34 61
M  V30 66 1 35 62
M  V30 67 1 38 63
M  V30 68 1 38 64
M  V30 END BOND
M  V30 END CTAB
M  END
>  <Dataset>  (484) 
ChEMBL_Kinases

>  <Ligand_Instance>  (484) 
nan

>  <PDB_ID>  (484) 
nan

>  <Standardized_SMILES>  (484) 
O=C(NC(CO)CO)c1ccc2c(c1)C(=O)c1ccc(Nc3ccc(F)c(NC(=O)C4CC4)c3)cc1OC2

>  <Name>  (484) 
nan

>  <Pocket>  (484) 
nan

>  <ATP_Site>  (484) 
nan

>  <Peripheral>  (484) 
nan

>  <Num_H_Atoms_ProtBoundConf>  (484) 
nan

>  <Num_Resolved_Atoms>  (484) 
nan

>  <Num_Not_Resolved_Atoms>  (484) 
nan

$$$$
CHEMBL4102537
     RDKit          3D

  0  0  0  0  0  0  0  0  0  0999 V3000
M  V30 BEGIN CTAB
M  V30 COUNTS 74 79 0 0 0
M  V30 BEGIN ATOM
M  V30 1 O 4.863972 -4.094479 3.009537 0
M  V30 2 C 4.062853 -3.494192 2.244343 0
M  V30 3 N 4.080079 -3.901261 0.856796 0
M  V30 4 C 5.062340 -4.940207 0.725796 0
M  V30 5 C 5.166838 -5.434450 -0.673100 0
M  V30 6 N 5.561827 -4.508561 -1.669998 0
M  V30 7 C 4.668798 -3.458079 -2.003433 0
M  V30 8 C 5.072274 -2.985250 -3.414043 0
M  V30 9 O 4.571169 -3.880280 -4.365947 0
M  V30 10 C 4.649702 -5.183221 -3.867481 0
M  V30 11 C 5.803643 -5.282264 -2.894695 0
M  V30 12 C 3.206502 -2.461650 2.818584 0
M  V30 13 C 3.351130 -2.208330 4.166370 0
M  V30 14 C 2.576327 -1.246032 4.784219 0
M  V30 15 C 1.643026 -0.511904 4.092715 0
M  V30 16 C 1.504340 -0.770991 2.745173 0
M  V30 17 C 2.274094 -1.730686 2.119433 0
M  V30 18 C 0.614213 -0.168242 1.757440 0
M  V30 19 O 0.827530 -0.306971 0.533822 0
M  V30 20 C -0.574241 0.630343 2.126913 0
M  V30 21 C -1.116692 1.152526 0.973197 0
M  V30 22 C -2.259725 1.947984 1.114853 0
M  V30 23 C -2.836554 2.212083 2.339159 0
M  V30 24 N -4.005694 3.013584 2.417937 0
M  V30 25 C -4.979471 3.254132 1.419974 0
M  V30 26 C -5.712879 4.418984 1.436950 0
M  V30 27 C -6.697086 4.799294 0.557163 0
M  V30 28 C -6.990458 3.913544 -0.466830 0
M  V30 29 F -7.942820 4.194299 -1.386316 0
M  V30 30 C -6.293894 2.727485 -0.542934 0
M  V30 31 N -6.522114 1.757940 -1.558116 0
M  V30 32 C -5.651857 2.047597 -2.633168 0
M  V30 33 O -4.737147 2.819647 -3.083614 0
M  V30 34 C -5.246182 1.598282 -3.980046 0
M  V30 35 C -5.078204 0.086948 -4.204995 0
M  V30 36 C -6.142843 0.864707 -4.884494 0
M  V30 37 C -5.304232 2.384112 0.371811 0
M  V30 38 C -2.273943 1.677527 3.478787 0
M  V30 39 C -1.136841 0.883848 3.362561 0
M  V30 40 C -0.630641 0.368817 4.660329 0
M  V30 41 C 0.856982 0.505108 4.834166 0
M  V30 42 H 3.374964 -3.333376 0.337329 0
M  V30 43 H 6.042452 -4.588644 1.136026 0
M  V30 44 H 4.798747 -5.841903 1.354092 0
M  V30 45 H 5.903604 -6.293863 -0.643749 0
M  V30 46 H 4.217186 -5.952231 -1.007908 0
M  V30 47 H 4.785046 -2.545581 -1.381271 0
M  V30 48 H 3.615111 -3.742479 -1.993503 0
M  V30 49 H 4.668599 -1.990317 -3.626540 0
M  V30 50 H 6.161629 -3.002691 -3.485494 0
M  V30 51 H 3.705888 -5.537456 -3.450078 0
M  V30 52 H 4.917685 -5.840270 -4.720000 0
M  V30 53 H 5.912950 -6.371157 -2.674950 0
M  V30 54 H 6.730272 -4.961171 -3.392939 0
M  V30 55 H 4.049451 -2.718825 4.821781 0
M  V30 56 H 2.659399 -1.018134 5.838305 0
M  V30 57 H 2.145953 -1.913517 1.065856 0
M  V30 58 H -0.659549 0.942109 0.012856 0
M  V30 59 H -2.617562 2.329976 0.159559 0
M  V30 60 H -4.165905 3.490826 3.342253 0
M  V30 61 H -5.490142 5.121514 2.235947 0
M  V30 62 H -7.207333 5.730891 0.660408 0
M  V30 63 H -7.013266 0.927446 -1.919629 0
M  V30 64 H -4.445966 2.255094 -4.404230 0
M  V30 65 H -4.167722 -0.215005 -4.740654 0
M  V30 66 H -5.425851 -0.591322 -3.398852 0
M  V30 67 H -7.188415 0.743095 -4.563948 0
M  V30 68 H -6.026925 0.956729 -5.980051 0
M  V30 69 H -4.781033 1.462276 0.310030 0
M  V30 70 H -2.701160 1.865077 4.458926 0
M  V30 71 H -0.951600 -0.711530 4.728232 0
M  V30 72 H -1.121615 0.913470 5.471592 0
M  V30 73 H 1.086727 0.427988 5.904796 0
M  V30 74 H 1.140470 1.496035 4.418455 0
M  V30 END ATOM
M  V30 BEGIN BOND
M  V30 1 2 1 2
M  V30 2 1 2 3
M  V30 3 1 3 4
M  V30 4 1 4 5
M  V30 5 1 5 6
M  V30 6 1 6 7
M  V30 7 1 7 8
M  V30 8 1 8 9
M  V30 9 1 9 10
M  V30 10 1 10 11
M  V30 11 1 2 12
M  V30 12 2 12 13
M  V30 13 1 13 14
M  V30 14 2 14 15
M  V30 15 1 15 16
M  V30 16 2 16 17
M  V30 17 1 16 18
M  V30 18 2 18 19
M  V30 19 1 18 20
M  V30 20 2 20 21
M  V30 21 1 21 22
M  V30 22 2 22 23
M  V30 23 1 23 24
M  V30 24 1 24 25
M  V30 25 2 25 26
M  V30 26 1 26 27
M  V30 27 2 27 28
M  V30 28 1 28 29
M  V30 29 1 28 30
M  V30 30 1 30 31
M  V30 31 1 31 32
M  V30 32 2 32 33
M  V30 33 1 32 34
M  V30 34 1 34 35
M  V30 35 1 35 36
M  V30 36 2 30 37
M  V30 37 1 23 38
M  V30 38 2 38 39
M  V30 39 1 39 40
M  V30 40 1 40 41
M  V30 41 1 11 6
M  V30 42 1 17 12
M  V30 43 1 39 20
M  V30 44 1 41 15
M  V30 45 1 37 25
M  V30 46 1 36 34
M  V30 47 1 3 42
M  V30 48 1 4 43
M  V30 49 1 4 44
M  V30 50 1 5 45
M  V30 51 1 5 46
M  V30 52 1 7 47
M  V30 53 1 7 48
M  V30 54 1 8 49
M  V30 55 1 8 50
M  V30 56 1 10 51
M  V30 57 1 10 52
M  V30 58 1 11 53
M  V30 59 1 11 54
M  V30 60 1 13 55
M  V30 61 1 14 56
M  V30 62 1 17 57
M  V30 63 1 21 58
M  V30 64 1 22 59
M  V30 65 1 24 60
M  V30 66 1 26 61
M  V30 67 1 27 62
M  V30 68 1 31 63
M  V30 69 1 34 64
M  V30 70 1 35 65
M  V30 71 1 35 66
M  V30 72 1 36 67
M  V30 73 1 36 68
M  V30 74 1 37 69
M  V30 75 1 38 70
M  V30 76 1 40 71
M  V30 77 1 40 72
M  V30 78 1 41 73
M  V30 79 1 41 74
M  V30 END BOND
M  V30 END CTAB
M  END
>  <Dataset>  (485) 
ChEMBL_Kinases

>  <Ligand_Instance>  (485) 
nan

>  <PDB_ID>  (485) 
nan

>  <Standardized_SMILES>  (485) 
O=C(NCCN1CCOCC1)c1ccc2c(c1)C(=O)c1ccc(Nc3ccc(F)c(NC(=O)C4CC4)c3)cc1CC2

>  <Name>  (485) 
nan

>  <Pocket>  (485) 
nan

>  <ATP_Site>  (485) 
nan

>  <Peripheral>  (485) 
nan

>  <Num_H_Atoms_ProtBoundConf>  (485) 
nan

>  <Num_Resolved_Atoms>  (485) 
nan

>  <Num_Not_Resolved_Atoms>  (485) 
nan

$$$$
CHEMBL4102484
     RDKit          3D

  0  0  0  0  0  0  0  0  0  0999 V3000
M  V30 BEGIN CTAB
M  V30 COUNTS 61 62 0 0 0
M  V30 BEGIN ATOM
M  V30 1 C -3.063829 7.373749 1.168357 0
M  V30 2 C -3.892563 6.341618 1.944484 0
M  V30 3 C -2.981076 5.393775 2.650019 0
M  V30 4 C -2.062149 4.616748 1.774698 0
M  V30 5 C -2.713770 3.748374 0.763403 0
M  V30 6 C -1.844580 2.958457 -0.127260 0
M  V30 7 C -0.896390 3.672299 -0.993074 0
M  V30 8 C -0.165817 2.599249 -1.788304 0
M  V30 9 O -0.792838 1.606399 -1.250316 0
M  V30 10 N 0.870792 2.503472 -2.808544 0
M  V30 11 N 0.787357 1.075781 -2.833658 0
M  V30 12 C 1.651957 0.359775 -1.976502 0
M  V30 13 O 2.387437 1.116402 -1.298070 0
M  V30 14 C 1.728986 -1.080013 -1.851038 0
M  V30 15 C 2.721588 -1.481531 -0.946063 0
M  V30 16 O 3.566575 -0.633328 -0.224217 0
M  V30 17 C 2.896502 -2.856458 -0.733495 0
M  V30 18 C 3.861115 -3.283325 0.154135 0
M  V30 19 C 4.068532 -4.611267 0.402137 0
M  V30 20 C 3.275189 -5.529142 -0.269423 0
M  V30 21 C 2.320008 -5.070183 -1.150702 0
M  V30 22 C 2.097394 -3.750417 -1.412418 0
M  V30 23 N 1.142881 -3.376778 -2.282807 0
M  V30 24 C 0.315268 -4.299016 -3.009370 0
M  V30 25 C -0.912635 -4.679726 -2.263753 0
M  V30 26 C -2.201022 -4.544291 -2.562822 0
M  V30 27 C -2.630762 -3.917184 -3.839211 0
M  V30 28 C -3.157141 -5.060877 -1.544227 0
M  V30 29 C 1.006227 -2.060830 -2.458388 0
M  V30 30 O 0.138502 -1.679320 -3.250660 0
M  V30 31 H -2.253599 6.839136 0.612380 0
M  V30 32 H -3.754837 7.921124 0.479787 0
M  V30 33 H -2.659214 8.056056 1.942994 0
M  V30 34 H -4.595796 5.914861 1.232046 0
M  V30 35 H -4.469828 6.936898 2.680622 0
M  V30 36 H -2.339619 6.010686 3.324938 0
M  V30 37 H -3.582239 4.740440 3.318929 0
M  V30 38 H -1.242344 5.247005 1.376609 0
M  V30 39 H -1.505481 3.921092 2.475512 0
M  V30 40 H -3.376329 3.012265 1.288928 0
M  V30 41 H -3.444868 4.360473 0.194715 0
M  V30 42 H -2.502381 2.326411 -0.761026 0
M  V30 43 H -1.252517 2.208936 0.486426 0
M  V30 44 H -1.406699 4.280958 -1.768385 0
M  V30 45 H -0.112202 4.252573 -0.515950 0
M  V30 46 H 0.925121 3.533815 -2.784716 0
M  V30 47 H 0.121711 0.591225 -3.458010 0
M  V30 48 H 3.304083 -0.521321 0.755377 0
M  V30 49 H 4.494813 -2.573072 0.691423 0
M  V30 50 H 4.831446 -4.961826 1.104545 0
M  V30 51 H 3.446525 -6.595652 -0.064834 0
M  V30 52 H 1.759226 -5.847365 -1.612747 0
M  V30 53 H 0.873893 -5.218880 -3.238594 0
M  V30 54 H 0.006863 -3.848441 -4.011800 0
M  V30 55 H -0.552127 -5.125636 -1.343874 0
M  V30 56 H -3.646810 -4.358083 -4.059539 0
M  V30 57 H -2.664292 -2.822886 -3.818298 0
M  V30 58 H -1.954294 -4.284653 -4.661841 0
M  V30 59 H -4.032065 -4.384364 -1.452611 0
M  V30 60 H -2.689986 -5.125993 -0.539490 0
M  V30 61 H -3.431363 -6.087976 -1.867308 0
M  V30 END ATOM
M  V30 BEGIN BOND
M  V30 1 1 1 2
M  V30 2 1 2 3
M  V30 3 1 3 4
M  V30 4 1 4 5
M  V30 5 1 5 6
M  V30 6 1 6 7
M  V30 7 1 7 8
M  V30 8 2 8 9
M  V30 9 1 8 10
M  V30 10 1 10 11
M  V30 11 1 11 12
M  V30 12 2 12 13
M  V30 13 1 12 14
M  V30 14 2 14 15
M  V30 15 1 15 16
M  V30 16 1 15 17
M  V30 17 2 17 18
M  V30 18 1 18 19
M  V30 19 2 19 20
M  V30 20 1 20 21
M  V30 21 2 21 22
M  V30 22 1 22 23
M  V30 23 1 23 24
M  V30 24 1 24 25
M  V30 25 2 25 26 CFG=2
M  V30 26 1 26 27
M  V30 27 1 26 28
M  V30 28 1 23 29
M  V30 29 2 29 30
M  V30 30 1 29 14
M  V30 31 1 22 17
M  V30 32 1 1 31
M  V30 33 1 1 32
M  V30 34 1 1 33
M  V30 35 1 2 34
M  V30 36 1 2 35
M  V30 37 1 3 36
M  V30 38 1 3 37
M  V30 39 1 4 38
M  V30 40 1 4 39
M  V30 41 1 5 40
M  V30 42 1 5 41
M  V30 43 1 6 42
M  V30 44 1 6 43
M  V30 45 1 7 44
M  V30 46 1 7 45
M  V30 47 1 10 46
M  V30 48 1 11 47
M  V30 49 1 16 48
M  V30 50 1 18 49
M  V30 51 1 19 50
M  V30 52 1 20 51
M  V30 53 1 21 52
M  V30 54 1 24 53
M  V30 55 1 24 54
M  V30 56 1 25 55
M  V30 57 1 27 56
M  V30 58 1 27 57
M  V30 59 1 27 58
M  V30 60 1 28 59
M  V30 61 1 28 60
M  V30 62 1 28 61
M  V30 END BOND
M  V30 END CTAB
M  END
>  <Dataset>  (486) 
ChEMBL_Kinases

>  <Ligand_Instance>  (486) 
nan

>  <PDB_ID>  (486) 
nan

>  <Standardized_SMILES>  (486) 
CCCCCCCC(=O)NNC(=O)c1c(O)c2ccccc2n(CC=C(C)C)c1=O

>  <Name>  (486) 
nan

>  <Pocket>  (486) 
nan

>  <ATP_Site>  (486) 
nan

>  <Peripheral>  (486) 
nan

>  <Num_H_Atoms_ProtBoundConf>  (486) 
nan

>  <Num_Resolved_Atoms>  (486) 
nan

>  <Num_Not_Resolved_Atoms>  (486) 
nan

$$$$
CHEMBL4102441
     RDKit          3D

  0  0  0  0  0  0  0  0  0  0999 V3000
M  V30 BEGIN CTAB
M  V30 COUNTS 29 31 0 0 0
M  V30 BEGIN ATOM
M  V30 1 N 1.222624 -1.678051 4.734185 0
M  V30 2 C 1.703735 -1.362285 3.737594 0
M  V30 3 C 2.323574 -0.977583 2.508397 0
M  V30 4 C 3.697224 -1.094868 2.306142 0
M  V30 5 N 3.921863 -0.647449 1.058023 0
M  V30 6 C 2.809884 -0.245736 0.422910 0
M  V30 7 N 2.537025 0.258112 -0.789096 0
M  V30 8 C 1.253060 0.571451 -1.131256 0
M  V30 9 N 0.949850 1.111910 -2.427531 0
M  V30 10 N 0.318097 0.347647 -0.202728 0
M  V30 11 C 0.524905 -0.148785 1.014399 0
M  V30 12 N -0.614600 -0.276818 1.834043 0
M  V30 13 C -2.031167 -0.056636 1.770401 0
M  V30 14 C -2.695927 -1.117271 0.952624 0
M  V30 15 C -2.454735 -1.425208 -0.449788 0
M  V30 16 C -1.787430 -2.265780 0.547232 0
M  V30 17 C 1.817669 -0.457264 1.340512 0
M  V30 18 H 4.439750 -1.466155 2.998558 0
M  V30 19 H 4.872721 -0.600185 0.583521 0
M  V30 20 H 0.519505 0.699734 -3.285919 0
M  V30 21 H 1.246726 2.118459 -2.436405 0
M  V30 22 H -0.347140 -0.641499 2.754293 0
M  V30 23 H -2.450688 0.003661 2.798409 0
M  V30 24 H -2.236967 0.966999 1.290974 0
M  V30 25 H -3.701843 -1.407792 1.393353 0
M  V30 26 H -3.325110 -1.959009 -0.965553 0
M  V30 27 H -1.899991 -0.835033 -1.175094 0
M  V30 28 H -0.706487 -2.203373 0.625731 0
M  V30 29 H -2.183230 -3.263590 0.840765 0
M  V30 END ATOM
M  V30 BEGIN BOND
M  V30 1 3 1 2
M  V30 2 1 2 3
M  V30 3 2 3 4
M  V30 4 1 4 5
M  V30 5 1 5 6
M  V30 6 2 6 7
M  V30 7 1 7 8
M  V30 8 1 8 9
M  V30 9 2 8 10
M  V30 10 1 10 11
M  V30 11 1 11 12
M  V30 12 1 12 13
M  V30 13 1 13 14
M  V30 14 1 14 15
M  V30 15 1 15 16
M  V30 16 2 11 17
M  V30 17 1 17 3
M  V30 18 1 17 6
M  V30 19 1 16 14
M  V30 20 1 4 18
M  V30 21 1 5 19
M  V30 22 1 9 20
M  V30 23 1 9 21
M  V30 24 1 12 22
M  V30 25 1 13 23
M  V30 26 1 13 24
M  V30 27 1 14 25
M  V30 28 1 15 26
M  V30 29 1 15 27
M  V30 30 1 16 28
M  V30 31 1 16 29
M  V30 END BOND
M  V30 END CTAB
M  END
>  <Dataset>  (487) 
ChEMBL_Kinases

>  <Ligand_Instance>  (487) 
nan

>  <PDB_ID>  (487) 
nan

>  <Standardized_SMILES>  (487) 
N#Cc1c[nH]c2nc(N)nc(NCC3CC3)c12

>  <Name>  (487) 
nan

>  <Pocket>  (487) 
nan

>  <ATP_Site>  (487) 
nan

>  <Peripheral>  (487) 
nan

>  <Num_H_Atoms_ProtBoundConf>  (487) 
nan

>  <Num_Resolved_Atoms>  (487) 
nan

>  <Num_Not_Resolved_Atoms>  (487) 
nan

$$$$
CHEMBL4102393
     RDKit          3D

  0  0  0  0  0  0  0  0  0  0999 V3000
M  V30 BEGIN CTAB
M  V30 COUNTS 65 69 0 0 0
M  V30 BEGIN ATOM
M  V30 1 C 5.291889 2.081428 7.160940 0
M  V30 2 N 5.073089 2.040689 5.731434 0
M  V30 3 C 3.764417 1.486239 5.407934 0
M  V30 4 C 3.885833 0.178030 4.704252 0
M  V30 5 C 4.582468 0.325688 3.335061 0
M  V30 6 O 3.724509 0.747184 2.374433 0
M  V30 7 C 2.586204 0.597723 1.764015 0
M  V30 8 C 1.388587 -0.061665 1.877514 0
M  V30 9 C 0.307258 -0.033214 1.026519 0
M  V30 10 N 0.492339 0.772931 -0.062317 0
M  V30 11 C -0.407228 0.981245 -1.059876 0
M  V30 12 C -1.783500 0.416114 -1.103528 0
M  V30 13 C -2.389651 0.772700 0.161305 0
M  V30 14 C -3.725635 0.391722 0.438262 0
M  V30 15 C -4.412469 -0.320490 -0.529375 0
M  V30 16 C -5.779551 -0.633341 -0.158941 0
M  V30 17 N -6.789876 -1.362061 -0.838035 0
M  V30 18 O -6.252163 -0.233559 0.929342 0
M  V30 19 C -3.785557 -0.626445 -1.698369 0
M  V30 20 O -4.575353 -1.306533 -2.536259 0
M  V30 21 C -4.534909 -1.873456 -3.769663 0
M  V30 22 C -3.560674 -2.964660 -4.014853 0
M  V30 23 C -2.387293 -2.783363 -4.797339 0
M  V30 24 C -1.527247 -3.849497 -5.042203 0
M  V30 25 C -1.795968 -5.119155 -4.535496 0
M  V30 26 C -2.988301 -5.237747 -3.759157 0
M  V30 27 C -3.846082 -4.215948 -3.494322 0
M  V30 28 C -5.026260 -4.493125 -2.629926 0
M  V30 29 F -5.042774 -5.833400 -2.298503 0
M  V30 30 F -4.985069 -3.796352 -1.408488 0
M  V30 31 F -6.201566 -4.241854 -3.304105 0
M  V30 32 C -2.500581 -0.293682 -2.035366 0
M  V30 33 C 0.185388 1.845873 -1.961954 0
M  V30 34 N 1.445805 2.178881 -1.526030 0
M  V30 35 C 1.605639 1.515402 -0.365960 0
M  V30 36 C 2.637774 1.394678 0.582522 0
M  V30 37 C 5.809314 1.164230 3.520642 0
M  V30 38 C 6.117937 1.352265 4.983989 0
M  V30 39 H 4.372536 2.594547 7.579224 0
M  V30 40 H 6.138791 2.670707 7.478006 0
M  V30 41 H 5.272831 1.086616 7.639023 0
M  V30 42 H 3.199614 2.242853 4.823686 0
M  V30 43 H 3.217817 1.357966 6.354936 0
M  V30 44 H 4.479150 -0.576625 5.296094 0
M  V30 45 H 2.895846 -0.305677 4.524221 0
M  V30 46 H 4.858972 -0.756483 3.126616 0
M  V30 47 H 1.332091 -0.687862 2.760640 0
M  V30 48 H -0.579235 -0.616043 1.245459 0
M  V30 49 H -1.900202 1.337398 0.973786 0
M  V30 50 H -4.158097 0.702441 1.416314 0
M  V30 51 H -6.993005 -2.324472 -0.412397 0
M  V30 52 H -7.434446 -1.201887 -1.693797 0
M  V30 53 H -5.516610 -2.254880 -4.152465 0
M  V30 54 H -4.222271 -1.050748 -4.507402 0
M  V30 55 H -2.183299 -1.778737 -5.206494 0
M  V30 56 H -0.644696 -3.759062 -5.619615 0
M  V30 57 H -1.166357 -6.036736 -4.682062 0
M  V30 58 H -3.159700 -6.219093 -3.381794 0
M  V30 59 H -1.936293 -0.492932 -2.920362 0
M  V30 60 H -0.374112 2.161009 -2.859839 0
M  V30 61 H 3.501538 2.038277 0.256245 0
M  V30 62 H 5.667986 2.188716 3.035440 0
M  V30 63 H 6.667959 0.736431 2.975569 0
M  V30 64 H 6.322455 0.377276 5.436952 0
M  V30 65 H 7.058933 1.995720 5.050713 0
M  V30 END ATOM
M  V30 BEGIN BOND
M  V30 1 1 1 2
M  V30 2 1 2 3
M  V30 3 1 3 4
M  V30 4 1 4 5
M  V30 5 1 5 6
M  V30 6 1 6 7
M  V30 7 1 7 8
M  V30 8 2 8 9
M  V30 9 1 9 10
M  V30 10 1 10 11
M  V30 11 1 11 12
M  V30 12 2 12 13
M  V30 13 1 13 14
M  V30 14 2 14 15
M  V30 15 1 15 16
M  V30 16 1 16 17
M  V30 17 2 16 18
M  V30 18 1 15 19
M  V30 19 1 19 20
M  V30 20 1 20 21
M  V30 21 1 21 22
M  V30 22 2 22 23
M  V30 23 1 23 24
M  V30 24 2 24 25
M  V30 25 1 25 26
M  V30 26 2 26 27
M  V30 27 1 27 28
M  V30 28 1 28 29
M  V30 29 1 28 30
M  V30 30 1 28 31
M  V30 31 2 19 32
M  V30 32 2 11 33
M  V30 33 1 33 34
M  V30 34 2 34 35
M  V30 35 1 35 36
M  V30 36 1 5 37
M  V30 37 1 37 38
M  V30 38 1 38 2
M  V30 39 2 36 7
M  V30 40 1 35 10
M  V30 41 1 32 12
M  V30 42 1 27 22
M  V30 43 1 1 39
M  V30 44 1 1 40
M  V30 45 1 1 41
M  V30 46 1 3 42
M  V30 47 1 3 43
M  V30 48 1 4 44
M  V30 49 1 4 45
M  V30 50 1 5 46
M  V30 51 1 8 47
M  V30 52 1 9 48
M  V30 53 1 13 49
M  V30 54 1 14 50
M  V30 55 1 17 51
M  V30 56 1 17 52
M  V30 57 1 21 53
M  V30 58 1 21 54
M  V30 59 1 23 55
M  V30 60 1 24 56
M  V30 61 1 25 57
M  V30 62 1 26 58
M  V30 63 1 32 59
M  V30 64 1 33 60
M  V30 65 1 36 61
M  V30 66 1 37 62
M  V30 67 1 37 63
M  V30 68 1 38 64
M  V30 69 1 38 65
M  V30 END BOND
M  V30 END CTAB
M  END
>  <Dataset>  (488) 
ChEMBL_Kinases

>  <Ligand_Instance>  (488) 
nan

>  <PDB_ID>  (488) 
nan

>  <Standardized_SMILES>  (488) 
CN1CCC(Oc2ccn3c(-c4ccc(C(N)=O)c(OCc5ccccc5C(F)(F)F)c4)cnc3c2)CC1

>  <Name>  (488) 
nan

>  <Pocket>  (488) 
nan

>  <ATP_Site>  (488) 
nan

>  <Peripheral>  (488) 
nan

>  <Num_H_Atoms_ProtBoundConf>  (488) 
nan

>  <Num_Resolved_Atoms>  (488) 
nan

>  <Num_Not_Resolved_Atoms>  (488) 
nan

$$$$
CHEMBL4799139
     RDKit          3D

  0  0  0  0  0  0  0  0  0  0999 V3000
M  V30 BEGIN CTAB
M  V30 COUNTS 69 73 0 0 0
M  V30 BEGIN ATOM
M  V30 1 C 4.724892 -2.765445 -8.386513 0
M  V30 2 O 4.410874 -1.415978 -8.093291 0
M  V30 3 C 4.339645 -0.882291 -6.832154 0
M  V30 4 C 4.022174 0.461415 -6.650112 0
M  V30 5 C 3.938623 1.043903 -5.404092 0
M  V30 6 C 4.167837 0.316148 -4.256972 0
M  V30 7 S 4.114522 0.846354 -2.609262 0
M  V30 8 O 5.145267 0.109142 -1.814595 0
M  V30 9 O 4.485164 2.304160 -2.609490 0
M  V30 10 N 2.551790 0.641343 -1.901051 0
M  V30 11 C 1.543340 1.407676 -2.569220 0
M  V30 12 C 0.171452 1.221745 -1.944431 0
M  V30 13 C -0.825821 2.059087 -2.681478 0
M  V30 14 N -2.182079 1.935177 -2.154815 0
M  V30 15 C -2.481526 2.190163 -0.788189 0
M  V30 16 C -2.463634 1.057068 0.038016 0
M  V30 17 C -2.725733 1.075206 1.417517 0
M  V30 18 C -2.667716 -0.237194 2.111210 0
M  V30 19 N -3.605077 -1.146632 1.780088 0
M  V30 20 C -3.455274 -2.282787 2.465437 0
M  V30 21 C -4.252292 -3.505705 2.410147 0
M  V30 22 C -5.354540 -3.555192 1.549287 0
M  V30 23 C -6.131179 -4.684032 1.465696 0
M  V30 24 C -5.843753 -5.810528 2.233880 0
M  V30 25 C -4.753675 -5.759232 3.083233 0
M  V30 26 C -3.985969 -4.611700 3.151524 0
M  V30 27 N -2.386358 -2.081516 3.255273 0
M  V30 28 C -1.883092 -0.849368 3.066391 0
M  V30 29 C -0.765250 -0.096924 3.625092 0
M  V30 30 C -0.717253 0.113763 5.009477 0
M  V30 31 C 0.334619 0.826277 5.549118 0
M  V30 32 C 1.340271 1.332261 4.729058 0
M  V30 33 C 1.273974 1.114082 3.369079 0
M  V30 34 O 2.301687 1.639607 2.595749 0
M  V30 35 C 0.237812 0.406446 2.792494 0
M  V30 36 C -3.018986 2.279550 2.000105 0
M  V30 37 C -3.031405 3.383854 1.168988 0
M  V30 38 N -2.778215 3.350592 -0.152352 0
M  V30 39 C 4.483297 -1.026598 -4.465924 0
M  V30 40 C 4.570961 -1.623784 -5.707607 0
M  V30 41 H 5.810403 -2.936625 -8.461510 0
M  V30 42 H 4.332198 -3.477488 -7.643557 0
M  V30 43 H 4.294609 -2.967603 -9.409945 0
M  V30 44 H 3.835451 1.057892 -7.529067 0
M  V30 45 H 3.696025 2.081123 -5.228613 0
M  V30 46 H 2.637964 0.951565 -0.899150 0
M  V30 47 H 1.514709 1.043877 -3.632492 0
M  V30 48 H 1.805170 2.474024 -2.598794 0
M  V30 49 H -0.091546 0.160555 -1.937946 0
M  V30 50 H 0.300389 1.530990 -0.885084 0
M  V30 51 H -0.814813 1.711593 -3.735975 0
M  V30 52 H -0.495587 3.114255 -2.700771 0
M  V30 53 H -3.107685 1.678189 -2.559367 0
M  V30 54 H -2.234105 0.089910 -0.400075 0
M  V30 55 H -4.404128 -1.082674 1.084951 0
M  V30 56 H -5.633944 -2.701610 0.919422 0
M  V30 57 H -6.971510 -4.671683 0.784757 0
M  V30 58 H -6.499889 -6.691012 2.130900 0
M  V30 59 H -4.572185 -6.645574 3.650744 0
M  V30 60 H -3.140373 -4.574943 3.810073 0
M  V30 61 H -1.526928 -0.299145 5.628635 0
M  V30 62 H 0.276532 0.932674 6.636031 0
M  V30 63 H 2.123918 1.878894 5.258514 0
M  V30 64 H 2.837768 2.450355 2.791552 0
M  V30 65 H 0.220114 0.256327 1.722477 0
M  V30 66 H -3.213532 2.270744 3.045660 0
M  V30 67 H -3.256054 4.333561 1.598413 0
M  V30 68 H 4.679856 -1.680611 -3.630973 0
M  V30 69 H 4.825410 -2.683679 -5.800011 0
M  V30 END ATOM
M  V30 BEGIN BOND
M  V30 1 1 1 2
M  V30 2 1 2 3
M  V30 3 2 3 4
M  V30 4 1 4 5
M  V30 5 2 5 6
M  V30 6 1 6 7
M  V30 7 2 7 8
M  V30 8 2 7 9
M  V30 9 1 7 10
M  V30 10 1 10 11
M  V30 11 1 11 12
M  V30 12 1 12 13
M  V30 13 1 13 14
M  V30 14 1 14 15
M  V30 15 2 15 16
M  V30 16 1 16 17
M  V30 17 1 17 18
M  V30 18 1 18 19
M  V30 19 1 19 20
M  V30 20 1 20 21
M  V30 21 2 21 22
M  V30 22 1 22 23
M  V30 23 2 23 24
M  V30 24 1 24 25
M  V30 25 2 25 26
M  V30 26 2 20 27
M  V30 27 1 27 28
M  V30 28 1 28 29
M  V30 29 2 29 30
M  V30 30 1 30 31
M  V30 31 2 31 32
M  V30 32 1 32 33
M  V30 33 1 33 34
M  V30 34 2 33 35
M  V30 35 2 17 36
M  V30 36 1 36 37
M  V30 37 2 37 38
M  V30 38 1 6 39
M  V30 39 2 39 40
M  V30 40 1 40 3
M  V30 41 1 38 15
M  V30 42 2 28 18
M  V30 43 1 35 29
M  V30 44 1 26 21
M  V30 45 1 1 41
M  V30 46 1 1 42
M  V30 47 1 1 43
M  V30 48 1 4 44
M  V30 49 1 5 45
M  V30 50 1 10 46
M  V30 51 1 11 47
M  V30 52 1 11 48
M  V30 53 1 12 49
M  V30 54 1 12 50
M  V30 55 1 13 51
M  V30 56 1 13 52
M  V30 57 1 14 53
M  V30 58 1 16 54
M  V30 59 1 19 55
M  V30 60 1 22 56
M  V30 61 1 23 57
M  V30 62 1 24 58
M  V30 63 1 25 59
M  V30 64 1 26 60
M  V30 65 1 30 61
M  V30 66 1 31 62
M  V30 67 1 32 63
M  V30 68 1 34 64
M  V30 69 1 35 65
M  V30 70 1 36 66
M  V30 71 1 37 67
M  V30 72 1 39 68
M  V30 73 1 40 69
M  V30 END BOND
M  V30 END CTAB
M  END
>  <Dataset>  (489) 
ChEMBL_Kinases

>  <Ligand_Instance>  (489) 
nan

>  <PDB_ID>  (489) 
nan

>  <Standardized_SMILES>  (489) 
COc1ccc(S(=O)(=O)NCCCNc2cc(-c3[nH]c(-c4ccccc4)nc3-c3cccc(O)c3)ccn2)cc1

>  <Name>  (489) 
nan

>  <Pocket>  (489) 
nan

>  <ATP_Site>  (489) 
nan

>  <Peripheral>  (489) 
nan

>  <Num_H_Atoms_ProtBoundConf>  (489) 
nan

>  <Num_Resolved_Atoms>  (489) 
nan

>  <Num_Not_Resolved_Atoms>  (489) 
nan

$$$$
CHEMBL4799055
     RDKit          3D

  0  0  0  0  0  0  0  0  0  0999 V3000
M  V30 BEGIN CTAB
M  V30 COUNTS 48 50 0 0 0
M  V30 BEGIN ATOM
M  V30 1 C 1.160634 -1.255564 0.866217 0
M  V30 2 C 2.568034 -1.614168 1.286377 0
M  V30 3 C 2.657666 -3.115269 1.378283 0
M  V30 4 C 2.769651 -1.061968 2.701544 0
M  V30 5 O 2.615830 0.316605 2.746933 0
M  V30 6 C 3.608740 -1.015619 0.346594 0
M  V30 7 N 3.488785 0.437898 0.337808 0
M  V30 8 C 2.487320 1.169243 -0.301616 0
M  V30 9 N 2.450679 1.321055 -1.543256 0
M  V30 10 C 1.414420 2.026004 -2.129566 0
M  V30 11 O 1.218125 2.287789 -3.345908 0
M  V30 12 C 0.426005 2.506969 -1.149962 0
M  V30 13 C -0.808792 3.067843 -1.182135 0
M  V30 14 C -1.329144 3.304042 0.219759 0
M  V30 15 C -1.333027 4.071263 1.359972 0
M  V30 16 S -2.290062 2.920339 2.556207 0
M  V30 17 C -2.502648 1.646772 1.346724 0
M  V30 18 C -2.913463 0.112217 1.159986 0
M  V30 19 C -3.449191 -0.226047 -0.079555 0
M  V30 20 C -3.495895 -1.582058 -0.323288 0
M  V30 21 C -3.049843 -2.433903 0.598445 0
M  V30 22 O -3.054699 -3.705857 0.463298 0
M  V30 23 C -3.124046 -5.031283 0.355516 0
M  V30 24 F -3.246797 -5.771763 1.515025 0
M  V30 25 F -4.215839 -5.365772 -0.472505 0
M  V30 26 F -2.010530 -5.466311 -0.353430 0
M  V30 27 C -2.514682 -2.097328 1.865377 0
M  V30 28 C -2.451066 -0.701521 2.146134 0
M  V30 29 N -1.966616 2.124489 0.423396 0
M  V30 30 S 1.215162 2.193113 0.407519 0
M  V30 31 H 1.189800 -0.990372 -0.249668 0
M  V30 32 H 0.684676 -0.419697 1.436052 0
M  V30 33 H 0.520091 -2.185964 0.947874 0
M  V30 34 H 3.648538 -3.447767 1.759486 0
M  V30 35 H 1.949493 -3.382689 2.221714 0
M  V30 36 H 2.286875 -3.666184 0.515928 0
M  V30 37 H 1.918033 -1.511966 3.317344 0
M  V30 38 H 3.707338 -1.462602 3.131090 0
M  V30 39 H 2.171737 0.603385 3.577849 0
M  V30 40 H 4.637736 -1.290587 0.677270 0
M  V30 41 H 3.395197 -1.422920 -0.634915 0
M  V30 42 H 4.242041 0.984020 0.901565 0
M  V30 43 H -1.243120 3.236071 -2.138246 0
M  V30 44 H -0.830517 4.944210 1.143721 0
M  V30 45 H -3.752399 0.610886 -0.697752 0
M  V30 46 H -3.896067 -1.824769 -1.294796 0
M  V30 47 H -2.142672 -2.736764 2.619722 0
M  V30 48 H -2.067468 -0.264714 3.060596 0
M  V30 END ATOM
M  V30 BEGIN BOND
M  V30 1 1 1 2
M  V30 2 1 2 3
M  V30 3 1 2 4
M  V30 4 1 4 5
M  V30 5 1 2 6
M  V30 6 1 6 7
M  V30 7 1 7 8
M  V30 8 2 8 9
M  V30 9 1 9 10
M  V30 10 2 10 11
M  V30 11 1 10 12
M  V30 12 2 12 13
M  V30 13 1 13 14
M  V30 14 2 14 15
M  V30 15 1 15 16
M  V30 16 1 16 17
M  V30 17 1 17 18
M  V30 18 2 18 19
M  V30 19 1 19 20
M  V30 20 2 20 21
M  V30 21 1 21 22
M  V30 22 1 22 23
M  V30 23 1 23 24
M  V30 24 1 23 25
M  V30 25 1 23 26
M  V30 26 1 21 27
M  V30 27 2 27 28
M  V30 28 2 17 29
M  V30 29 1 12 30
M  V30 30 1 30 8
M  V30 31 1 29 14
M  V30 32 1 28 18
M  V30 33 1 1 31
M  V30 34 1 1 32
M  V30 35 1 1 33
M  V30 36 1 3 34
M  V30 37 1 3 35
M  V30 38 1 3 36
M  V30 39 1 4 37
M  V30 40 1 4 38
M  V30 41 1 5 39
M  V30 42 1 6 40
M  V30 43 1 6 41
M  V30 44 1 7 42
M  V30 45 1 13 43
M  V30 46 1 15 44
M  V30 47 1 19 45
M  V30 48 1 20 46
M  V30 49 1 27 47
M  V30 50 1 28 48
M  V30 END BOND
M  V30 END CTAB
M  END
>  <Dataset>  (490) 
ChEMBL_Kinases

>  <Ligand_Instance>  (490) 
nan

>  <PDB_ID>  (490) 
nan

>  <Standardized_SMILES>  (490) 
CC(C)(CO)CNC1=NC(=O)/C(=C/c2csc(-c3ccc(OC(F)(F)F)cc3)n2)S1

>  <Name>  (490) 
nan

>  <Pocket>  (490) 
nan

>  <ATP_Site>  (490) 
nan

>  <Peripheral>  (490) 
nan

>  <Num_H_Atoms_ProtBoundConf>  (490) 
nan

>  <Num_Resolved_Atoms>  (490) 
nan

>  <Num_Not_Resolved_Atoms>  (490) 
nan

$$$$
CHEMBL4799531
     RDKit          3D

  0  0  0  0  0  0  0  0  0  0999 V3000
M  V30 BEGIN CTAB
M  V30 COUNTS 32 34 0 0 0
M  V30 BEGIN ATOM
M  V30 1 O 3.477869 0.485881 2.742099 0
M  V30 2 C 2.806020 -0.499078 2.277458 0
M  V30 3 N 3.094757 -1.886866 2.337741 0
M  V30 4 C 2.220666 -2.844571 1.758865 0
M  V30 5 C 2.588727 -4.166976 1.871738 0
M  V30 6 C 1.722139 -5.082207 1.300489 0
M  V30 7 C 0.580627 -4.685248 0.669531 0
M  V30 8 C 0.220796 -3.351859 0.562256 0
M  V30 9 C 1.056509 -2.415744 1.117207 0
M  V30 10 N 0.821196 -1.018220 1.087018 0
M  V30 11 C 1.622911 0.038067 1.634743 0
M  V30 12 C 1.238298 1.256005 1.345116 0
M  V30 13 C 0.064270 1.771936 0.732362 0
M  V30 14 O 0.571929 2.952726 0.640237 0
M  V30 15 C -1.242504 1.825436 0.181109 0
M  V30 16 C -1.458388 2.762521 -0.855981 0
M  V30 17 C -2.577417 2.827837 -1.656368 0
M  V30 18 C -3.512465 1.870730 -1.357951 0
M  V30 19 C -3.465447 0.895836 -0.389751 0
M  V30 20 C -2.300572 0.968701 0.312652 0
M  V30 21 Br -2.364197 -0.215934 1.846782 0
M  V30 22 H 3.980202 -2.103719 2.832940 0
M  V30 23 H 3.499968 -4.459180 2.377292 0
M  V30 24 H 1.934438 -6.139871 1.343233 0
M  V30 25 H -0.118041 -5.383355 0.211991 0
M  V30 26 H -0.679571 -3.021048 0.065930 0
M  V30 27 H -0.027222 -0.791444 0.533196 0
M  V30 28 H 2.077095 1.854043 1.716513 0
M  V30 29 H -0.736923 3.559007 -1.143474 0
M  V30 30 H -2.725727 3.549538 -2.444136 0
M  V30 31 H -4.401594 1.906463 -1.990817 0
M  V30 32 H -4.270464 0.196296 -0.252645 0
M  V30 END ATOM
M  V30 BEGIN BOND
M  V30 1 2 1 2
M  V30 2 1 2 3
M  V30 3 1 3 4
M  V30 4 2 4 5
M  V30 5 1 5 6
M  V30 6 2 6 7
M  V30 7 1 7 8
M  V30 8 2 8 9
M  V30 9 1 9 10
M  V30 10 1 10 11
M  V30 11 2 11 12
M  V30 12 1 12 13
M  V30 13 2 13 14
M  V30 14 1 13 15
M  V30 15 2 15 16
M  V30 16 1 16 17
M  V30 17 2 17 18
M  V30 18 1 18 19
M  V30 19 2 19 20
M  V30 20 1 20 21
M  V30 21 1 11 2
M  V30 22 1 20 15
M  V30 23 1 9 4
M  V30 24 1 3 22
M  V30 25 1 5 23
M  V30 26 1 6 24
M  V30 27 1 7 25
M  V30 28 1 8 26
M  V30 29 1 10 27
M  V30 30 1 12 28
M  V30 31 1 16 29
M  V30 32 1 17 30
M  V30 33 1 18 31
M  V30 34 1 19 32
M  V30 END BOND
M  V30 END CTAB
M  END
>  <Dataset>  (491) 
ChEMBL_Kinases

>  <Ligand_Instance>  (491) 
nan

>  <PDB_ID>  (491) 
nan

>  <Standardized_SMILES>  (491) 
O=C1Nc2ccccc2N/C1=C\C(=O)c1ccccc1Br

>  <Name>  (491) 
nan

>  <Pocket>  (491) 
nan

>  <ATP_Site>  (491) 
nan

>  <Peripheral>  (491) 
nan

>  <Num_H_Atoms_ProtBoundConf>  (491) 
nan

>  <Num_Resolved_Atoms>  (491) 
nan

>  <Num_Not_Resolved_Atoms>  (491) 
nan

$$$$
CHEMBL4799574
     RDKit          3D

  0  0  0  0  0  0  0  0  0  0999 V3000
M  V30 BEGIN CTAB
M  V30 COUNTS 65 69 0 0 0
M  V30 BEGIN ATOM
M  V30 1 C 5.356284 -1.948226 4.520690 0
M  V30 2 C 4.361114 -1.923894 3.360300 0
M  V30 3 C 3.090165 -2.596456 3.831715 0
M  V30 4 C 4.951981 -2.744714 2.262448 0
M  V30 5 C 4.100509 -0.519621 2.956497 0
M  V30 6 C 4.883720 0.067707 1.996202 0
M  V30 7 C 4.727196 1.360903 1.550311 0
M  V30 8 C 3.703237 2.127624 2.111906 0
M  V30 9 S 3.432302 3.796898 1.597380 0
M  V30 10 O 4.745483 4.390649 1.169556 0
M  V30 11 O 2.817425 4.514000 2.762441 0
M  V30 12 N 2.330971 3.861146 0.284353 0
M  V30 13 C 0.992200 3.384301 0.435580 0
M  V30 14 C 0.146975 3.638013 1.496566 0
M  V30 15 C -1.129428 3.114729 1.521239 0
M  V30 16 C -1.530600 2.334883 0.457980 0
M  V30 17 C -2.885683 1.788574 0.500179 0
M  V30 18 N -3.508292 1.007182 -0.403415 0
M  V30 19 C -4.762751 0.724432 0.023691 0
M  V30 20 C -5.509918 -0.121709 -0.901314 0
M  V30 21 C -6.520546 0.314497 -1.727948 0
M  V30 22 C -7.108424 -0.634935 -2.532040 0
M  V30 23 N -6.754520 -1.916197 -2.545744 0
M  V30 24 C -5.761331 -2.407321 -1.750149 0
M  V30 25 N -5.351896 -3.771756 -1.734370 0
M  V30 26 C -4.323017 -4.242625 -2.601153 0
M  V30 27 C -3.923400 -5.576839 -2.584690 0
M  V30 28 C -2.920966 -5.990803 -3.442943 0
M  V30 29 C -2.282684 -5.136569 -4.332267 0
M  V30 30 F -1.303847 -5.575141 -5.159758 0
M  V30 31 C -2.697537 -3.803306 -4.333466 0
M  V30 32 F -2.106475 -2.926465 -5.183304 0
M  V30 33 C -3.697553 -3.382758 -3.479609 0
M  V30 34 C -5.165227 -1.464328 -0.940108 0
M  V30 35 N -4.881096 1.360226 1.216824 0
M  V30 36 O -3.756118 1.977484 1.466706 0
M  V30 37 C -0.714970 2.059117 -0.619697 0
M  V30 38 C 0.559469 2.592477 -0.625392 0
M  V30 39 C 2.905591 1.549842 3.080690 0
M  V30 40 C 3.089740 0.246397 3.506713 0
M  V30 41 H 5.066753 -2.755307 5.219946 0
M  V30 42 H 6.383063 -2.193353 4.153689 0
M  V30 43 H 5.338865 -0.991839 5.102984 0
M  V30 44 H 2.208877 -2.286562 3.237132 0
M  V30 45 H 2.895451 -2.275260 4.880131 0
M  V30 46 H 3.254269 -3.686993 3.815118 0
M  V30 47 H 4.621442 -2.421712 1.248681 0
M  V30 48 H 6.060770 -2.797243 2.301237 0
M  V30 49 H 4.614379 -3.794431 2.384287 0
M  V30 50 H 5.696827 -0.495540 1.529627 0
M  V30 51 H 5.377736 1.788753 0.779814 0
M  V30 52 H 2.628380 4.255696 -0.657951 0
M  V30 53 H 0.544799 4.256054 2.280629 0
M  V30 54 H -1.744586 3.340177 2.364447 0
M  V30 55 H -6.775006 1.368409 -1.682438 0
M  V30 56 H -7.907310 -0.261661 -3.177844 0
M  V30 57 H -5.801200 -4.458166 -1.082494 0
M  V30 58 H -4.386277 -6.291041 -1.910736 0
M  V30 59 H -2.587369 -7.027703 -3.452793 0
M  V30 60 H -3.989417 -2.331638 -3.515157 0
M  V30 61 H -4.366783 -1.837659 -0.294735 0
M  V30 62 H -1.130474 1.429863 -1.410379 0
M  V30 63 H 1.156460 2.344714 -1.494134 0
M  V30 64 H 2.109029 2.177137 3.503617 0
M  V30 65 H 2.452175 -0.189922 4.269515 0
M  V30 END ATOM
M  V30 BEGIN BOND
M  V30 1 1 1 2
M  V30 2 1 2 3
M  V30 3 1 2 4
M  V30 4 1 2 5
M  V30 5 2 5 6
M  V30 6 1 6 7
M  V30 7 2 7 8
M  V30 8 1 8 9
M  V30 9 2 9 10
M  V30 10 2 9 11
M  V30 11 1 9 12
M  V30 12 1 12 13
M  V30 13 2 13 14
M  V30 14 1 14 15
M  V30 15 2 15 16
M  V30 16 1 16 17
M  V30 17 2 17 18
M  V30 18 1 18 19
M  V30 19 1 19 20
M  V30 20 2 20 21
M  V30 21 1 21 22
M  V30 22 2 22 23
M  V30 23 1 23 24
M  V30 24 1 24 25
M  V30 25 1 25 26
M  V30 26 2 26 27
M  V30 27 1 27 28
M  V30 28 2 28 29
M  V30 29 1 29 30
M  V30 30 1 29 31
M  V30 31 1 31 32
M  V30 32 2 31 33
M  V30 33 2 24 34
M  V30 34 2 19 35
M  V30 35 1 35 36
M  V30 36 1 16 37
M  V30 37 2 37 38
M  V30 38 1 8 39
M  V30 39 2 39 40
M  V30 40 1 40 5
M  V30 41 1 38 13
M  V30 42 1 36 17
M  V30 43 1 34 20
M  V30 44 1 33 26
M  V30 45 1 1 41
M  V30 46 1 1 42
M  V30 47 1 1 43
M  V30 48 1 3 44
M  V30 49 1 3 45
M  V30 50 1 3 46
M  V30 51 1 4 47
M  V30 52 1 4 48
M  V30 53 1 4 49
M  V30 54 1 6 50
M  V30 55 1 7 51
M  V30 56 1 12 52
M  V30 57 1 14 53
M  V30 58 1 15 54
M  V30 59 1 21 55
M  V30 60 1 22 56
M  V30 61 1 25 57
M  V30 62 1 27 58
M  V30 63 1 28 59
M  V30 64 1 33 60
M  V30 65 1 34 61
M  V30 66 1 37 62
M  V30 67 1 38 63
M  V30 68 1 39 64
M  V30 69 1 40 65
M  V30 END BOND
M  V30 END CTAB
M  END
>  <Dataset>  (492) 
ChEMBL_Kinases

>  <Ligand_Instance>  (492) 
nan

>  <PDB_ID>  (492) 
nan

>  <Standardized_SMILES>  (492) 
CC(C)(C)c1ccc(S(=O)(=O)Nc2ccc(-c3nc(-c4ccnc(Nc5ccc(F)c(F)c5)c4)no3)cc2)cc1

>  <Name>  (492) 
nan

>  <Pocket>  (492) 
nan

>  <ATP_Site>  (492) 
nan

>  <Peripheral>  (492) 
nan

>  <Num_H_Atoms_ProtBoundConf>  (492) 
nan

>  <Num_Resolved_Atoms>  (492) 
nan

>  <Num_Not_Resolved_Atoms>  (492) 
nan

$$$$
CHEMBL4100501
     RDKit          3D

  0  0  0  0  0  0  0  0  0  0999 V3000
M  V30 BEGIN CTAB
M  V30 COUNTS 58 61 0 0 0
M  V30 BEGIN ATOM
M  V30 1 C 6.673207 -1.525604 3.838791 0
M  V30 2 O 6.514421 -2.592595 2.919908 0
M  V30 3 C 5.693873 -2.415872 1.811403 0
M  V30 4 C 5.034152 -1.216506 1.596459 0
M  V30 5 C 4.223729 -1.032823 0.507435 0
M  V30 6 C 3.530836 0.152091 0.233838 0
M  V30 7 C 2.718688 0.262540 -0.904697 0
M  V30 8 O 2.157815 1.511084 -0.941214 0
M  V30 9 C 0.817626 1.829331 -0.920135 0
M  V30 10 C -0.130749 2.053186 -1.895236 0
M  V30 11 C -1.427143 2.360917 -1.560287 0
M  V30 12 C -1.845218 2.461508 -0.254532 0
M  V30 13 N -3.214596 2.786367 -0.039215 0
M  V30 14 C -4.100326 1.660186 0.054111 0
M  V30 15 O -3.537197 0.527720 -0.068697 0
M  V30 16 N -5.497298 1.684402 0.263116 0
M  V30 17 C -6.212038 0.442052 0.327003 0
M  V30 18 C -6.783378 -0.230257 -0.730646 0
M  V30 19 C -7.443403 -1.419079 -0.528402 0
M  V30 20 C -7.560613 -1.982462 0.724628 0
M  V30 21 Cl -8.397317 -3.490405 0.983940 0
M  V30 22 C -6.990682 -1.313615 1.786008 0
M  V30 23 C -7.090624 -1.884177 3.164975 0
M  V30 24 F -8.448189 -1.981497 3.465523 0
M  V30 25 F -6.429157 -1.079719 4.047243 0
M  V30 26 F -6.599076 -3.156875 3.188334 0
M  V30 27 C -6.326228 -0.119456 1.591538 0
M  V30 28 C -0.916159 2.242347 0.741017 0
M  V30 29 C 0.409026 1.927750 0.414287 0
M  V30 30 C 2.645670 -0.843383 -1.721246 0
M  V30 31 C 1.770379 -0.620610 -2.891228 0
M  V30 32 N 3.323356 -1.966500 -1.430567 0
M  V30 33 C 4.107854 -2.099973 -0.347706 0
M  V30 34 C 4.739204 -3.328840 -0.193847 0
M  V30 35 C 5.544468 -3.459446 0.921424 0
M  V30 36 O 6.221918 -4.642763 1.173030 0
M  V30 37 C 6.149729 -5.771264 0.343597 0
M  V30 38 H 5.679035 -1.160770 4.169812 0
M  V30 39 H 7.211605 -1.928701 4.737089 0
M  V30 40 H 7.283380 -0.699922 3.404483 0
M  V30 41 H 5.146949 -0.387102 2.294922 0
M  V30 42 H 3.721507 0.896760 0.994111 0
M  V30 43 H 0.310369 1.949434 -2.876643 0
M  V30 44 H -2.097814 2.518958 -2.391187 0
M  V30 45 H -3.684107 3.720690 0.062930 0
M  V30 46 H -5.886246 2.664589 0.354683 0
M  V30 47 H -6.677307 0.228230 -1.687375 0
M  V30 48 H -7.879838 -1.921073 -1.376445 0
M  V30 49 H -5.905366 0.352896 2.449662 0
M  V30 50 H -1.305329 2.335803 1.744055 0
M  V30 51 H 0.987116 1.791719 1.318293 0
M  V30 52 H 0.706793 -0.616235 -2.582003 0
M  V30 53 H 2.009247 0.349131 -3.344099 0
M  V30 54 H 1.867148 -1.458976 -3.630796 0
M  V30 55 H 4.606777 -4.132157 -0.904833 0
M  V30 56 H 5.065949 -5.932503 0.113190 0
M  V30 57 H 6.494223 -6.649270 0.929779 0
M  V30 58 H 6.763956 -5.687108 -0.562315 0
M  V30 END ATOM
M  V30 BEGIN BOND
M  V30 1 1 1 2
M  V30 2 1 2 3
M  V30 3 2 3 4
M  V30 4 1 4 5
M  V30 5 2 5 6
M  V30 6 1 6 7
M  V30 7 1 7 8
M  V30 8 1 8 9
M  V30 9 2 9 10
M  V30 10 1 10 11
M  V30 11 2 11 12
M  V30 12 1 12 13
M  V30 13 1 13 14
M  V30 14 2 14 15
M  V30 15 1 14 16
M  V30 16 1 16 17
M  V30 17 2 17 18
M  V30 18 1 18 19
M  V30 19 2 19 20
M  V30 20 1 20 21
M  V30 21 1 20 22
M  V30 22 1 22 23
M  V30 23 1 23 24
M  V30 24 1 23 25
M  V30 25 1 23 26
M  V30 26 2 22 27
M  V30 27 1 12 28
M  V30 28 2 28 29
M  V30 29 2 7 30
M  V30 30 1 30 31
M  V30 31 1 30 32
M  V30 32 2 32 33
M  V30 33 1 33 34
M  V30 34 2 34 35
M  V30 35 1 35 36
M  V30 36 1 36 37
M  V30 37 1 35 3
M  V30 38 1 33 5
M  V30 39 1 29 9
M  V30 40 1 27 17
M  V30 41 1 1 38
M  V30 42 1 1 39
M  V30 43 1 1 40
M  V30 44 1 4 41
M  V30 45 1 6 42
M  V30 46 1 10 43
M  V30 47 1 11 44
M  V30 48 1 13 45
M  V30 49 1 16 46
M  V30 50 1 18 47
M  V30 51 1 19 48
M  V30 52 1 27 49
M  V30 53 1 28 50
M  V30 54 1 29 51
M  V30 55 1 31 52
M  V30 56 1 31 53
M  V30 57 1 31 54
M  V30 58 1 34 55
M  V30 59 1 37 56
M  V30 60 1 37 57
M  V30 61 1 37 58
M  V30 END BOND
M  V30 END CTAB
M  END
>  <Dataset>  (493) 
ChEMBL_Kinases

>  <Ligand_Instance>  (493) 
nan

>  <PDB_ID>  (493) 
nan

>  <Standardized_SMILES>  (493) 
COc1cc2cc(Oc3ccc(NC(=O)Nc4ccc(Cl)c(C(F)(F)F)c4)cc3)c(C)nc2cc1OC

>  <Name>  (493) 
nan

>  <Pocket>  (493) 
nan

>  <ATP_Site>  (493) 
nan

>  <Peripheral>  (493) 
nan

>  <Num_H_Atoms_ProtBoundConf>  (493) 
nan

>  <Num_Resolved_Atoms>  (493) 
nan

>  <Num_Not_Resolved_Atoms>  (493) 
nan

$$$$
CHEMBL4100485
     RDKit          3D

  0  0  0  0  0  0  0  0  0  0999 V3000
M  V30 BEGIN CTAB
M  V30 COUNTS 55 59 0 0 0
M  V30 BEGIN ATOM
M  V30 1 C 6.750800 -1.992886 5.016048 0
M  V30 2 N 7.690275 -1.382408 4.098643 0
M  V30 3 C 6.998810 -0.683818 3.003340 0
M  V30 4 N 5.837152 -0.532642 2.740269 0
M  V30 5 C 5.360671 0.128276 1.708683 0
M  V30 6 C 3.921039 0.241674 1.496691 0
M  V30 7 C 2.953245 -0.304361 2.313878 0
M  V30 8 C 1.594116 -0.197382 2.113904 0
M  V30 9 C 1.141759 0.505973 1.017497 0
M  V30 10 C 2.049775 1.080978 0.154059 0
M  V30 11 C 3.392803 0.928416 0.423942 0
M  V30 12 C 1.275192 1.761065 -0.914514 0
M  V30 13 C -0.153144 1.774286 -0.426356 0
M  V30 14 N -0.192088 0.755794 0.597740 0
M  V30 15 C -1.345055 0.108222 1.107063 0
M  V30 16 O -1.246022 -0.767905 2.004213 0
M  V30 17 C -2.672499 0.477611 0.567586 0
M  V30 18 C -3.193805 1.530933 1.334587 0
M  V30 19 C -4.440315 2.043033 1.005918 0
M  V30 20 C -5.135616 1.512869 -0.056838 0
M  V30 21 C -4.588957 0.487376 -0.776021 0
M  V30 22 C -3.368194 -0.065651 -0.509400 0
M  V30 23 O -2.588718 -1.056188 -1.026765 0
M  V30 24 C -2.765858 -1.920065 -2.077824 0
M  V30 25 C -3.931261 -2.831733 -1.985631 0
M  V30 26 C -3.701455 -4.016889 -1.270917 0
M  V30 27 C -4.638122 -5.008010 -1.072255 0
M  V30 28 C -5.897051 -4.839858 -1.607137 0
M  V30 29 Cl -7.092811 -6.092090 -1.360196 0
M  V30 30 C -6.148910 -3.687267 -2.312495 0
M  V30 31 C -5.199155 -2.728654 -2.489385 0
M  V30 32 C 6.289189 0.696724 0.855916 0
M  V30 33 S 7.899019 0.175097 1.701876 0
M  V30 34 H 5.967116 -2.581767 4.455941 0
M  V30 35 H 7.241166 -2.619818 5.791528 0
M  V30 36 H 6.185046 -1.205914 5.569336 0
M  V30 37 H 8.731746 -1.368839 4.104638 0
M  V30 38 H 3.298848 -0.869416 3.194213 0
M  V30 39 H 0.931653 -0.683774 2.847128 0
M  V30 40 H 4.038976 1.405165 -0.294704 0
M  V30 41 H 1.419236 1.274001 -1.879287 0
M  V30 42 H 1.662353 2.817130 -0.956846 0
M  V30 43 H -0.830781 1.485336 -1.275494 0
M  V30 44 H -0.481418 2.746344 -0.051358 0
M  V30 45 H -2.753901 2.020129 2.172585 0
M  V30 46 H -4.954216 2.854965 1.518056 0
M  V30 47 H -6.119203 1.815608 -0.425465 0
M  V30 48 H -5.045120 0.015496 -1.612691 0
M  V30 49 H -1.829469 -2.557284 -2.144153 0
M  V30 50 H -2.793843 -1.422265 -3.080376 0
M  V30 51 H -2.723076 -4.219759 -0.816637 0
M  V30 52 H -4.405814 -5.900550 -0.513073 0
M  V30 53 H -7.126203 -3.527014 -2.743665 0
M  V30 54 H -5.371301 -1.820483 -3.045889 0
M  V30 55 H 6.048477 1.301254 -0.082656 0
M  V30 END ATOM
M  V30 BEGIN BOND
M  V30 1 1 1 2
M  V30 2 1 2 3
M  V30 3 2 3 4
M  V30 4 1 4 5
M  V30 5 1 5 6
M  V30 6 2 6 7
M  V30 7 1 7 8
M  V30 8 2 8 9
M  V30 9 1 9 10
M  V30 10 2 10 11
M  V30 11 1 10 12
M  V30 12 1 12 13
M  V30 13 1 13 14
M  V30 14 1 14 15
M  V30 15 2 15 16
M  V30 16 1 15 17
M  V30 17 2 17 18
M  V30 18 1 18 19
M  V30 19 2 19 20
M  V30 20 1 20 21
M  V30 21 2 21 22
M  V30 22 1 22 23
M  V30 23 1 23 24
M  V30 24 1 24 25
M  V30 25 2 25 26
M  V30 26 1 26 27
M  V30 27 2 27 28
M  V30 28 1 28 29
M  V30 29 1 28 30
M  V30 30 2 30 31
M  V30 31 2 5 32
M  V30 32 1 32 33
M  V30 33 1 33 3
M  V30 34 1 11 6
M  V30 35 1 22 17
M  V30 36 1 31 25
M  V30 37 1 14 9
M  V30 38 1 1 34
M  V30 39 1 1 35
M  V30 40 1 1 36
M  V30 41 1 2 37
M  V30 42 1 7 38
M  V30 43 1 8 39
M  V30 44 1 11 40
M  V30 45 1 12 41
M  V30 46 1 12 42
M  V30 47 1 13 43
M  V30 48 1 13 44
M  V30 49 1 18 45
M  V30 50 1 19 46
M  V30 51 1 20 47
M  V30 52 1 21 48
M  V30 53 1 24 49
M  V30 54 1 24 50
M  V30 55 1 26 51
M  V30 56 1 27 52
M  V30 57 1 30 53
M  V30 58 1 31 54
M  V30 59 1 32 55
M  V30 END BOND
M  V30 END CTAB
M  END
>  <Dataset>  (494) 
ChEMBL_Kinases

>  <Ligand_Instance>  (494) 
nan

>  <PDB_ID>  (494) 
nan

>  <Standardized_SMILES>  (494) 
CNc1nc(-c2ccc3c(c2)CCN3C(=O)c2ccccc2OCc2ccc(Cl)cc2)cs1

>  <Name>  (494) 
nan

>  <Pocket>  (494) 
nan

>  <ATP_Site>  (494) 
nan

>  <Peripheral>  (494) 
nan

>  <Num_H_Atoms_ProtBoundConf>  (494) 
nan

>  <Num_Resolved_Atoms>  (494) 
nan

>  <Num_Not_Resolved_Atoms>  (494) 
nan

$$$$
CHEMBL4799612
     RDKit          3D

  0  0  0  0  0  0  0  0  0  0999 V3000
M  V30 BEGIN CTAB
M  V30 COUNTS 70 75 0 0 0
M  V30 BEGIN ATOM
M  V30 1 C -0.493647 6.054065 2.999562 0
M  V30 2 N -0.810013 4.679821 3.341547 0
M  V30 3 C -1.004242 4.563043 4.769725 0
M  V30 4 C 0.294923 3.851698 2.949459 0 CFG=1
M  V30 5 C 0.082122 2.388550 3.256083 0
M  V30 6 C -0.906987 1.730767 2.306000 0
M  V30 7 C -0.429243 1.794340 0.870103 0 CFG=1
M  V30 8 C -1.595753 2.359635 0.050044 0
M  V30 9 C 0.737066 2.679548 0.815967 0
M  V30 10 C 1.822858 2.257498 0.200245 0
M  V30 11 C 2.046624 0.971938 -0.470248 0
M  V30 12 C 0.711575 0.336945 -0.853443 0 CFG=2
M  V30 13 C -0.150388 0.384790 0.418752 0 CFG=2
M  V30 14 C -1.400973 -0.407836 0.217271 0
M  V30 15 C -1.015085 -1.891668 0.025932 0
M  V30 16 C -0.284754 -1.963061 -1.258017 0 CFG=2
M  V30 17 C -1.116896 -1.433564 -2.410580 0
M  V30 18 C 0.386127 -3.229153 -1.605298 0
M  V30 19 C 0.181798 -4.658136 -1.439538 0
M  V30 20 C 1.077254 -5.620464 -1.846261 0
M  V30 21 C 0.897508 -6.980558 -1.714373 0
M  V30 22 C -0.250892 -7.466526 -1.137042 0
M  V30 23 C -0.424388 -8.827102 -1.007994 0
M  V30 24 C -1.586868 -9.286156 -0.424754 0
M  V30 25 N -2.507473 -8.404494 -0.003304 0
M  V30 26 C -2.342718 -7.061204 -0.127500 0
M  V30 27 C -1.195645 -6.561646 -0.704559 0
M  V30 28 C -0.939653 -5.218165 -0.873435 0
M  V30 29 C 1.526560 -2.929628 -2.275401 0
M  V30 30 C 1.621149 -1.448521 -2.378521 0
M  V30 31 C 0.968465 -1.092269 -1.069559 0 CFG=1
M  V30 32 C 0.607749 4.010534 1.471766 0
M  V30 33 H -1.284233 6.533751 2.413918 0
M  V30 34 H -0.295364 6.670818 3.920515 0
M  V30 35 H 0.447033 6.118441 2.399810 0
M  V30 36 H -0.129800 4.124550 5.287263 0
M  V30 37 H -1.911095 3.956477 4.946855 0
M  V30 38 H -1.186743 5.569728 5.211070 0
M  V30 39 H 1.190597 4.147262 3.568783 0
M  V30 40 H 1.050627 1.879389 3.148429 0
M  V30 41 H -0.297047 2.218053 4.266140 0
M  V30 42 H -1.025429 0.690301 2.683373 0
M  V30 43 H -1.901341 2.200808 2.449817 0
M  V30 44 H -1.552276 2.031955 -1.008531 0
M  V30 45 H -2.578144 1.994910 0.433758 0
M  V30 46 H -1.628085 3.453675 0.050541 0
M  V30 47 H 2.685405 2.928070 0.167218 0
M  V30 48 H 2.622159 0.228588 0.133976 0
M  V30 49 H 2.616602 1.071456 -1.424882 0
M  V30 50 H 0.265579 0.912989 -1.661654 0
M  V30 51 H 0.455174 -0.117746 1.201115 0
M  V30 52 H -2.056334 -0.280606 1.085962 0
M  V30 53 H -1.873779 -0.105277 -0.746365 0
M  V30 54 H -0.348464 -2.158345 0.848545 0
M  V30 55 H -1.939746 -2.502001 0.107968 0
M  V30 56 H -0.863468 -2.052396 -3.318162 0
M  V30 57 H -0.889439 -0.404595 -2.698118 0
M  V30 58 H -2.204346 -1.495948 -2.201029 0
M  V30 59 H 2.012083 -5.365743 -2.309418 0
M  V30 60 H 1.624713 -7.689134 -2.046874 0
M  V30 61 H 0.355816 -9.512296 -1.367086 0
M  V30 62 H -1.687244 -10.359634 -0.340751 0
M  V30 63 H -3.095510 -6.382910 0.218527 0
M  V30 64 H -1.747335 -4.626080 -0.508703 0
M  V30 65 H 2.358553 -3.466079 -2.742564 0
M  V30 66 H 2.635175 -1.069468 -2.475424 0
M  V30 67 H 1.024363 -1.055243 -3.225411 0
M  V30 68 H 1.549540 -1.495198 -0.243416 0
M  V30 69 H -0.166353 4.576234 0.920878 0
M  V30 70 H 1.543768 4.613898 1.379802 0
M  V30 END ATOM
M  V30 BEGIN BOND
M  V30 1 1 1 2
M  V30 2 1 2 3
M  V30 3 1 2 4
M  V30 4 1 4 5
M  V30 5 1 5 6
M  V30 6 1 6 7
M  V30 7 1 7 8 CFG=3
M  V30 8 1 7 9
M  V30 9 2 9 10
M  V30 10 1 10 11
M  V30 11 1 11 12
M  V30 12 1 12 13
M  V30 13 1 13 14
M  V30 14 1 14 15
M  V30 15 1 15 16
M  V30 16 1 16 17 CFG=3
M  V30 17 1 16 18
M  V30 18 1 18 19
M  V30 19 2 19 20
M  V30 20 1 20 21
M  V30 21 2 21 22
M  V30 22 1 22 23
M  V30 23 2 23 24
M  V30 24 1 24 25
M  V30 25 2 25 26
M  V30 26 1 26 27
M  V30 27 2 27 28
M  V30 28 2 18 29
M  V30 29 1 29 30
M  V30 30 1 30 31
M  V30 31 1 9 32
M  V30 32 1 32 4
M  V30 33 1 13 7
M  V30 34 1 31 16
M  V30 35 1 31 12
M  V30 36 1 28 19
M  V30 37 1 27 22
M  V30 38 1 1 33
M  V30 39 1 1 34
M  V30 40 1 1 35
M  V30 41 1 3 36
M  V30 42 1 3 37
M  V30 43 1 3 38
M  V30 44 1 4 39 CFG=1
M  V30 45 1 5 40
M  V30 46 1 5 41
M  V30 47 1 6 42
M  V30 48 1 6 43
M  V30 49 1 8 44
M  V30 50 1 8 45
M  V30 51 1 8 46
M  V30 52 1 10 47
M  V30 53 1 11 48
M  V30 54 1 11 49
M  V30 55 1 12 50 CFG=3
M  V30 56 1 13 51 CFG=1
M  V30 57 1 14 52
M  V30 58 1 14 53
M  V30 59 1 15 54
M  V30 60 1 15 55
M  V30 61 1 17 56
M  V30 62 1 17 57
M  V30 63 1 17 58
M  V30 64 1 20 59
M  V30 65 1 21 60
M  V30 66 1 23 61
M  V30 67 1 24 62
M  V30 68 1 26 63
M  V30 69 1 28 64
M  V30 70 1 29 65
M  V30 71 1 30 66
M  V30 72 1 30 67
M  V30 73 1 31 68 CFG=1
M  V30 74 1 32 69
M  V30 75 1 32 70
M  V30 END BOND
M  V30 END CTAB
M  END
>  <Dataset>  (495) 
ChEMBL_Kinases

>  <Ligand_Instance>  (495) 
nan

>  <PDB_ID>  (495) 
nan

>  <Standardized_SMILES>  (495) 
CN(C)[C@H]1CC[C@@]2(C)C(=CC[C@@H]3[C@@H]2CC[C@]2(C)C(c4ccc5ccncc5c4)=CC[C@@H]32)C1

>  <Name>  (495) 
nan

>  <Pocket>  (495) 
nan

>  <ATP_Site>  (495) 
nan

>  <Peripheral>  (495) 
nan

>  <Num_H_Atoms_ProtBoundConf>  (495) 
nan

>  <Num_Resolved_Atoms>  (495) 
nan

>  <Num_Not_Resolved_Atoms>  (495) 
nan

$$$$
CHEMBL4100433
     RDKit          3D

  0  0  0  0  0  0  0  0  0  0999 V3000
M  V30 BEGIN CTAB
M  V30 COUNTS 61 66 0 0 0
M  V30 BEGIN ATOM
M  V30 1 C 3.908506 2.887065 4.196503 0
M  V30 2 O 3.300860 1.973274 3.323598 0
M  V30 3 C 3.160907 2.158974 1.959875 0
M  V30 4 C 3.581971 3.248744 1.224553 0
M  V30 5 C 3.384243 3.319377 -0.139864 0
M  V30 6 C 2.756625 2.277573 -0.755280 0
M  V30 7 C 2.315674 1.161871 -0.061142 0
M  V30 8 C 2.516676 1.091818 1.322517 0
M  V30 9 C 2.043338 -0.120782 2.083621 0
M  V30 10 N 0.874493 0.169486 2.825281 0
M  V30 11 C 0.295736 -0.859542 3.600824 0
M  V30 12 C -1.188622 -0.662648 3.850527 0
M  V30 13 N -1.863427 -0.435732 2.591666 0
M  V30 14 C -1.393368 0.797722 2.035893 0
M  V30 15 C 0.005947 1.177696 2.366839 0
M  V30 16 O 1.712561 0.241865 -0.899456 0
M  V30 17 C 1.742597 0.740405 -2.195629 0
M  V30 18 C 1.245247 0.088697 -3.207933 0
M  V30 19 C 0.584837 -1.203407 -3.279764 0
M  V30 20 C 0.905487 -2.124455 -4.287093 0
M  V30 21 N 0.146632 -3.220132 -4.122631 0
M  V30 22 C -0.677889 -3.092053 -3.051343 0
M  V30 23 N -1.616834 -3.858878 -2.456707 0
M  V30 24 C -2.302968 -3.466202 -1.380895 0
M  V30 25 C -3.299439 -4.350140 -0.794141 0
M  V30 26 C -3.529369 -5.585560 -1.349766 0
M  V30 27 C -4.459589 -6.485737 -0.848934 0
M  V30 28 C -5.210475 -6.138266 0.275523 0
M  V30 29 C -4.990005 -4.891792 0.849498 0
M  V30 30 C -4.049511 -4.031773 0.309554 0
M  V30 31 C -2.012257 -2.215917 -0.883794 0
M  V30 32 C -1.061025 -1.406220 -1.463641 0
M  V30 33 C -0.380868 -1.839396 -2.558109 0
M  V30 34 C 2.397484 2.033756 -2.151937 0
M  V30 35 O 2.588880 2.751909 -3.140447 0
M  V30 36 H 3.228930 3.778067 4.283410 0
M  V30 37 H 4.872591 3.271361 3.805507 0
M  V30 38 H 4.042231 2.476860 5.218401 0
M  V30 39 H 4.069500 4.025687 1.795970 0
M  V30 40 H 3.719050 4.174262 -0.690632 0
M  V30 41 H 1.923333 -0.936571 1.342279 0
M  V30 42 H 2.847178 -0.384190 2.808783 0
M  V30 43 H 0.804356 -0.859541 4.602375 0
M  V30 44 H 0.495108 -1.883507 3.189234 0
M  V30 45 H -1.600165 -1.579459 4.315761 0
M  V30 46 H -1.360110 0.166110 4.573399 0
M  V30 47 H -2.895461 -0.364503 2.809898 0
M  V30 48 H -2.111444 1.617568 2.339578 0
M  V30 49 H -1.526422 0.741967 0.918098 0
M  V30 50 H 0.444121 1.726665 1.502482 0
M  V30 51 H -0.046186 1.972604 3.173909 0
M  V30 52 H 1.356524 0.633701 -4.162477 0
M  V30 53 H 1.630758 -2.063746 -5.112598 0
M  V30 54 H 0.153497 -4.086256 -4.717917 0
M  V30 55 H -3.007359 -5.953938 -2.217929 0
M  V30 56 H -4.653641 -7.453845 -1.268202 0
M  V30 57 H -5.935908 -6.824653 0.676831 0
M  V30 58 H -5.584496 -4.622012 1.735621 0
M  V30 59 H -3.920510 -3.078129 0.794617 0
M  V30 60 H -2.529497 -1.846192 -0.023297 0
M  V30 61 H -0.876846 -0.440524 -1.045436 0
M  V30 END ATOM
M  V30 BEGIN BOND
M  V30 1 1 1 2
M  V30 2 1 2 3
M  V30 3 2 3 4
M  V30 4 1 4 5
M  V30 5 2 5 6
M  V30 6 1 6 7
M  V30 7 2 7 8
M  V30 8 1 8 9
M  V30 9 1 9 10
M  V30 10 1 10 11
M  V30 11 1 11 12
M  V30 12 1 12 13
M  V30 13 1 13 14
M  V30 14 1 14 15
M  V30 15 1 7 16
M  V30 16 1 16 17
M  V30 17 2 17 18
M  V30 18 1 18 19
M  V30 19 2 19 20
M  V30 20 1 20 21
M  V30 21 1 21 22
M  V30 22 2 22 23
M  V30 23 1 23 24
M  V30 24 1 24 25
M  V30 25 2 25 26
M  V30 26 1 26 27
M  V30 27 2 27 28
M  V30 28 1 28 29
M  V30 29 2 29 30
M  V30 30 2 24 31
M  V30 31 1 31 32
M  V30 32 2 32 33
M  V30 33 1 17 34
M  V30 34 2 34 35
M  V30 35 1 8 3
M  V30 36 1 15 10
M  V30 37 1 33 19
M  V30 38 1 34 6
M  V30 39 1 33 22
M  V30 40 1 30 25
M  V30 41 1 1 36
M  V30 42 1 1 37
M  V30 43 1 1 38
M  V30 44 1 4 39
M  V30 45 1 5 40
M  V30 46 1 9 41
M  V30 47 1 9 42
M  V30 48 1 11 43
M  V30 49 1 11 44
M  V30 50 1 12 45
M  V30 51 1 12 46
M  V30 52 1 13 47
M  V30 53 1 14 48
M  V30 54 1 14 49
M  V30 55 1 15 50
M  V30 56 1 15 51
M  V30 57 1 18 52
M  V30 58 1 20 53
M  V30 59 1 21 54
M  V30 60 1 26 55
M  V30 61 1 27 56
M  V30 62 1 28 57
M  V30 63 1 29 58
M  V30 64 1 30 59
M  V30 65 1 31 60
M  V30 66 1 32 61
M  V30 END BOND
M  V30 END CTAB
M  END
>  <Dataset>  (496) 
ChEMBL_Kinases

>  <Ligand_Instance>  (496) 
nan

>  <PDB_ID>  (496) 
nan

>  <Standardized_SMILES>  (496) 
COc1ccc2c(c1CN1CCNCC1)O/C(=C\c1c[nH]c3nc(-c4ccccc4)ccc13)C2=O

>  <Name>  (496) 
nan

>  <Pocket>  (496) 
nan

>  <ATP_Site>  (496) 
nan

>  <Peripheral>  (496) 
nan

>  <Num_H_Atoms_ProtBoundConf>  (496) 
nan

>  <Num_Resolved_Atoms>  (496) 
nan

>  <Num_Not_Resolved_Atoms>  (496) 
nan

$$$$
CHEMBL4100394
     RDKit          3D

  0  0  0  0  0  0  0  0  0  0999 V3000
M  V30 BEGIN CTAB
M  V30 COUNTS 61 65 0 0 0
M  V30 BEGIN ATOM
M  V30 1 C 9.881549 2.875963 3.223804 0
M  V30 2 N 8.566063 2.273206 3.421288 0
M  V30 3 C 7.708893 1.862387 2.369182 0
M  V30 4 O 8.246538 2.090455 1.227493 0
M  V30 5 C 6.406664 1.267444 2.512065 0
M  V30 6 C 5.851855 1.022760 3.773443 0
M  V30 7 C 4.606218 0.456053 3.885217 0
M  V30 8 C 3.879159 0.117683 2.743549 0
M  V30 9 C 4.452501 0.370562 1.493761 0
M  V30 10 C 5.719784 0.947203 1.350323 0
M  V30 11 C 3.876529 0.100471 0.145502 0
M  V30 12 O 4.682393 -0.049074 -0.802499 0
M  V30 13 C 2.430720 0.014586 -0.055589 0
M  V30 14 C 2.272837 -0.193399 -1.406466 0
M  V30 15 C 1.038311 -0.322741 -1.982645 0
M  V30 16 C -0.059485 -0.237905 -1.162027 0
M  V30 17 N -1.440415 -0.310360 -1.307628 0
M  V30 18 C -2.816569 -0.361353 -1.281799 0
M  V30 19 C -3.710596 -1.352148 -1.652738 0
M  V30 20 C -5.045291 -1.119540 -1.481581 0
M  V30 21 N -5.865518 -2.200629 -1.898796 0
M  V30 22 C -6.134425 -3.172168 -0.910638 0
M  V30 23 O -5.566744 -2.864233 0.187104 0
M  V30 24 C -6.960583 -4.343294 -1.188251 0
M  V30 25 C -7.535723 -4.594311 -2.438367 0
M  V30 26 C -8.287547 -5.739807 -2.565575 0
M  V30 27 C -8.492980 -6.631626 -1.534253 0
M  V30 28 C -7.917623 -6.352906 -0.334798 0
M  V30 29 Cl -8.198896 -7.511774 0.956620 0
M  V30 30 C -7.161504 -5.241127 -0.131529 0
M  V30 31 C -5.452716 0.084880 -0.950781 0
M  V30 32 F -6.784042 0.196386 -0.831101 0
M  V30 33 C -4.616435 1.101551 -0.567241 0
M  V30 34 C -3.250295 0.860020 -0.742796 0
M  V30 35 F -2.505307 1.934663 -0.327556 0
M  V30 36 C 0.101478 -0.024692 0.220864 0
M  V30 37 C 1.366567 0.109426 0.820165 0
M  V30 38 C 1.448366 0.336840 2.283579 0
M  V30 39 C 2.524430 -0.493235 2.950543 0
M  V30 40 H 10.087456 3.554117 4.096895 0
M  V30 41 H 9.931391 3.462407 2.288113 0
M  V30 42 H 10.697576 2.135273 3.211175 0
M  V30 43 H 8.226039 2.134531 4.415707 0
M  V30 44 H 6.394518 1.275838 4.685653 0
M  V30 45 H 4.102035 0.229860 4.816103 0
M  V30 46 H 6.108782 1.120917 0.344009 0
M  V30 47 H 3.052770 -0.277691 -2.144224 0
M  V30 48 H 0.740433 -0.487382 -3.004170 0
M  V30 49 H -1.457804 -0.398384 -2.374132 0
M  V30 50 H -3.199008 -2.201731 -2.039126 0
M  V30 51 H -6.238909 -2.262960 -2.869687 0
M  V30 52 H -7.371145 -3.897403 -3.247574 0
M  V30 53 H -8.706913 -5.887223 -3.549732 0
M  V30 54 H -9.110514 -7.490403 -1.787312 0
M  V30 55 H -6.755768 -5.121978 0.863830 0
M  V30 56 H -5.089963 1.985882 -0.167060 0
M  V30 57 H -0.622415 0.073833 1.043248 0
M  V30 58 H 1.638484 1.430986 2.484300 0
M  V30 59 H 0.477966 0.103208 2.771884 0
M  V30 60 H 2.460765 -1.531881 2.557251 0
M  V30 61 H 2.348249 -0.516650 4.030427 0
M  V30 END ATOM
M  V30 BEGIN BOND
M  V30 1 1 1 2
M  V30 2 1 2 3
M  V30 3 2 3 4
M  V30 4 1 3 5
M  V30 5 2 5 6
M  V30 6 1 6 7
M  V30 7 2 7 8
M  V30 8 1 8 9
M  V30 9 2 9 10
M  V30 10 1 9 11
M  V30 11 2 11 12
M  V30 12 1 11 13
M  V30 13 2 13 14
M  V30 14 1 14 15
M  V30 15 2 15 16
M  V30 16 1 16 17
M  V30 17 1 17 18
M  V30 18 2 18 19
M  V30 19 1 19 20
M  V30 20 1 20 21
M  V30 21 1 21 22
M  V30 22 2 22 23
M  V30 23 1 22 24
M  V30 24 2 24 25
M  V30 25 1 25 26
M  V30 26 2 26 27
M  V30 27 1 27 28
M  V30 28 1 28 29
M  V30 29 2 28 30
M  V30 30 2 20 31
M  V30 31 1 31 32
M  V30 32 1 31 33
M  V30 33 2 33 34
M  V30 34 1 34 35
M  V30 35 1 16 36
M  V30 36 2 36 37
M  V30 37 1 37 38
M  V30 38 1 38 39
M  V30 39 1 10 5
M  V30 40 1 37 13
M  V30 41 1 39 8
M  V30 42 1 34 18
M  V30 43 1 30 24
M  V30 44 1 1 40
M  V30 45 1 1 41
M  V30 46 1 1 42
M  V30 47 1 2 43
M  V30 48 1 6 44
M  V30 49 1 7 45
M  V30 50 1 10 46
M  V30 51 1 14 47
M  V30 52 1 15 48
M  V30 53 1 17 49
M  V30 54 1 19 50
M  V30 55 1 21 51
M  V30 56 1 25 52
M  V30 57 1 26 53
M  V30 58 1 27 54
M  V30 59 1 30 55
M  V30 60 1 33 56
M  V30 61 1 36 57
M  V30 62 1 38 58
M  V30 63 1 38 59
M  V30 64 1 39 60
M  V30 65 1 39 61
M  V30 END BOND
M  V30 END CTAB
M  END
>  <Dataset>  (497) 
ChEMBL_Kinases

>  <Ligand_Instance>  (497) 
nan

>  <PDB_ID>  (497) 
nan

>  <Standardized_SMILES>  (497) 
CNC(=O)c1ccc2c(c1)C(=O)c1ccc(Nc3cc(NC(=O)c4cccc(Cl)c4)c(F)cc3F)cc1CC2

>  <Name>  (497) 
nan

>  <Pocket>  (497) 
nan

>  <ATP_Site>  (497) 
nan

>  <Peripheral>  (497) 
nan

>  <Num_H_Atoms_ProtBoundConf>  (497) 
nan

>  <Num_Resolved_Atoms>  (497) 
nan

>  <Num_Not_Resolved_Atoms>  (497) 
nan

$$$$
CHEMBL4100381
     RDKit          3D

  0  0  0  0  0  0  0  0  0  0999 V3000
M  V30 BEGIN CTAB
M  V30 COUNTS 49 53 0 0 0
M  V30 BEGIN ATOM
M  V30 1 N -0.777532 -5.672743 1.221402 0
M  V30 2 C -0.255545 -4.681578 0.978279 0
M  V30 3 C 0.397411 -3.447620 0.689923 0
M  V30 4 C 1.548664 -3.408874 -0.067886 0
M  V30 5 C 2.172493 -2.212509 -0.341252 0
M  V30 6 C 1.693079 -1.006289 0.117052 0
M  V30 7 N 2.371222 0.202898 -0.182255 0
M  V30 8 C 3.637849 0.260790 -0.887248 0
M  V30 9 C 4.379295 1.426433 -0.269177 0
M  V30 10 N 4.077342 1.630367 1.130359 0
M  V30 11 C 2.684365 1.905218 1.405350 0
M  V30 12 C 1.887007 1.522121 0.178830 0
M  V30 13 C 0.439605 1.637152 0.324625 0
M  V30 14 C -0.158875 2.265073 1.398198 0
M  V30 15 C -1.525027 2.382294 1.536798 0
M  V30 16 C -2.325538 1.836558 0.538672 0
M  V30 17 C -1.731319 1.208657 -0.535100 0
M  V30 18 C -0.345531 1.092818 -0.670333 0
M  V30 19 N 0.572239 -1.047486 0.854364 0
M  V30 20 C -0.056973 -2.222562 1.133802 0
M  V30 21 N -1.243161 -2.179232 1.924795 0
M  V30 22 C -1.481090 -1.818083 3.195575 0
M  V30 23 O -0.552905 -1.417403 3.947487 0
M  V30 24 N -2.800299 -1.962352 3.468610 0
M  V30 25 C -3.414571 -2.425514 2.346445 0
M  V30 26 N -4.725236 -2.714919 2.157351 0
M  V30 27 C -5.092356 -3.166485 0.935845 0
M  V30 28 C -4.165855 -3.328058 -0.085518 0
M  V30 29 C -2.825286 -3.026268 0.126167 0
M  V30 30 C -2.420707 -2.559842 1.373954 0
M  V30 31 H 1.920546 -4.371896 -0.426898 0
M  V30 32 H 3.053169 -2.321804 -0.937982 0
M  V30 33 H 3.421475 0.584279 -1.945511 0
M  V30 34 H 4.209062 -0.660513 -0.899723 0
M  V30 35 H 4.208839 2.387742 -0.792443 0
M  V30 36 H 5.461672 1.162352 -0.293394 0
M  V30 37 H 4.394392 0.742841 1.607406 0
M  V30 38 H 2.493223 2.948606 1.735424 0
M  V30 39 H 2.371408 1.225731 2.224797 0
M  V30 40 H 2.182208 2.301194 -0.590047 0
M  V30 41 H 0.514125 2.668872 2.141561 0
M  V30 42 H -1.928775 2.886845 2.403255 0
M  V30 43 H -3.399840 1.922113 0.636585 0
M  V30 44 H -2.370627 0.788175 -1.304790 0
M  V30 45 H 0.006492 0.583581 -1.547918 0
M  V30 46 H -3.259001 -1.752037 4.385449 0
M  V30 47 H -6.103647 -3.438582 0.636626 0
M  V30 48 H -4.445635 -3.693590 -1.084734 0
M  V30 49 H -2.098951 -3.143922 -0.647181 0
M  V30 END ATOM
M  V30 BEGIN BOND
M  V30 1 3 1 2
M  V30 2 1 2 3
M  V30 3 2 3 4
M  V30 4 1 4 5
M  V30 5 2 5 6
M  V30 6 1 6 7
M  V30 7 1 7 8
M  V30 8 1 8 9
M  V30 9 1 9 10
M  V30 10 1 10 11
M  V30 11 1 11 12
M  V30 12 1 12 13
M  V30 13 2 13 14
M  V30 14 1 14 15
M  V30 15 2 15 16
M  V30 16 1 16 17
M  V30 17 2 17 18
M  V30 18 1 6 19
M  V30 19 2 19 20
M  V30 20 1 20 21
M  V30 21 1 21 22
M  V30 22 2 22 23
M  V30 23 1 22 24
M  V30 24 1 24 25
M  V30 25 2 25 26
M  V30 26 1 26 27
M  V30 27 2 27 28
M  V30 28 1 28 29
M  V30 29 2 29 30
M  V30 30 1 20 3
M  V30 31 1 30 21
M  V30 32 1 12 7
M  V30 33 1 18 13
M  V30 34 1 30 25
M  V30 35 1 4 31
M  V30 36 1 5 32
M  V30 37 1 8 33
M  V30 38 1 8 34
M  V30 39 1 9 35
M  V30 40 1 9 36
M  V30 41 1 10 37
M  V30 42 1 11 38
M  V30 43 1 11 39
M  V30 44 1 12 40
M  V30 45 1 14 41
M  V30 46 1 15 42
M  V30 47 1 16 43
M  V30 48 1 17 44
M  V30 49 1 18 45
M  V30 50 1 24 46
M  V30 51 1 27 47
M  V30 52 1 28 48
M  V30 53 1 29 49
M  V30 END BOND
M  V30 END CTAB
M  END
>  <Dataset>  (498) 
ChEMBL_Kinases

>  <Ligand_Instance>  (498) 
nan

>  <PDB_ID>  (498) 
nan

>  <Standardized_SMILES>  (498) 
N#Cc1ccc(N2CCNCC2c2ccccc2)nc1-n1c(=O)[nH]c2ncccc21

>  <Name>  (498) 
nan

>  <Pocket>  (498) 
nan

>  <ATP_Site>  (498) 
nan

>  <Peripheral>  (498) 
nan

>  <Num_H_Atoms_ProtBoundConf>  (498) 
nan

>  <Num_Resolved_Atoms>  (498) 
nan

>  <Num_Not_Resolved_Atoms>  (498) 
nan

$$$$
CHEMBL4100328
     RDKit          3D

  0  0  0  0  0  0  0  0  0  0999 V3000
M  V30 BEGIN CTAB
M  V30 COUNTS 37 40 0 0 0
M  V30 BEGIN ATOM
M  V30 1 C -0.311807 -5.665083 4.628387 0
M  V30 2 N -0.262075 -4.321621 4.081953 0
M  V30 3 C -0.553475 -4.001741 2.787991 0
M  V30 4 C -0.401486 -2.620030 2.618877 0
M  V30 5 C -0.623100 -1.869928 1.366097 0
M  V30 6 C 0.327739 -0.933659 1.022546 0
M  V30 7 C 0.043621 -0.272620 -0.164750 0
M  V30 8 C 0.908489 0.758007 -0.725498 0
M  V30 9 C 2.305146 0.818805 -0.613434 0
M  V30 10 C 3.001633 1.858975 -1.192659 0
M  V30 11 C 2.361490 2.856955 -1.889149 0
M  V30 12 N 2.881892 3.930308 -2.507580 0
M  V30 13 C 1.878541 4.646056 -3.065149 0
M  V30 14 C 0.698612 3.991010 -2.780530 0
M  V30 15 C 0.967645 2.860833 -2.041670 0
M  V30 16 C 0.347197 1.792783 -1.436766 0
M  V30 17 C -1.097557 -0.577749 -0.875039 0
M  V30 18 N -1.973087 -1.511085 -0.461209 0
M  V30 19 C -1.763692 -2.183608 0.668181 0
M  V30 20 N -2.702202 -3.167812 1.089046 0
M  V30 21 C -0.006856 -2.149456 3.877955 0
M  V30 22 N 0.058698 -3.206235 4.705384 0
M  V30 23 H 0.539596 -6.257818 4.271408 0
M  V30 24 H -0.373700 -5.624302 5.738430 0
M  V30 25 H -1.266744 -6.182209 4.317307 0
M  V30 26 H -0.850162 -4.726345 2.043453 0
M  V30 27 H 1.206374 -0.700023 1.570899 0
M  V30 28 H 2.759351 0.007226 -0.054989 0
M  V30 29 H 4.097598 1.867769 -1.081048 0
M  V30 30 H 3.848591 4.298535 -2.636175 0
M  V30 31 H 1.725334 5.544608 -3.646208 0
M  V30 32 H -0.365250 4.140171 -2.988834 0
M  V30 33 H -0.744176 1.790449 -1.553255 0
M  V30 34 H -1.409770 -0.113492 -1.823263 0
M  V30 35 H -2.908987 -2.966933 2.113069 0
M  V30 36 H -2.910537 -2.968983 2.112832 0
M  V30 37 H 0.164765 -1.098182 3.966357 0
M  V30 END ATOM
M  V30 BEGIN BOND
M  V30 1 1 1 2
M  V30 2 1 2 3
M  V30 3 2 3 4
M  V30 4 1 4 5
M  V30 5 2 5 6
M  V30 6 1 6 7
M  V30 7 1 7 8
M  V30 8 2 8 9
M  V30 9 1 9 10
M  V30 10 2 10 11
M  V30 11 1 11 12
M  V30 12 1 12 13
M  V30 13 2 13 14
M  V30 14 1 14 15
M  V30 15 2 15 16
M  V30 16 2 7 17
M  V30 17 1 17 18
M  V30 18 2 18 19
M  V30 19 1 19 20
M  V30 20 1 4 21
M  V30 21 2 21 22
M  V30 22 1 22 2
M  V30 23 1 19 5
M  V30 24 1 16 8
M  V30 25 1 15 11
M  V30 26 1 1 23
M  V30 27 1 1 24
M  V30 28 1 1 25
M  V30 29 1 3 26
M  V30 30 1 6 27
M  V30 31 1 9 28
M  V30 32 1 10 29
M  V30 33 1 12 30
M  V30 34 1 13 31
M  V30 35 1 14 32
M  V30 36 1 16 33
M  V30 37 1 17 34
M  V30 38 1 20 35
M  V30 39 1 20 36
M  V30 40 1 21 37
M  V30 END BOND
M  V30 END CTAB
M  END
>  <Dataset>  (499) 
ChEMBL_Kinases

>  <Ligand_Instance>  (499) 
nan

>  <PDB_ID>  (499) 
nan

>  <Standardized_SMILES>  (499) 
Cn1cc(-c2cc(-c3ccc4[nH]ccc4c3)cnc2N)cn1

>  <Name>  (499) 
nan

>  <Pocket>  (499) 
nan

>  <ATP_Site>  (499) 
nan

>  <Peripheral>  (499) 
nan

>  <Num_H_Atoms_ProtBoundConf>  (499) 
nan

>  <Num_Resolved_Atoms>  (499) 
nan

>  <Num_Not_Resolved_Atoms>  (499) 
nan

$$$$
CHEMBL4100294
     RDKit          3D

  0  0  0  0  0  0  0  0  0  0999 V3000
M  V30 BEGIN CTAB
M  V30 COUNTS 39 41 0 0 0
M  V30 BEGIN ATOM
M  V30 1 O 2.372062 -0.670125 -1.874263 0
M  V30 2 C 1.678264 -0.322619 -0.883922 0
M  V30 3 N 2.354715 -0.750897 0.276760 0
M  V30 4 C 3.576552 -1.433655 0.214481 0
M  V30 5 C 3.437966 -2.828680 0.142280 0
M  V30 6 C 4.574771 -3.646363 0.074517 0
M  V30 7 C 5.802176 -3.014958 0.082868 0
M  V30 8 N 5.946129 -1.659281 0.152839 0
M  V30 9 C 4.840946 -0.861931 0.218847 0
M  V30 10 C 0.412572 0.391842 -0.990724 0
M  V30 11 C 0.051518 0.650425 -2.322377 0
M  V30 12 C -1.088729 1.304492 -2.665676 0
M  V30 13 Br -1.556921 1.643439 -4.481699 0
M  V30 14 C -1.963134 1.754458 -1.700679 0
M  V30 15 C -1.591857 1.491556 -0.400670 0
M  V30 16 C -0.449584 0.833947 -0.004511 0
M  V30 17 O -0.045738 0.554861 1.255389 0
M  V30 18 C -0.527603 0.768637 2.510375 0
M  V30 19 C -1.819130 0.194110 2.881485 0
M  V30 20 C -1.751702 -1.133088 3.332490 0
M  V30 21 C -2.835732 -1.877127 3.747810 0
M  V30 22 C -4.084598 -1.298069 3.727661 0
M  V30 23 F -5.233067 -1.906859 4.105156 0
M  V30 24 C -4.197558 0.003389 3.292414 0
M  V30 25 C -3.095883 0.713080 2.886666 0
M  V30 26 H 1.907834 -0.538855 1.194851 0
M  V30 27 H 2.468663 -3.334395 0.135304 0
M  V30 28 H 4.516810 -4.723395 0.017748 0
M  V30 29 H 6.727966 -3.603955 0.031824 0
M  V30 30 H 4.850264 0.200176 0.275828 0
M  V30 31 H 0.660358 0.344902 -3.177769 0
M  V30 32 H -2.880094 2.278680 -1.934716 0
M  V30 33 H -2.263417 1.840527 0.367872 0
M  V30 34 H -0.588233 1.892931 2.677927 0
M  V30 35 H 0.217548 0.446862 3.299431 0
M  V30 36 H -0.801094 -1.687285 3.387204 0
M  V30 37 H -2.752251 -2.890203 4.087432 0
M  V30 38 H -5.146601 0.495124 3.259176 0
M  V30 39 H -3.137224 1.737497 2.546484 0
M  V30 END ATOM
M  V30 BEGIN BOND
M  V30 1 2 1 2
M  V30 2 1 2 3
M  V30 3 1 3 4
M  V30 4 2 4 5
M  V30 5 1 5 6
M  V30 6 2 6 7
M  V30 7 1 7 8
M  V30 8 2 8 9
M  V30 9 1 2 10
M  V30 10 2 10 11
M  V30 11 1 11 12
M  V30 12 1 12 13
M  V30 13 2 12 14
M  V30 14 1 14 15
M  V30 15 2 15 16
M  V30 16 1 16 17
M  V30 17 1 17 18
M  V30 18 1 18 19
M  V30 19 2 19 20
M  V30 20 1 20 21
M  V30 21 2 21 22
M  V30 22 1 22 23
M  V30 23 1 22 24
M  V30 24 2 24 25
M  V30 25 1 9 4
M  V30 26 1 16 10
M  V30 27 1 25 19
M  V30 28 1 3 26
M  V30 29 1 5 27
M  V30 30 1 6 28
M  V30 31 1 7 29
M  V30 32 1 9 30
M  V30 33 1 11 31
M  V30 34 1 14 32
M  V30 35 1 15 33
M  V30 36 1 18 34
M  V30 37 1 18 35
M  V30 38 1 20 36
M  V30 39 1 21 37
M  V30 40 1 24 38
M  V30 41 1 25 39
M  V30 END BOND
M  V30 END CTAB
M  END
>  <Dataset>  (500) 
ChEMBL_Kinases

>  <Ligand_Instance>  (500) 
nan

>  <PDB_ID>  (500) 
nan

>  <Standardized_SMILES>  (500) 
O=C(Nc1cccnc1)c1cc(Br)ccc1OCc1ccc(F)cc1

>  <Name>  (500) 
nan

>  <Pocket>  (500) 
nan

>  <ATP_Site>  (500) 
nan

>  <Peripheral>  (500) 
nan

>  <Num_H_Atoms_ProtBoundConf>  (500) 
nan

>  <Num_Resolved_Atoms>  (500) 
nan

>  <Num_Not_Resolved_Atoms>  (500) 
nan

$$$$
CHEMBL4799661
     RDKit          3D

  0  0  0  0  0  0  0  0  0  0999 V3000
M  V30 BEGIN CTAB
M  V30 COUNTS 89 95 0 0 0
M  V30 BEGIN ATOM
M  V30 1 C 5.948776 -6.632001 0.988353 0
M  V30 2 N 4.969016 -5.571722 1.023147 0
M  V30 3 C 5.348299 -4.392335 0.380964 0
M  V30 4 O 6.451068 -4.319376 -0.159000 0
M  V30 5 C 4.544601 -3.162571 0.266880 0
M  V30 6 S 5.171229 -1.753179 -0.580385 0
M  V30 7 C 3.738386 -0.710884 -0.328447 0
M  V30 8 C 3.750660 0.649622 -0.872468 0
M  V30 9 C 4.827456 1.096736 -1.609756 0
M  V30 10 C 4.808972 2.404051 -2.106378 0
M  V30 11 N 3.776937 3.250099 -1.893371 0
M  V30 12 C 2.709463 2.836264 -1.173630 0
M  V30 13 N 1.567625 3.677805 -0.902562 0
M  V30 14 C 1.772336 4.391637 0.288578 0
M  V30 15 O 2.580002 4.583659 1.225117 0
M  V30 16 C 0.747318 5.349593 0.825161 0
M  V30 17 C -0.685787 4.908094 0.670539 0
M  V30 18 C -0.166139 6.029234 -0.151598 0
M  V30 19 C 2.737514 1.560542 -0.693878 0
M  V30 20 N 2.820897 -1.423373 0.377104 0
M  V30 21 C 3.197892 -2.646994 0.686291 0
M  V30 22 O 2.692206 -3.709650 1.342418 0
M  V30 23 C 1.584314 -4.085131 1.997276 0
M  V30 24 C 0.276231 -4.137790 1.211463 0
M  V30 25 O 0.375371 -5.006646 0.159881 0
M  V30 26 C -0.772966 -5.219715 -0.535631 0
M  V30 27 C -1.432397 -4.020791 -1.084811 0
M  V30 28 C -1.251427 -3.233408 -2.197441 0
M  V30 29 N -2.188371 -2.242835 -2.318490 0
M  V30 30 C -2.130688 -1.285340 -3.436700 0
M  V30 31 C -1.353173 -0.090456 -2.906216 0
M  V30 32 N -2.031939 0.573348 -1.830649 0
M  V30 33 C -2.771322 0.520602 -0.636900 0
M  V30 34 C -4.165187 0.547020 -0.785643 0
M  V30 35 C -5.060484 0.473364 0.288407 0
M  V30 36 N -4.478990 0.374594 1.491253 0
M  V30 37 C -3.161003 0.347542 1.668820 0
M  V30 38 C -2.672410 0.243376 2.968528 0
M  V30 39 C -1.309692 0.215667 3.147207 0
M  V30 40 C -0.434471 0.288224 2.078803 0
M  V30 41 O 0.944083 0.261257 2.257037 0
M  V30 42 C 1.541161 0.158459 3.536617 0
M  V30 43 C -0.888540 0.392094 0.779984 0
M  V30 44 C -2.257393 0.417605 0.633896 0
M  V30 45 C -6.507388 0.511011 -0.018446 0
M  V30 46 C -6.829461 -0.545613 -1.045662 0
M  V30 47 C -5.892881 -0.457223 -2.232554 0
M  V30 48 C -4.935925 0.676652 -2.072195 0
M  V30 49 N -2.950964 -2.430760 -1.261590 0
M  V30 50 N -2.542352 -3.444107 -0.531953 0
M  V30 51 H 6.668282 -6.554560 1.810735 0
M  V30 52 H 6.456149 -6.695522 0.002299 0
M  V30 53 H 5.380148 -7.591758 1.157071 0
M  V30 54 H 4.029771 -5.596080 1.468047 0
M  V30 55 H 5.694284 0.490291 -1.830325 0
M  V30 56 H 5.655724 2.743628 -2.680975 0
M  V30 57 H 0.658624 3.863488 -1.382158 0
M  V30 58 H 0.985612 5.864154 1.759079 0
M  V30 59 H -0.916895 3.939784 0.167310 0
M  V30 60 H -1.426401 5.190654 1.452337 0
M  V30 61 H -0.513652 7.070336 0.021210 0
M  V30 62 H 0.007571 5.796373 -1.227486 0
M  V30 63 H 1.905817 1.234633 -0.124496 0
M  V30 64 H 1.725628 -5.087399 2.475186 0
M  V30 65 H 1.369058 -3.326082 2.813153 0
M  V30 66 H -0.056369 -3.122283 0.956959 0
M  V30 67 H -0.486507 -4.556279 1.914008 0
M  V30 68 H -0.625514 -5.995765 -1.344204 0
M  V30 69 H -1.536309 -5.740091 0.136664 0
M  V30 70 H -0.427548 -3.425279 -2.881458 0
M  V30 71 H -1.547633 -1.739849 -4.234372 0
M  V30 72 H -3.159867 -1.068549 -3.718439 0
M  V30 73 H -0.389752 -0.480044 -2.510067 0
M  V30 74 H -1.090552 0.613783 -3.704168 0
M  V30 75 H -2.017433 1.638952 -1.870473 0
M  V30 76 H -3.389437 0.189067 3.776841 0
M  V30 77 H -0.943358 0.133727 4.161496 0
M  V30 78 H 2.632976 0.333926 3.431142 0
M  V30 79 H 1.159203 0.953917 4.228246 0
M  V30 80 H 1.357963 -0.833776 3.980769 0
M  V30 81 H -0.301496 0.451615 -0.122076 0
M  V30 82 H -6.851976 1.486203 -0.427810 0
M  V30 83 H -7.073344 0.291548 0.908673 0
M  V30 84 H -7.864193 -0.494730 -1.401733 0
M  V30 85 H -6.728012 -1.527861 -0.532127 0
M  V30 86 H -6.485887 -0.308398 -3.155197 0
M  V30 87 H -5.316705 -1.394584 -2.296768 0
M  V30 88 H -4.254752 0.861114 -2.909527 0
M  V30 89 H -5.513101 1.646088 -1.964196 0
M  V30 END ATOM
M  V30 BEGIN BOND
M  V30 1 1 1 2
M  V30 2 1 2 3
M  V30 3 2 3 4
M  V30 4 1 3 5
M  V30 5 1 5 6
M  V30 6 1 6 7
M  V30 7 1 7 8
M  V30 8 2 8 9
M  V30 9 1 9 10
M  V30 10 2 10 11
M  V30 11 1 11 12
M  V30 12 1 12 13
M  V30 13 1 13 14
M  V30 14 2 14 15
M  V30 15 1 14 16
M  V30 16 1 16 17
M  V30 17 1 17 18
M  V30 18 2 12 19
M  V30 19 2 7 20
M  V30 20 1 20 21
M  V30 21 1 21 22
M  V30 22 1 22 23
M  V30 23 1 23 24
M  V30 24 1 24 25
M  V30 25 1 25 26
M  V30 26 1 26 27
M  V30 27 2 27 28
M  V30 28 1 28 29
M  V30 29 1 29 30
M  V30 30 1 30 31
M  V30 31 1 31 32
M  V30 32 1 32 33
M  V30 33 2 33 34
M  V30 34 1 34 35
M  V30 35 2 35 36
M  V30 36 1 36 37
M  V30 37 2 37 38
M  V30 38 1 38 39
M  V30 39 2 39 40
M  V30 40 1 40 41
M  V30 41 1 41 42
M  V30 42 1 40 43
M  V30 43 2 43 44
M  V30 44 1 35 45
M  V30 45 1 45 46
M  V30 46 1 46 47
M  V30 47 1 47 48
M  V30 48 1 29 49
M  V30 49 2 49 50
M  V30 50 2 21 5
M  V30 51 1 50 27
M  V30 52 1 19 8
M  V30 53 1 44 33
M  V30 54 1 18 16
M  V30 55 1 48 34
M  V30 56 1 44 37
M  V30 57 1 1 51
M  V30 58 1 1 52
M  V30 59 1 1 53
M  V30 60 1 2 54
M  V30 61 1 9 55
M  V30 62 1 10 56
M  V30 63 1 13 57
M  V30 64 1 16 58
M  V30 65 1 17 59
M  V30 66 1 17 60
M  V30 67 1 18 61
M  V30 68 1 18 62
M  V30 69 1 19 63
M  V30 70 1 23 64
M  V30 71 1 23 65
M  V30 72 1 24 66
M  V30 73 1 24 67
M  V30 74 1 26 68
M  V30 75 1 26 69
M  V30 76 1 28 70
M  V30 77 1 30 71
M  V30 78 1 30 72
M  V30 79 1 31 73
M  V30 80 1 31 74
M  V30 81 1 32 75
M  V30 82 1 38 76
M  V30 83 1 39 77
M  V30 84 1 42 78
M  V30 85 1 42 79
M  V30 86 1 42 80
M  V30 87 1 43 81
M  V30 88 1 45 82
M  V30 89 1 45 83
M  V30 90 1 46 84
M  V30 91 1 46 85
M  V30 92 1 47 86
M  V30 93 1 47 87
M  V30 94 1 48 88
M  V30 95 1 48 89
M  V30 END BOND
M  V30 END CTAB
M  END
>  <Dataset>  (501) 
ChEMBL_Kinases

>  <Ligand_Instance>  (501) 
nan

>  <PDB_ID>  (501) 
nan

>  <Standardized_SMILES>  (501) 
CNC(=O)c1sc(-c2ccnc(NC(=O)C3CC3)c2)nc1OCCOCc1cn(CCNc2c3c(nc4ccc(OC)cc24)CCCC3)nn1

>  <Name>  (501) 
nan

>  <Pocket>  (501) 
nan

>  <ATP_Site>  (501) 
nan

>  <Peripheral>  (501) 
nan

>  <Num_H_Atoms_ProtBoundConf>  (501) 
nan

>  <Num_Resolved_Atoms>  (501) 
nan

>  <Num_Not_Resolved_Atoms>  (501) 
nan

$$$$
CHEMBL4101302
     RDKit          3D

  0  0  0  0  0  0  0  0  0  0999 V3000
M  V30 BEGIN CTAB
M  V30 COUNTS 34 37 0 0 0
M  V30 BEGIN ATOM
M  V30 1 C -1.532187 -2.728544 4.585692 0
M  V30 2 C -0.615404 -3.684926 4.159365 0
M  V30 3 C -0.185198 -3.728554 2.828482 0
M  V30 4 C -0.671274 -2.811648 1.910289 0
M  V30 5 C -0.265595 -2.800941 0.509676 0
M  V30 6 N -0.161852 -3.867537 -0.301408 0
M  V30 7 N 0.230835 -3.523217 -1.514451 0
M  V30 8 C 0.410594 -2.191174 -1.571955 0
M  V30 9 C 0.804440 -1.282810 -2.549810 0
M  V30 10 C 0.881099 0.072989 -2.240234 0
M  V30 11 C 0.574494 0.532212 -0.984394 0
M  V30 12 C 0.658330 1.960161 -0.668941 0
M  V30 13 C 0.992205 2.289801 0.631938 0
M  V30 14 C 1.083663 3.624389 0.978035 0
M  V30 15 N 0.858934 4.606137 0.092478 0
M  V30 16 C 0.530223 4.304927 -1.188360 0
M  V30 17 C 0.427219 2.970616 -1.579600 0
M  V30 18 C 0.188251 -0.392804 -0.039964 0
M  V30 19 C 0.096556 -1.738646 -0.293370 0
M  V30 20 C -1.579602 -1.865539 2.336706 0
M  V30 21 C -2.020176 -1.807657 3.662977 0
M  V30 22 H -1.867122 -2.698170 5.631475 0
M  V30 23 H -0.245308 -4.394021 4.889440 0
M  V30 24 H 0.534860 -4.481093 2.497209 0
M  V30 25 H 0.397185 -4.135059 -2.349552 0
M  V30 26 H 1.038516 -1.681218 -3.528966 0
M  V30 27 H 1.191468 0.737410 -3.033308 0
M  V30 28 H 1.196196 1.620489 1.434493 0
M  V30 29 H 1.338872 4.018327 1.971671 0
M  V30 30 H 0.340959 5.069694 -1.933510 0
M  V30 31 H 0.170941 2.649643 -2.577431 0
M  V30 32 H -0.046443 -0.001279 0.939456 0
M  V30 33 H -2.027556 -1.103203 1.720842 0
M  V30 34 H -2.729728 -1.082239 4.033270 0
M  V30 END ATOM
M  V30 BEGIN BOND
M  V30 1 2 1 2
M  V30 2 1 2 3
M  V30 3 2 3 4
M  V30 4 1 4 5
M  V30 5 2 5 6
M  V30 6 1 6 7
M  V30 7 1 7 8
M  V30 8 2 8 9
M  V30 9 1 9 10
M  V30 10 2 10 11
M  V30 11 1 11 12
M  V30 12 2 12 13
M  V30 13 1 13 14
M  V30 14 2 14 15
M  V30 15 1 15 16
M  V30 16 2 16 17
M  V30 17 1 11 18
M  V30 18 2 18 19
M  V30 19 1 4 20
M  V30 20 2 20 21
M  V30 21 1 21 1
M  V30 22 1 19 5
M  V30 23 1 19 8
M  V30 24 1 17 12
M  V30 25 1 1 22
M  V30 26 1 2 23
M  V30 27 1 3 24
M  V30 28 1 7 25
M  V30 29 1 9 26
M  V30 30 1 10 27
M  V30 31 1 13 28
M  V30 32 1 14 29
M  V30 33 1 16 30
M  V30 34 1 17 31
M  V30 35 1 18 32
M  V30 36 1 20 33
M  V30 37 1 21 34
M  V30 END BOND
M  V30 END CTAB
M  END
>  <Dataset>  (502) 
ChEMBL_Kinases

>  <Ligand_Instance>  (502) 
nan

>  <PDB_ID>  (502) 
nan

>  <Standardized_SMILES>  (502) 
c1ccc(-c2n[nH]c3ccc(-c4ccncc4)cc23)cc1

>  <Name>  (502) 
nan

>  <Pocket>  (502) 
nan

>  <ATP_Site>  (502) 
nan

>  <Peripheral>  (502) 
nan

>  <Num_H_Atoms_ProtBoundConf>  (502) 
nan

>  <Num_Resolved_Atoms>  (502) 
nan

>  <Num_Not_Resolved_Atoms>  (502) 
nan

$$$$
CHEMBL4100265
     RDKit          3D

  0  0  0  0  0  0  0  0  0  0999 V3000
M  V30 BEGIN CTAB
M  V30 COUNTS 40 43 0 0 0
M  V30 BEGIN ATOM
M  V30 1 C 1.773440 -3.340361 3.582619 0
M  V30 2 C 1.641016 -3.104338 2.128476 0
M  V30 3 C 2.585302 -3.666402 1.262291 0
M  V30 4 N 2.542613 -3.483077 -0.075763 0
M  V30 5 C 1.578081 -2.739531 -0.643575 0
M  V30 6 C 0.613890 -2.154408 0.148791 0
M  V30 7 C -0.493307 -1.254564 -0.173627 0
M  V30 8 C -0.084774 -0.032475 -0.712457 0
M  V30 9 C -0.992632 0.979670 -1.023142 0
M  V30 10 N -0.426784 2.183995 -1.567039 0
M  V30 11 C 0.231005 2.819745 -0.445764 0
M  V30 12 N 1.526166 2.405030 -0.360457 0
M  V30 13 N 2.154452 2.965901 0.652630 0
M  V30 14 C 3.517329 2.827301 1.127693 0
M  V30 15 C 1.270474 3.774370 1.263481 0
M  V30 16 C 0.056150 3.703555 0.597602 0
M  V30 17 Cl -1.558325 4.370436 0.691166 0
M  V30 18 N -2.306337 0.749598 -0.789784 0
M  V30 19 C -2.745111 -0.408470 -0.276613 0
M  V30 20 N -3.932146 -0.925476 0.048143 0
M  V30 21 C -3.823120 -2.176395 0.531217 0
M  V30 22 C -2.465890 -2.513844 0.528834 0
M  V30 23 C -1.918475 -3.762918 0.946558 0
M  V30 24 N -1.453896 -4.796410 1.286614 0
M  V30 25 C -1.843879 -1.391455 0.024963 0
M  V30 26 C 0.647316 -2.339899 1.540912 0
M  V30 27 H 1.165416 -4.164499 3.967547 0
M  V30 28 H 2.832725 -3.473674 3.887206 0
M  V30 29 H 1.346091 -2.421266 4.088827 0
M  V30 30 H 3.399035 -4.275079 1.643721 0
M  V30 31 H 1.410548 -2.499630 -1.687614 0
M  V30 32 H 0.962603 0.160280 -0.905808 0
M  V30 33 H -0.458450 2.557113 -2.534270 0
M  V30 34 H 4.172902 3.670891 0.823271 0
M  V30 35 H 3.585334 2.722031 2.224101 0
M  V30 36 H 3.943832 1.864956 0.716109 0
M  V30 37 H 1.277767 4.435562 2.113818 0
M  V30 38 H -4.835739 -0.385945 -0.073100 0
M  V30 39 H -4.649922 -2.786458 0.855056 0
M  V30 40 H -0.041224 -1.942308 2.293198 0
M  V30 END ATOM
M  V30 BEGIN BOND
M  V30 1 1 1 2
M  V30 2 2 2 3
M  V30 3 1 3 4
M  V30 4 2 4 5
M  V30 5 1 5 6
M  V30 6 1 6 7
M  V30 7 2 7 8
M  V30 8 1 8 9
M  V30 9 1 9 10
M  V30 10 1 10 11
M  V30 11 2 11 12
M  V30 12 1 12 13
M  V30 13 1 13 14
M  V30 14 1 13 15
M  V30 15 2 15 16
M  V30 16 1 16 17
M  V30 17 2 9 18
M  V30 18 1 18 19
M  V30 19 1 19 20
M  V30 20 1 20 21
M  V30 21 2 21 22
M  V30 22 1 22 23
M  V30 23 3 23 24
M  V30 24 1 22 25
M  V30 25 2 6 26
M  V30 26 1 26 2
M  V30 27 1 25 7
M  V30 28 1 16 11
M  V30 29 2 25 19
M  V30 30 1 1 27
M  V30 31 1 1 28
M  V30 32 1 1 29
M  V30 33 1 3 30
M  V30 34 1 5 31
M  V30 35 1 8 32
M  V30 36 1 10 33
M  V30 37 1 14 34
M  V30 38 1 14 35
M  V30 39 1 14 36
M  V30 40 1 15 37
M  V30 41 1 20 38
M  V30 42 1 21 39
M  V30 43 1 26 40
M  V30 END BOND
M  V30 END CTAB
M  END
>  <Dataset>  (503) 
ChEMBL_Kinases

>  <Ligand_Instance>  (503) 
nan

>  <PDB_ID>  (503) 
nan

>  <Standardized_SMILES>  (503) 
Cc1cncc(-c2cc(Nc3nn(C)cc3Cl)nc3[nH]cc(C#N)c23)c1

>  <Name>  (503) 
nan

>  <Pocket>  (503) 
nan

>  <ATP_Site>  (503) 
nan

>  <Peripheral>  (503) 
nan

>  <Num_H_Atoms_ProtBoundConf>  (503) 
nan

>  <Num_Resolved_Atoms>  (503) 
nan

>  <Num_Not_Resolved_Atoms>  (503) 
nan

$$$$
CHEMBL4100228
     RDKit          3D

  0  0  0  0  0  0  0  0  0  0999 V3000
M  V30 BEGIN CTAB
M  V30 COUNTS 35 37 0 0 0
M  V30 BEGIN ATOM
M  V30 1 N 0.927218 -5.456239 3.208889 0
M  V30 2 C 1.148813 -4.602894 2.081644 0
M  V30 3 C 1.391277 -5.152615 0.835371 0
M  V30 4 C 1.596825 -4.278379 -0.212681 0
M  V30 5 C 1.570241 -2.905741 -0.067503 0
M  V30 6 C 1.329352 -2.346056 1.170788 0
M  V30 7 C 1.263203 -0.931045 1.521461 0
M  V30 8 N 2.272465 -0.297128 2.139590 0
M  V30 9 N 2.006100 0.974845 2.363761 0
M  V30 10 C 0.769071 1.206577 1.877487 0
M  V30 11 N -0.062029 2.353593 1.817806 0
M  V30 12 C -1.390784 2.576452 1.290950 0
M  V30 13 C -1.515508 2.301964 -0.157155 0
M  V30 14 C -0.929307 3.289879 -0.941553 0
M  V30 15 F -0.294583 4.398954 -0.462986 0
M  V30 16 C -0.926782 3.251755 -2.329621 0
M  V30 17 C -1.546126 2.163721 -2.954346 0
M  V30 18 C -2.138284 1.165381 -2.176717 0
M  V30 19 C -2.117811 1.243024 -0.802651 0
M  V30 20 Cl -2.837979 0.055472 0.253827 0
M  V30 21 N 0.343232 0.037337 1.373949 0
M  V30 22 C 1.121134 -3.231199 2.232554 0
M  V30 23 H 0.091463 -5.305741 3.824576 0
M  V30 24 H 1.505677 -6.263296 3.540952 0
M  V30 25 H 1.419549 -6.224155 0.682924 0
M  V30 26 H 1.790313 -4.644103 -1.205532 0
M  V30 27 H 1.725817 -2.188611 -0.857901 0
M  V30 28 H 2.557167 1.734909 2.812674 0
M  V30 29 H 0.438741 3.183004 2.260748 0
M  V30 30 H -1.690315 3.617766 1.462960 0
M  V30 31 H -2.133908 1.933995 1.816273 0
M  V30 32 H -0.485535 3.994328 -2.968519 0
M  V30 33 H -1.598046 2.040973 -4.031311 0
M  V30 34 H -2.632874 0.300070 -2.604745 0
M  V30 35 H 0.926375 -2.868250 3.233326 0
M  V30 END ATOM
M  V30 BEGIN BOND
M  V30 1 1 1 2
M  V30 2 2 2 3
M  V30 3 1 3 4
M  V30 4 2 4 5
M  V30 5 1 5 6
M  V30 6 1 6 7
M  V30 7 2 7 8
M  V30 8 1 8 9
M  V30 9 1 9 10
M  V30 10 1 10 11
M  V30 11 1 11 12
M  V30 12 1 12 13
M  V30 13 2 13 14
M  V30 14 1 14 15
M  V30 15 1 14 16
M  V30 16 2 16 17
M  V30 17 1 17 18
M  V30 18 2 18 19
M  V30 19 1 19 20
M  V30 20 2 10 21
M  V30 21 2 6 22
M  V30 22 1 22 2
M  V30 23 1 21 7
M  V30 24 1 19 13
M  V30 25 1 1 23
M  V30 26 1 1 24
M  V30 27 1 3 25
M  V30 28 1 4 26
M  V30 29 1 5 27
M  V30 30 1 9 28
M  V30 31 1 11 29
M  V30 32 1 12 30
M  V30 33 1 12 31
M  V30 34 1 16 32
M  V30 35 1 17 33
M  V30 36 1 18 34
M  V30 37 1 22 35
M  V30 END BOND
M  V30 END CTAB
M  END
>  <Dataset>  (504) 
ChEMBL_Kinases

>  <Ligand_Instance>  (504) 
nan

>  <PDB_ID>  (504) 
nan

>  <Standardized_SMILES>  (504) 
Nc1cccc(-c2n[nH]c(NCc3c(F)cccc3Cl)n2)c1

>  <Name>  (504) 
nan

>  <Pocket>  (504) 
nan

>  <ATP_Site>  (504) 
nan

>  <Peripheral>  (504) 
nan

>  <Num_H_Atoms_ProtBoundConf>  (504) 
nan

>  <Num_Resolved_Atoms>  (504) 
nan

>  <Num_Not_Resolved_Atoms>  (504) 
nan

$$$$
CHEMBL4799698
     RDKit          3D

  0  0  0  0  0  0  0  0  0  0999 V3000
M  V30 BEGIN CTAB
M  V30 COUNTS 61 64 0 0 0
M  V30 BEGIN ATOM
M  V30 1 C 4.741738 -4.976706 6.705166 0
M  V30 2 C 4.329598 -4.019441 5.890738 0
M  V30 3 C 4.575209 -4.389136 4.503624 0
M  V30 4 O 5.114065 -5.510956 4.357395 0
M  V30 5 N 4.226288 -3.538374 3.438356 0
M  V30 6 C 4.481868 -3.931167 2.066294 0
M  V30 7 C 3.536032 -3.189097 1.183121 0
M  V30 8 C 3.224946 -1.913509 1.356720 0
M  V30 9 C 2.307070 -1.165861 0.511991 0
M  V30 10 C 1.995419 0.162060 0.703040 0
M  V30 11 C 1.117744 0.851941 -0.114677 0
M  V30 12 C 0.488503 0.224687 -1.199699 0
M  V30 13 C -0.432176 1.007135 -2.024896 0
M  V30 14 C -1.809298 0.478397 -2.068662 0
M  V30 15 O -2.536120 0.071328 -3.019280 0
M  V30 16 N -2.453482 0.405926 -0.822275 0
M  V30 17 C -3.744503 -0.027770 -0.413488 0
M  V30 18 C -4.915536 0.707548 -0.302476 0
M  V30 19 C -5.945484 -0.101470 0.130492 0
M  V30 20 C -7.371819 0.247350 0.391501 0
M  V30 21 C -8.034923 1.272560 -0.507772 0
M  V30 22 C -7.695265 1.602186 0.957321 0
M  V30 23 N -5.368595 -1.328028 0.274892 0
M  V30 24 N -4.079498 -1.278231 -0.045234 0
M  V30 25 C -0.001247 1.298100 -3.420504 0
M  V30 26 C 0.241823 0.075448 -4.272965 0
M  V30 27 C 1.094633 2.307049 -3.528177 0
M  V30 28 C 0.806072 -1.104185 -1.383445 0
M  V30 29 C 1.673716 -1.751110 -0.559531 0
M  V30 30 C 3.940790 -1.353602 2.530031 0
M  V30 31 C 3.606139 -2.259677 3.721769 0
M  V30 32 H 4.781426 -5.174407 7.767621 0
M  V30 33 H 5.096235 -5.790546 7.316690 0
M  V30 34 H 3.897044 -3.156638 6.358131 0
M  V30 35 H 5.498807 -3.560038 1.751666 0
M  V30 36 H 4.385933 -5.007337 1.915013 0
M  V30 37 H 3.091797 -3.744409 0.360944 0
M  V30 38 H 2.436654 0.710154 1.511171 0
M  V30 39 H 0.925081 1.910191 0.108780 0
M  V30 40 H -0.524057 2.018850 -1.525494 0
M  V30 41 H -2.018438 0.696390 0.084989 0
M  V30 42 H -5.014759 1.756965 -0.520395 0
M  V30 43 H -8.050326 -0.562335 0.744519 0
M  V30 44 H -9.107104 1.121926 -0.750748 0
M  V30 45 H -7.424210 1.737779 -1.293694 0
M  V30 46 H -8.558673 1.735631 1.619213 0
M  V30 47 H -6.825991 2.265490 1.080842 0
M  V30 48 H -5.930040 -2.143791 0.597213 0
M  V30 49 H -0.895178 1.802286 -3.898356 0
M  V30 50 H 0.255946 0.347517 -5.370630 0
M  V30 51 H -0.634666 -0.607862 -4.198053 0
M  V30 52 H 1.215598 -0.408343 -4.109340 0
M  V30 53 H 1.414473 2.364815 -4.576667 0
M  V30 54 H 1.917649 2.153942 -2.806966 0
M  V30 55 H 0.653997 3.308395 -3.248854 0
M  V30 56 H 0.306688 -1.561844 -2.222554 0
M  V30 57 H 1.815009 -2.782587 -0.837136 0
M  V30 58 H 3.578998 -0.353907 2.775479 0
M  V30 59 H 5.034986 -1.395161 2.349705 0
M  V30 60 H 4.021850 -1.790104 4.635758 0
M  V30 61 H 2.513748 -2.425032 3.777212 0
M  V30 END ATOM
M  V30 BEGIN BOND
M  V30 1 2 1 2
M  V30 2 1 2 3
M  V30 3 2 3 4
M  V30 4 1 3 5
M  V30 5 1 5 6
M  V30 6 1 6 7
M  V30 7 2 7 8
M  V30 8 1 8 9
M  V30 9 2 9 10
M  V30 10 1 10 11
M  V30 11 2 11 12
M  V30 12 1 12 13
M  V30 13 1 13 14
M  V30 14 2 14 15
M  V30 15 1 14 16
M  V30 16 1 16 17
M  V30 17 1 17 18
M  V30 18 2 18 19
M  V30 19 1 19 20
M  V30 20 1 20 21
M  V30 21 1 21 22
M  V30 22 1 19 23
M  V30 23 1 23 24
M  V30 24 1 13 25
M  V30 25 1 25 26
M  V30 26 1 25 27
M  V30 27 1 12 28
M  V30 28 2 28 29
M  V30 29 1 8 30
M  V30 30 1 30 31
M  V30 31 1 31 5
M  V30 32 1 29 9
M  V30 33 2 24 17
M  V30 34 1 22 20
M  V30 35 1 1 32
M  V30 36 1 1 33
M  V30 37 1 2 34
M  V30 38 1 6 35
M  V30 39 1 6 36
M  V30 40 1 7 37
M  V30 41 1 10 38
M  V30 42 1 11 39
M  V30 43 1 13 40
M  V30 44 1 16 41
M  V30 45 1 18 42
M  V30 46 1 20 43
M  V30 47 1 21 44
M  V30 48 1 21 45
M  V30 49 1 22 46
M  V30 50 1 22 47
M  V30 51 1 23 48
M  V30 52 1 25 49
M  V30 53 1 26 50
M  V30 54 1 26 51
M  V30 55 1 26 52
M  V30 56 1 27 53
M  V30 57 1 27 54
M  V30 58 1 27 55
M  V30 59 1 28 56
M  V30 60 1 29 57
M  V30 61 1 30 58
M  V30 62 1 30 59
M  V30 63 1 31 60
M  V30 64 1 31 61
M  V30 END BOND
M  V30 END CTAB
M  END
>  <Dataset>  (505) 
ChEMBL_Kinases

>  <Ligand_Instance>  (505) 
nan

>  <PDB_ID>  (505) 
nan

>  <Standardized_SMILES>  (505) 
C=CC(=O)N1CC=C(c2ccc(C(C(=O)Nc3cc(C4CC4)[nH]n3)C(C)C)cc2)CC1

>  <Name>  (505) 
nan

>  <Pocket>  (505) 
nan

>  <ATP_Site>  (505) 
nan

>  <Peripheral>  (505) 
nan

>  <Num_H_Atoms_ProtBoundConf>  (505) 
nan

>  <Num_Resolved_Atoms>  (505) 
nan

>  <Num_Not_Resolved_Atoms>  (505) 
nan

$$$$
CHEMBL4100141
     RDKit          3D

  0  0  0  0  0  0  0  0  0  0999 V3000
M  V30 BEGIN CTAB
M  V30 COUNTS 39 41 0 0 0
M  V30 BEGIN ATOM
M  V30 1 C -0.575948 -4.020105 -0.156937 0
M  V30 2 C -0.086125 -3.281847 1.082762 0 CFG=1
M  V30 3 C 1.139352 -4.004672 1.549512 0
M  V30 4 N 1.882920 -3.119756 2.449544 0
M  V30 5 C 2.478439 -2.056247 1.634498 0
M  V30 6 C 1.585724 -1.822147 0.421270 0
M  V30 7 N 0.178384 -1.910693 0.836907 0
M  V30 8 C -0.492915 -0.663372 0.879216 0
M  V30 9 N 0.274146 0.387970 0.542388 0
M  V30 10 C -0.189936 1.673176 0.523454 0
M  V30 11 C 0.729115 2.736928 0.142780 0
M  V30 12 C 0.370418 4.063664 0.089051 0
M  V30 13 C 1.281701 5.044409 -0.279565 0
M  V30 14 N 2.566556 4.733817 -0.602766 0
M  V30 15 C 2.883461 3.417223 -0.538542 0
M  V30 16 N 2.002771 2.452462 -0.180312 0
M  V30 17 C -1.501327 1.869552 0.868131 0
M  V30 18 C -2.311077 0.816959 1.217080 0
M  V30 19 O -3.512685 0.971888 1.535689 0
M  V30 20 N -1.767946 -0.413239 1.207398 0
M  V30 21 C -2.610686 -1.512081 1.569840 0
M  V30 22 H -1.127979 -4.911159 0.167840 0
M  V30 23 H -1.234057 -3.401132 -0.771798 0
M  V30 24 H 0.356525 -4.309577 -0.721782 0
M  V30 25 H -0.831333 -3.381978 1.891704 0
M  V30 26 H 1.829552 -4.273168 0.730877 0
M  V30 27 H 0.831085 -4.892319 2.147956 0
M  V30 28 H 1.250017 -2.740259 3.188249 0
M  V30 29 H 2.643006 -1.149418 2.220461 0
M  V30 30 H 3.448307 -2.435725 1.278932 0
M  V30 31 H 1.800254 -2.538733 -0.388577 0
M  V30 32 H 1.843998 -0.821509 0.028142 0
M  V30 33 H -0.639758 4.311199 0.342667 0
M  V30 34 H 0.952546 6.078382 -0.307618 0
M  V30 35 H 3.867500 3.003877 -0.765772 0
M  V30 36 H -1.917245 2.843366 0.871781 0
M  V30 37 H -2.648317 -2.341474 0.841861 0
M  V30 38 H -3.694518 -1.157205 1.592521 0
M  V30 39 H -2.466960 -1.887863 2.607271 0
M  V30 END ATOM
M  V30 BEGIN BOND
M  V30 1 1 1 2
M  V30 2 1 2 3
M  V30 3 1 3 4
M  V30 4 1 4 5
M  V30 5 1 5 6
M  V30 6 1 6 7
M  V30 7 1 7 8
M  V30 8 2 8 9
M  V30 9 1 9 10
M  V30 10 1 10 11
M  V30 11 2 11 12
M  V30 12 1 12 13
M  V30 13 2 13 14
M  V30 14 1 14 15
M  V30 15 2 15 16
M  V30 16 2 10 17
M  V30 17 1 17 18
M  V30 18 2 18 19
M  V30 19 1 18 20
M  V30 20 1 20 21
M  V30 21 1 7 2
M  V30 22 1 20 8
M  V30 23 1 16 11
M  V30 24 1 1 22
M  V30 25 1 1 23
M  V30 26 1 1 24
M  V30 27 1 2 25 CFG=1
M  V30 28 1 3 26
M  V30 29 1 3 27
M  V30 30 1 4 28
M  V30 31 1 5 29
M  V30 32 1 5 30
M  V30 33 1 6 31
M  V30 34 1 6 32
M  V30 35 1 12 33
M  V30 36 1 13 34
M  V30 37 1 15 35
M  V30 38 1 17 36
M  V30 39 1 21 37
M  V30 40 1 21 38
M  V30 41 1 21 39
M  V30 END BOND
M  V30 END CTAB
M  END
>  <Dataset>  (506) 
ChEMBL_Kinases

>  <Ligand_Instance>  (506) 
nan

>  <PDB_ID>  (506) 
nan

>  <Standardized_SMILES>  (506) 
C[C@H]1CNCCN1c1nc(-c2ccncn2)cc(=O)n1C

>  <Name>  (506) 
nan

>  <Pocket>  (506) 
nan

>  <ATP_Site>  (506) 
nan

>  <Peripheral>  (506) 
nan

>  <Num_H_Atoms_ProtBoundConf>  (506) 
nan

>  <Num_Resolved_Atoms>  (506) 
nan

>  <Num_Not_Resolved_Atoms>  (506) 
nan

$$$$
CHEMBL4100087
     RDKit          3D

  0  0  0  0  0  0  0  0  0  0999 V3000
M  V30 BEGIN CTAB
M  V30 COUNTS 59 60 0 0 0
M  V30 BEGIN ATOM
M  V30 1 C -1.508099 -4.467140 2.926678 0
M  V30 2 C -1.261539 -4.316055 1.435093 0
M  V30 3 C -0.581072 -3.216836 1.293229 0
M  V30 4 C -0.102818 -2.266781 2.271284 0
M  V30 5 C 0.590114 -1.170852 1.988265 0
M  V30 6 C 1.025205 -0.276156 3.061468 0 CFG=1
M  V30 7 C 2.558229 -0.345750 3.218673 0
M  V30 8 C 0.546329 1.118415 3.056376 0
M  V30 9 C 0.856897 2.019054 1.939020 0
M  V30 10 C 0.390890 1.707197 0.598793 0
M  V30 11 C -0.490783 2.541167 -0.015505 0
M  V30 12 C -0.931246 3.753081 0.752192 0
M  V30 13 C -1.036030 2.320614 -1.369527 0
M  V30 14 C -0.738384 3.382997 -2.365947 0
M  V30 15 O 0.648511 3.580285 -2.572468 0
M  V30 16 C 1.028151 4.799290 -2.008016 0
M  V30 17 O 2.087059 5.419030 -1.710979 0
M  V30 18 C -0.199634 5.538766 -1.682542 0
M  V30 19 O -0.439668 6.680798 -1.160654 0
M  V30 20 C -1.342181 4.691731 -2.084999 0
M  V30 21 O -2.599062 4.880053 -2.213592 0
M  V30 22 C -1.798309 -5.393969 0.664404 0
M  V30 23 C -1.598782 -5.546572 -0.778674 0
M  V30 24 C -0.269628 -5.840979 -1.341550 0
M  V30 25 C 0.853540 -4.964839 -1.153099 0
M  V30 26 C 1.093239 -3.916369 -2.050432 0
M  V30 27 C 2.219354 -3.236419 -1.671827 0
M  V30 28 O 2.683715 -3.808324 -0.593487 0
M  V30 29 C 1.907649 -4.826452 -0.259767 0
M  V30 30 H -2.053043 -3.551903 3.304096 0
M  V30 31 H -2.134423 -5.319347 3.172127 0
M  V30 32 H -0.531984 -4.495992 3.452067 0
M  V30 33 H -0.384791 -2.999073 0.254848 0
M  V30 34 H -0.336109 -2.478002 3.329730 0
M  V30 35 H 0.744364 -1.114478 0.942945 0
M  V30 36 H 0.657104 -0.725455 4.039787 0
M  V30 37 H 3.064368 0.362545 2.544313 0
M  V30 38 H 2.825165 -0.155613 4.283993 0
M  V30 39 H 2.847703 -1.375484 2.959348 0
M  V30 40 H 0.967868 1.593302 4.005280 0
M  V30 41 H -0.571189 1.135882 3.296552 0
M  V30 42 H 2.000347 2.055939 1.858672 0
M  V30 43 H 0.626077 3.065002 2.256817 0
M  V30 44 H 0.613883 0.904897 -0.083241 0
M  V30 45 H -1.301352 3.329075 1.734528 0
M  V30 46 H -1.830021 4.212917 0.309016 0
M  V30 47 H -0.131438 4.448299 0.991490 0
M  V30 48 H -0.642710 1.343923 -1.770429 0
M  V30 49 H -2.138465 2.178271 -1.322813 0
M  V30 50 H -1.149689 3.030317 -3.360791 0
M  V30 51 H -1.574267 -6.368548 1.210652 0
M  V30 52 H -2.939606 -5.346639 0.812183 0
M  V30 53 H -2.118528 -4.697910 -1.313707 0
M  V30 54 H -2.258246 -6.427975 -1.095938 0
M  V30 55 H -0.453365 -6.043869 -2.458020 0
M  V30 56 H 0.086192 -6.885989 -1.019557 0
M  V30 57 H 0.535680 -3.616123 -2.926972 0
M  V30 58 H 2.684001 -2.371847 -2.147522 0
M  V30 59 H 1.973695 -5.540044 0.577679 0
M  V30 END ATOM
M  V30 BEGIN BOND
M  V30 1 1 1 2
M  V30 2 2 2 3
M  V30 3 1 3 4
M  V30 4 2 4 5
M  V30 5 1 5 6
M  V30 6 1 6 7
M  V30 7 1 6 8
M  V30 8 1 8 9
M  V30 9 1 9 10
M  V30 10 2 10 11
M  V30 11 1 11 12
M  V30 12 1 11 13
M  V30 13 1 13 14
M  V30 14 1 14 15
M  V30 15 1 15 16
M  V30 16 2 16 17
M  V30 17 1 16 18
M  V30 18 2 18 19
M  V30 19 1 18 20
M  V30 20 2 20 21
M  V30 21 1 2 22
M  V30 22 1 22 23
M  V30 23 1 23 24
M  V30 24 1 24 25
M  V30 25 1 25 26
M  V30 26 2 26 27
M  V30 27 1 27 28
M  V30 28 1 28 29
M  V30 29 1 20 14
M  V30 30 2 29 25
M  V30 31 1 1 30
M  V30 32 1 1 31
M  V30 33 1 1 32
M  V30 34 1 3 33
M  V30 35 1 4 34
M  V30 36 1 5 35
M  V30 37 1 6 36 CFG=1
M  V30 38 1 7 37
M  V30 39 1 7 38
M  V30 40 1 7 39
M  V30 41 1 8 40
M  V30 42 1 8 41
M  V30 43 1 9 42
M  V30 44 1 9 43
M  V30 45 1 10 44
M  V30 46 1 12 45
M  V30 47 1 12 46
M  V30 48 1 12 47
M  V30 49 1 13 48
M  V30 50 1 13 49
M  V30 51 1 14 50
M  V30 52 1 22 51
M  V30 53 1 22 52
M  V30 54 1 23 53
M  V30 55 1 23 54
M  V30 56 1 24 55
M  V30 57 1 24 56
M  V30 58 1 26 57
M  V30 59 1 27 58
M  V30 60 1 29 59
M  V30 END BOND
M  V30 END CTAB
M  END
>  <Dataset>  (507) 
ChEMBL_Kinases

>  <Ligand_Instance>  (507) 
nan

>  <PDB_ID>  (507) 
nan

>  <Standardized_SMILES>  (507) 
C/C(=C\C=C\[C@@H](C)CC/C=C(\C)CC1OC(=O)C(=O)C1=O)CCCc1ccoc1

>  <Name>  (507) 
nan

>  <Pocket>  (507) 
nan

>  <ATP_Site>  (507) 
nan

>  <Peripheral>  (507) 
nan

>  <Num_H_Atoms_ProtBoundConf>  (507) 
nan

>  <Num_Resolved_Atoms>  (507) 
nan

>  <Num_Not_Resolved_Atoms>  (507) 
nan

$$$$
CHEMBL4100076
     RDKit          3D

  0  0  0  0  0  0  0  0  0  0999 V3000
M  V30 BEGIN CTAB
M  V30 COUNTS 59 63 0 0 0
M  V30 BEGIN ATOM
M  V30 1 O -2.952387 -1.714379 0.593309 0
M  V30 2 C -2.130470 -2.247574 -0.184756 0
M  V30 3 C -0.713492 -1.888285 -0.017398 0
M  V30 4 C -0.038652 -1.055517 0.840414 0
M  V30 5 C 1.275220 -1.194340 0.437495 0
M  V30 6 C 2.376796 -0.460473 1.099144 0
M  V30 7 C 3.681411 -0.642483 0.645260 0
M  V30 8 C 4.696611 0.059985 1.285650 0
M  V30 9 N 4.434885 0.900562 2.323128 0
M  V30 10 C 3.168005 1.049294 2.730909 0
M  V30 11 N 2.856798 1.919987 3.812350 0
M  V30 12 C 3.972467 2.629025 4.442833 0
M  V30 13 C 4.616179 3.467820 3.363780 0
M  V30 14 C 5.001885 4.827874 3.950775 0
M  V30 15 O 3.883363 5.575690 4.286210 0
M  V30 16 C 2.887368 4.810015 4.870433 0
M  V30 17 C 3.467477 3.554510 5.527842 0
M  V30 18 N 2.193042 0.385958 2.129254 0
M  V30 19 N 1.406841 -2.048727 -0.592624 0
M  V30 20 C 0.174393 -2.489416 -0.887110 0
M  V30 21 C -0.190949 -3.443331 -1.942978 0
M  V30 22 C -1.637784 -3.562661 -2.240858 0
M  V30 23 N -2.532919 -3.167257 -1.197073 0
M  V30 24 C -3.893999 -3.670684 -1.104502 0 CFG=2
M  V30 25 C -3.865304 -5.154617 -0.872435 0
M  V30 26 O -3.180667 -5.453579 0.324171 0
M  V30 27 C -4.656869 -3.392252 -2.349357 0
M  V30 28 C -4.452213 -2.083195 -2.784331 0
M  V30 29 C -5.049590 -1.583659 -3.916655 0
M  V30 30 C -5.888290 -2.405996 -4.659356 0
M  V30 31 Cl -6.731650 -1.934745 -6.128007 0
M  V30 32 C -6.090964 -3.700611 -4.229612 0
M  V30 33 F -6.895769 -4.566752 -4.899647 0
M  V30 34 C -5.490625 -4.198794 -3.093836 0
M  V30 35 H -0.451966 -0.446892 1.632639 0
M  V30 36 H 3.925028 -1.294528 -0.167019 0
M  V30 37 H 5.728395 -0.020931 1.000849 0
M  V30 38 H 1.891847 2.051029 4.143024 0
M  V30 39 H 4.694921 1.929619 4.902047 0
M  V30 40 H 5.553702 2.978428 3.038240 0
M  V30 41 H 3.926881 3.631370 2.505047 0
M  V30 42 H 5.652907 4.637588 4.841779 0
M  V30 43 H 5.581402 5.402005 3.196072 0
M  V30 44 H 2.299013 5.371699 5.620095 0
M  V30 45 H 2.167598 4.415851 4.096010 0
M  V30 46 H 2.623480 3.102238 6.104086 0
M  V30 47 H 4.300556 3.790920 6.191681 0
M  V30 48 H 2.325801 -2.291912 -1.046318 0
M  V30 49 H 0.252425 -4.431585 -1.621279 0
M  V30 50 H 0.397110 -3.207252 -2.877337 0
M  V30 51 H -1.832981 -4.648920 -2.445790 0
M  V30 52 H -1.847444 -3.065244 -3.210763 0
M  V30 53 H -4.384893 -3.219465 -0.216977 0
M  V30 54 H -4.904196 -5.558556 -0.789562 0
M  V30 55 H -3.369897 -5.736213 -1.670634 0
M  V30 56 H -3.230601 -6.419681 0.491784 0
M  V30 57 H -3.825459 -1.336442 -2.302941 0
M  V30 58 H -4.926003 -0.580642 -4.297416 0
M  V30 59 H -5.578902 -5.188817 -2.670193 0
M  V30 END ATOM
M  V30 BEGIN BOND
M  V30 1 2 1 2
M  V30 2 1 2 3
M  V30 3 1 3 4
M  V30 4 2 4 5
M  V30 5 1 5 6
M  V30 6 2 6 7
M  V30 7 1 7 8
M  V30 8 2 8 9
M  V30 9 1 9 10
M  V30 10 1 10 11
M  V30 11 1 11 12
M  V30 12 1 12 13
M  V30 13 1 13 14
M  V30 14 1 14 15
M  V30 15 1 15 16
M  V30 16 1 16 17
M  V30 17 2 10 18
M  V30 18 1 5 19
M  V30 19 1 19 20
M  V30 20 1 20 21
M  V30 21 1 21 22
M  V30 22 1 22 23
M  V30 23 1 23 24
M  V30 24 1 24 25
M  V30 25 1 25 26
M  V30 26 1 24 27
M  V30 27 2 27 28
M  V30 28 1 28 29
M  V30 29 2 29 30
M  V30 30 1 30 31
M  V30 31 1 30 32
M  V30 32 1 32 33
M  V30 33 2 32 34
M  V30 34 1 23 2
M  V30 35 1 34 27
M  V30 36 2 20 3
M  V30 37 1 18 6
M  V30 38 1 17 12
M  V30 39 1 4 35
M  V30 40 1 7 36
M  V30 41 1 8 37
M  V30 42 1 11 38
M  V30 43 1 12 39
M  V30 44 1 13 40
M  V30 45 1 13 41
M  V30 46 1 14 42
M  V30 47 1 14 43
M  V30 48 1 16 44
M  V30 49 1 16 45
M  V30 50 1 17 46
M  V30 51 1 17 47
M  V30 52 1 19 48
M  V30 53 1 21 49
M  V30 54 1 21 50
M  V30 55 1 22 51
M  V30 56 1 22 52
M  V30 57 1 24 53 CFG=1
M  V30 58 1 25 54
M  V30 59 1 25 55
M  V30 60 1 26 56
M  V30 61 1 28 57
M  V30 62 1 29 58
M  V30 63 1 34 59
M  V30 END BOND
M  V30 END CTAB
M  END
>  <Dataset>  (508) 
ChEMBL_Kinases

>  <Ligand_Instance>  (508) 
nan

>  <PDB_ID>  (508) 
nan

>  <Standardized_SMILES>  (508) 
O=C1c2cc(-c3ccnc(NC4CCOCC4)n3)[nH]c2CCN1[C@H](CO)c1ccc(Cl)c(F)c1

>  <Name>  (508) 
nan

>  <Pocket>  (508) 
nan

>  <ATP_Site>  (508) 
nan

>  <Peripheral>  (508) 
nan

>  <Num_H_Atoms_ProtBoundConf>  (508) 
nan

>  <Num_Resolved_Atoms>  (508) 
nan

>  <Num_Not_Resolved_Atoms>  (508) 
nan

$$$$
CHEMBL4100054
     RDKit          3D

  0  0  0  0  0  0  0  0  0  0999 V3000
M  V30 BEGIN CTAB
M  V30 COUNTS 27 27 0 0 0
M  V30 BEGIN ATOM
M  V30 1 C -0.007710 -2.425179 3.884151 0
M  V30 2 C -1.311101 -2.308577 3.079610 0
M  V30 3 C -1.590947 -0.828278 2.991864 0
M  V30 4 O -0.588737 -0.092239 2.362209 0
M  V30 5 C -0.120573 -0.166969 1.084609 0
M  V30 6 C -0.404839 -0.913061 -0.034927 0
M  V30 7 C 0.254151 -0.766313 -1.233374 0
M  V30 8 C 1.252802 0.180598 -1.314741 0
M  V30 9 C 1.944918 0.313749 -2.623434 0
M  V30 10 N 1.265429 1.285964 -3.456596 0
M  V30 11 C 1.602707 0.976850 -0.231156 0
M  V30 12 C 0.901867 0.789546 0.969436 0
M  V30 13 Cl 1.499648 1.895943 2.212532 0
M  V30 14 H -0.012447 -3.403529 4.366587 0
M  V30 15 H 0.007194 -1.623224 4.651716 0
M  V30 16 H 0.804134 -2.271986 3.136614 0
M  V30 17 H -2.085489 -2.828982 3.682774 0
M  V30 18 H -1.169541 -2.811866 2.114630 0
M  V30 19 H -2.577462 -0.750593 2.451661 0
M  V30 20 H -1.779532 -0.452686 4.040470 0
M  V30 21 H -1.191820 -1.599565 0.136967 0
M  V30 22 H -0.076603 -1.419736 -2.020108 0
M  V30 23 H 3.001245 0.677942 -2.474270 0
M  V30 24 H 1.987887 -0.685219 -3.089563 0
M  V30 25 H 0.248779 1.163545 -3.484744 0
M  V30 26 H 1.604921 2.252016 -3.302513 0
M  V30 27 H 2.386780 1.667486 -0.422170 0
M  V30 END ATOM
M  V30 BEGIN BOND
M  V30 1 1 1 2
M  V30 2 1 2 3
M  V30 3 1 3 4
M  V30 4 1 4 5
M  V30 5 2 5 6
M  V30 6 1 6 7
M  V30 7 2 7 8
M  V30 8 1 8 9
M  V30 9 1 9 10
M  V30 10 1 8 11
M  V30 11 2 11 12
M  V30 12 1 12 13
M  V30 13 1 12 5
M  V30 14 1 1 14
M  V30 15 1 1 15
M  V30 16 1 1 16
M  V30 17 1 2 17
M  V30 18 1 2 18
M  V30 19 1 3 19
M  V30 20 1 3 20
M  V30 21 1 6 21
M  V30 22 1 7 22
M  V30 23 1 9 23
M  V30 24 1 9 24
M  V30 25 1 10 25
M  V30 26 1 10 26
M  V30 27 1 11 27
M  V30 END BOND
M  V30 END CTAB
M  END
>  <Dataset>  (509) 
ChEMBL_Kinases

>  <Ligand_Instance>  (509) 
nan

>  <PDB_ID>  (509) 
nan

>  <Standardized_SMILES>  (509) 
CCCOc1ccc(CN)cc1Cl

>  <Name>  (509) 
nan

>  <Pocket>  (509) 
nan

>  <ATP_Site>  (509) 
nan

>  <Peripheral>  (509) 
nan

>  <Num_H_Atoms_ProtBoundConf>  (509) 
nan

>  <Num_Resolved_Atoms>  (509) 
nan

>  <Num_Not_Resolved_Atoms>  (509) 
nan

$$$$
CHEMBL4100024
     RDKit          3D

  0  0  0  0  0  0  0  0  0  0999 V3000
M  V30 BEGIN CTAB
M  V30 COUNTS 29 32 0 0 0
M  V30 BEGIN ATOM
M  V30 1 O 1.773007 -5.777185 2.155729 0
M  V30 2 C 1.113718 -4.818490 2.637983 0
M  V30 3 N 0.471047 -4.822100 3.892104 0
M  V30 4 C -0.140667 -3.534636 4.006985 0
M  V30 5 S -1.005630 -3.090321 5.319530 0
M  V30 6 N 0.133445 -2.766683 2.831566 0
M  V30 7 C 0.881818 -3.516801 2.001581 0
M  V30 8 C 1.327552 -3.076724 0.766075 0
M  V30 9 C 0.953996 -1.795144 0.422233 0
M  V30 10 C 1.333646 -1.237356 -0.782988 0
M  V30 11 C 0.977571 0.045622 -1.162019 0
M  V30 12 C 0.208232 0.797248 -0.292478 0
M  V30 13 C -0.233778 2.161668 -0.572266 0
M  V30 14 C 0.102570 2.808149 -1.767272 0
M  V30 15 C -0.432024 4.076889 -1.786878 0
M  V30 16 C -1.091978 4.142674 -0.557162 0
M  V30 17 O -0.942386 3.013773 0.095046 0
M  V30 18 C -0.166264 0.230174 0.910477 0
M  V30 19 C 0.188081 -1.049985 1.290514 0
M  V30 20 C -0.244476 -1.512389 2.519026 0
M  V30 21 O -0.944140 -0.782064 3.270730 0
M  V30 22 H 0.456180 -5.613472 4.582420 0
M  V30 23 H 1.929033 -3.681492 0.100584 0
M  V30 24 H 1.932715 -1.793211 -1.484656 0
M  V30 25 H 1.272013 0.493348 -2.109400 0
M  V30 26 H 0.701469 2.393969 -2.586994 0
M  V30 27 H -0.393685 4.862573 -2.518092 0
M  V30 28 H -1.664788 4.969481 -0.133065 0
M  V30 29 H -0.773381 0.820086 1.599385 0
M  V30 END ATOM
M  V30 BEGIN BOND
M  V30 1 2 1 2
M  V30 2 1 2 3
M  V30 3 1 3 4
M  V30 4 2 4 5
M  V30 5 1 4 6
M  V30 6 1 6 7
M  V30 7 2 7 8
M  V30 8 1 8 9
M  V30 9 2 9 10
M  V30 10 1 10 11
M  V30 11 2 11 12
M  V30 12 1 12 13
M  V30 13 2 13 14
M  V30 14 1 14 15
M  V30 15 2 15 16
M  V30 16 1 16 17
M  V30 17 1 12 18
M  V30 18 2 18 19
M  V30 19 1 19 20
M  V30 20 2 20 21
M  V30 21 1 7 2
M  V30 22 1 19 9
M  V30 23 1 20 6
M  V30 24 1 17 13
M  V30 25 1 3 22
M  V30 26 1 8 23
M  V30 27 1 10 24
M  V30 28 1 11 25
M  V30 29 1 14 26
M  V30 30 1 15 27
M  V30 31 1 16 28
M  V30 32 1 18 29
M  V30 END BOND
M  V30 END CTAB
M  END
>  <Dataset>  (510) 
ChEMBL_Kinases

>  <Ligand_Instance>  (510) 
nan

>  <PDB_ID>  (510) 
nan

>  <Standardized_SMILES>  (510) 
O=C1NC(=S)n2c1cc1ccc(-c3ccco3)cc1c2=O

>  <Name>  (510) 
nan

>  <Pocket>  (510) 
nan

>  <ATP_Site>  (510) 
nan

>  <Peripheral>  (510) 
nan

>  <Num_H_Atoms_ProtBoundConf>  (510) 
nan

>  <Num_Resolved_Atoms>  (510) 
nan

>  <Num_Not_Resolved_Atoms>  (510) 
nan

$$$$
CHEMBL4099999
     RDKit          3D

  0  0  0  0  0  0  0  0  0  0999 V3000
M  V30 BEGIN CTAB
M  V30 COUNTS 46 48 0 0 0
M  V30 BEGIN ATOM
M  V30 1 C 3.031983 -2.440961 3.602829 0
M  V30 2 C 3.278713 -3.109840 2.276340 0
M  V30 3 C 2.113063 -4.006688 1.958918 0
M  V30 4 C 3.633328 -2.180541 1.168219 0 CFG=1
M  V30 5 C 3.847493 -3.016024 -0.090564 0
M  V30 6 O 4.880555 -3.904976 0.224382 0
M  V30 7 N 2.581392 -1.212044 0.978481 0
M  V30 8 C 2.746862 0.190472 1.055206 0
M  V30 9 O 3.883384 0.652951 1.305588 0
M  V30 10 C 1.645545 1.125272 0.854018 0
M  V30 11 C 1.920081 2.476159 0.923972 0
M  V30 12 C 0.883061 3.363417 0.735085 0
M  V30 13 C -0.435209 2.991602 0.475577 0
M  V30 14 C -0.633886 1.607709 0.419629 0
M  V30 15 C 0.366743 0.677976 0.601341 0
M  V30 16 C -2.055181 1.429792 0.142477 0
M  V30 17 C -2.743342 0.314130 -0.028475 0
M  V30 18 C -4.155907 0.124232 -0.300683 0
M  V30 19 C -4.518226 -0.752680 -1.331379 0
M  V30 20 C -5.889010 -0.831578 -1.433035 0
M  V30 21 C -6.388919 -0.000403 -0.461879 0
M  V30 22 N -5.341412 0.535270 0.173942 0
M  V30 23 C -2.685638 2.735654 0.035597 0
M  V30 24 O -3.883766 3.024515 -0.194963 0
M  V30 25 N -1.651690 3.694080 0.248486 0
M  V30 26 H 2.368978 -3.106847 4.191063 0
M  V30 27 H 2.516634 -1.477912 3.522081 0
M  V30 28 H 3.950512 -2.326851 4.218541 0
M  V30 29 H 4.153048 -3.804969 2.435262 0
M  V30 30 H 1.177558 -3.460374 1.725068 0
M  V30 31 H 2.319459 -4.761685 1.197249 0
M  V30 32 H 1.896003 -4.581949 2.905790 0
M  V30 33 H 4.584163 -1.678905 1.399005 0
M  V30 34 H 4.181639 -2.336710 -0.910969 0
M  V30 35 H 2.973279 -3.614181 -0.359078 0
M  V30 36 H 5.780922 -3.521757 0.066318 0
M  V30 37 H 1.667266 -1.646977 0.775544 0
M  V30 38 H 2.904551 2.880032 1.119059 0
M  V30 39 H 1.065411 4.440487 0.784145 0
M  V30 40 H 0.114098 -0.367968 0.539283 0
M  V30 41 H -2.121768 -0.575036 0.057736 0
M  V30 42 H -3.947626 -1.365308 -2.047247 0
M  V30 43 H -6.548381 -1.383346 -2.084186 0
M  V30 44 H -7.415604 0.230500 -0.197960 0
M  V30 45 H -5.391982 1.197763 0.973349 0
M  V30 46 H -1.769879 4.728024 0.238741 0
M  V30 END ATOM
M  V30 BEGIN BOND
M  V30 1 1 1 2
M  V30 2 1 2 3
M  V30 3 1 2 4
M  V30 4 1 4 5
M  V30 5 1 5 6
M  V30 6 1 4 7
M  V30 7 1 7 8
M  V30 8 2 8 9
M  V30 9 1 8 10
M  V30 10 2 10 11
M  V30 11 1 11 12
M  V30 12 2 12 13
M  V30 13 1 13 14
M  V30 14 2 14 15
M  V30 15 1 14 16
M  V30 16 2 16 17
M  V30 17 1 17 18
M  V30 18 2 18 19
M  V30 19 1 19 20
M  V30 20 2 20 21
M  V30 21 1 21 22
M  V30 22 1 16 23
M  V30 23 2 23 24
M  V30 24 1 23 25
M  V30 25 1 15 10
M  V30 26 1 22 18
M  V30 27 1 25 13
M  V30 28 1 1 26
M  V30 29 1 1 27
M  V30 30 1 1 28
M  V30 31 1 2 29
M  V30 32 1 3 30
M  V30 33 1 3 31
M  V30 34 1 3 32
M  V30 35 1 4 33 CFG=1
M  V30 36 1 5 34
M  V30 37 1 5 35
M  V30 38 1 6 36
M  V30 39 1 7 37
M  V30 40 1 11 38
M  V30 41 1 12 39
M  V30 42 1 15 40
M  V30 43 1 17 41
M  V30 44 1 19 42
M  V30 45 1 20 43
M  V30 46 1 21 44
M  V30 47 1 22 45
M  V30 48 1 25 46
M  V30 END BOND
M  V30 END CTAB
M  END
>  <Dataset>  (511) 
ChEMBL_Kinases

>  <Ligand_Instance>  (511) 
nan

>  <PDB_ID>  (511) 
nan

>  <Standardized_SMILES>  (511) 
CC(C)[C@@H](CO)NC(=O)c1ccc2c(c1)/C(=C/c1ccc[nH]1)C(=O)N2

>  <Name>  (511) 
nan

>  <Pocket>  (511) 
nan

>  <ATP_Site>  (511) 
nan

>  <Peripheral>  (511) 
nan

>  <Num_H_Atoms_ProtBoundConf>  (511) 
nan

>  <Num_Resolved_Atoms>  (511) 
nan

>  <Num_Not_Resolved_Atoms>  (511) 
nan

$$$$
CHEMBL4099729
     RDKit          3D

  0  0  0  0  0  0  0  0  0  0999 V3000
M  V30 BEGIN CTAB
M  V30 COUNTS 126 128 0 0 0
M  V30 BEGIN ATOM
M  V30 1 N 7.517284 -1.159186 -5.190111 0
M  V30 2 C 7.938499 -1.134225 -3.821207 0
M  V30 3 C 6.902737 -1.764234 -2.882573 0
M  V30 4 C 7.366399 -1.741726 -1.441416 0
M  V30 5 C 6.397083 -2.372397 -0.484619 0
M  V30 6 C 5.066175 -1.745050 -0.423003 0 CFG=2
M  V30 7 N 4.998142 -0.388694 -0.030623 0
M  V30 8 C 4.008417 0.625875 -0.078108 0
M  V30 9 O 2.918864 0.205964 -0.556564 0
M  V30 10 C 4.425231 1.934283 0.422137 0
M  V30 11 C 3.401892 2.898651 0.846817 0
M  V30 12 C 2.371527 3.186498 -0.204467 0
M  V30 13 C 1.437993 4.284017 0.267246 0
M  V30 14 C 0.767201 4.101302 1.543971 0
M  V30 15 C -0.154515 3.041353 1.876040 0
M  V30 16 C -1.456463 2.946449 1.090063 0
M  V30 17 C -2.272950 1.834492 1.694002 0
M  V30 18 O -3.522048 1.604993 1.143098 0
M  V30 19 C -4.386692 0.626949 1.674026 0
M  V30 20 N -3.891508 -0.052938 2.749814 0
M  V30 21 C -4.559389 -1.013736 3.391826 0
M  V30 22 C -3.952803 -1.634884 4.479940 0
M  V30 23 C -4.709679 -2.613402 5.090101 0
M  V30 24 C -4.092786 -3.289400 6.247157 0
M  V30 25 O -2.944130 -2.976447 6.622125 0
M  V30 26 O -4.739092 -4.271843 6.949116 0
M  V30 27 C -5.973075 -2.969465 4.675478 0
M  V30 28 C -6.546686 -2.334149 3.591939 0
M  V30 29 C -5.826801 -1.358633 2.961929 0
M  V30 30 C -6.304369 -0.675095 1.891392 0
M  V30 31 C -7.552528 -0.965013 1.403808 0
M  V30 32 N -8.078232 -0.337799 0.359808 0
M  V30 33 C -7.380729 0.643624 -0.285539 0
M  V30 34 C -6.122300 1.016882 0.115257 0
M  V30 35 C -5.639591 0.325839 1.203085 0
M  V30 36 C 4.096822 -2.585079 0.395870 0
M  V30 37 O 4.280134 -3.773553 -0.069235 0
M  V30 38 N 3.147133 -2.372732 1.430563 0
M  V30 39 C 2.492342 -3.580007 1.808647 0 CFG=1
M  V30 40 C 2.301393 -3.784867 3.265855 0
M  V30 41 C 1.496273 -2.731539 3.941009 0
M  V30 42 O 0.931643 -1.677571 3.553059 0
M  V30 43 O 1.353216 -2.995838 5.295878 0
M  V30 44 C 1.127081 -3.541764 1.146202 0
M  V30 45 O 0.522497 -4.660858 1.253619 0
M  V30 46 N 0.532871 -2.420910 0.466889 0
M  V30 47 C -0.796662 -2.736308 -0.091678 0 CFG=1
M  V30 48 C -1.851184 -2.501735 0.993633 0
M  V30 49 C -3.176776 -2.835393 0.426294 0
M  V30 50 O -4.106322 -2.149096 -0.101761 0
M  V30 51 O -3.576471 -4.166020 0.427791 0
M  V30 52 C -1.043322 -1.973171 -1.305785 0
M  V30 53 O 0.050538 -1.412319 -0.964688 0
M  V30 54 N -1.858253 -1.714085 -2.419994 0
M  V30 55 C -1.514462 -0.685327 -3.358457 0 CFG=1
M  V30 56 C -1.432086 -1.292726 -4.738543 0
M  V30 57 C -0.410421 -2.367998 -4.819239 0
M  V30 58 O -0.404009 -2.822241 -5.985130 0
M  V30 59 O 0.522450 -3.035432 -4.074275 0
M  V30 60 C -2.587933 0.355327 -3.433944 0
M  V30 61 O -3.502983 -0.039359 -2.636346 0
M  V30 62 N -2.701107 1.555386 -4.174467 0
M  V30 63 C -3.899931 2.342128 -4.008693 0 CFG=1
M  V30 64 C -3.535860 3.686378 -3.378751 0
M  V30 65 C -2.601470 4.422303 -4.237607 0
M  V30 66 O -2.364498 5.515537 -3.657966 0
M  V30 67 O -1.841217 4.504039 -5.391003 0
M  V30 68 C -4.529687 2.632878 -5.313155 0
M  V30 69 O -4.152147 2.284912 -6.480348 0
M  V30 70 O -5.710207 3.397279 -5.317550 0
M  V30 71 H 7.866385 -1.941822 -5.760508 0
M  V30 72 H 6.562185 -0.838115 -5.372835 0
M  V30 73 H 8.171288 -0.095837 -3.522808 0
M  V30 74 H 8.911614 -1.686697 -3.761574 0
M  V30 75 H 6.727754 -2.794558 -3.248993 0
M  V30 76 H 5.974002 -1.194322 -3.036525 0
M  V30 77 H 8.308244 -2.349525 -1.427765 0
M  V30 78 H 7.636396 -0.716455 -1.163955 0
M  V30 79 H 6.360310 -3.471734 -0.662951 0
M  V30 80 H 6.880008 -2.269099 0.533621 0
M  V30 81 H 4.568540 -1.806008 -1.446950 0
M  V30 82 H 5.949536 -0.138695 0.389527 0
M  V30 83 H 5.214337 1.789215 1.224511 0
M  V30 84 H 4.994093 2.436050 -0.440233 0
M  V30 85 H 3.943983 3.884224 1.021586 0
M  V30 86 H 2.903952 2.641675 1.817247 0
M  V30 87 H 1.862755 2.272471 -0.484046 0
M  V30 88 H 2.899676 3.587456 -1.093785 0
M  V30 89 H 2.126253 5.178483 0.384415 0
M  V30 90 H 0.720084 4.585360 -0.522113 0
M  V30 91 H 1.585984 4.164783 2.350027 0
M  V30 92 H 0.221881 5.097211 1.748262 0
M  V30 93 H -0.464545 3.181852 2.959609 0
M  V30 94 H 0.266138 2.006273 1.882095 0
M  V30 95 H -1.954379 3.936336 1.165917 0
M  V30 96 H -1.255560 2.779644 0.009229 0
M  V30 97 H -2.452452 2.153235 2.762559 0
M  V30 98 H -1.641651 0.938059 1.741850 0
M  V30 99 H -2.955089 -1.318011 4.769650 0
M  V30 100 H -4.224849 -4.914236 7.540421 0
M  V30 101 H -6.455778 -3.766122 5.258990 0
M  V30 102 H -7.529090 -2.641441 3.305120 0
M  V30 103 H -8.230332 -1.698657 1.784275 0
M  V30 104 H -7.800497 1.165426 -1.147686 0
M  V30 105 H -5.504234 1.780578 -0.338387 0
M  V30 106 H 3.178566 -1.362395 1.652825 0
M  V30 107 H 2.948968 -4.498376 1.398167 0
M  V30 108 H 3.235474 -3.956365 3.837902 0
M  V30 109 H 1.737644 -4.752193 3.377252 0
M  V30 110 H 0.742869 -2.456410 5.897776 0
M  V30 111 H 1.212222 -1.635848 0.538900 0
M  V30 112 H -0.800909 -3.816805 -0.286408 0
M  V30 113 H -1.656558 -3.225274 1.809402 0
M  V30 114 H -1.804598 -1.455537 1.391808 0
M  V30 115 H -4.478574 -4.527809 0.247649 0
M  V30 116 H -2.599650 -2.421488 -2.287510 0
M  V30 117 H -0.552399 -0.207874 -3.119400 0
M  V30 118 H -1.090033 -0.480400 -5.420853 0
M  V30 119 H -2.404557 -1.661672 -5.071112 0
M  V30 120 H 0.299733 -3.998898 -3.777211 0
M  V30 121 H -1.861810 1.701250 -4.760578 0
M  V30 122 H -4.649110 1.814195 -3.378241 0
M  V30 123 H -3.099584 3.526729 -2.367304 0
M  V30 124 H -4.480294 4.260588 -3.277031 0
M  V30 125 H -0.817752 4.361037 -5.391315 0
M  V30 126 H -6.068306 3.820423 -6.173828 0
M  V30 END ATOM
M  V30 BEGIN BOND
M  V30 1 1 1 2
M  V30 2 1 2 3
M  V30 3 1 3 4
M  V30 4 1 4 5
M  V30 5 1 5 6
M  V30 6 1 6 7
M  V30 7 1 7 8
M  V30 8 2 8 9
M  V30 9 1 8 10
M  V30 10 1 10 11
M  V30 11 1 11 12
M  V30 12 1 12 13
M  V30 13 1 13 14
M  V30 14 1 14 15
M  V30 15 1 15 16
M  V30 16 1 16 17
M  V30 17 1 17 18
M  V30 18 1 18 19
M  V30 19 2 19 20
M  V30 20 1 20 21
M  V30 21 2 21 22
M  V30 22 1 22 23
M  V30 23 1 23 24
M  V30 24 2 24 25
M  V30 25 1 24 26
M  V30 26 2 23 27
M  V30 27 1 27 28
M  V30 28 2 28 29
M  V30 29 1 29 30
M  V30 30 2 30 31
M  V30 31 1 31 32
M  V30 32 2 32 33
M  V30 33 1 33 34
M  V30 34 2 34 35
M  V30 35 1 6 36
M  V30 36 2 36 37
M  V30 37 1 36 38
M  V30 38 1 38 39
M  V30 39 1 39 40
M  V30 40 1 40 41
M  V30 41 2 41 42
M  V30 42 1 41 43
M  V30 43 1 39 44
M  V30 44 2 44 45
M  V30 45 1 44 46
M  V30 46 1 46 47
M  V30 47 1 47 48
M  V30 48 1 48 49
M  V30 49 2 49 50
M  V30 50 1 49 51
M  V30 51 1 47 52
M  V30 52 2 52 53
M  V30 53 1 52 54
M  V30 54 1 54 55
M  V30 55 1 55 56
M  V30 56 1 56 57
M  V30 57 2 57 58
M  V30 58 1 57 59
M  V30 59 1 55 60
M  V30 60 2 60 61
M  V30 61 1 60 62
M  V30 62 1 62 63
M  V30 63 1 63 64
M  V30 64 1 64 65
M  V30 65 2 65 66
M  V30 66 1 65 67
M  V30 67 1 63 68
M  V30 68 2 68 69
M  V30 69 1 68 70
M  V30 70 1 35 19
M  V30 71 1 29 21
M  V30 72 1 35 30
M  V30 73 1 1 71
M  V30 74 1 1 72
M  V30 75 1 2 73
M  V30 76 1 2 74
M  V30 77 1 3 75
M  V30 78 1 3 76
M  V30 79 1 4 77
M  V30 80 1 4 78
M  V30 81 1 5 79
M  V30 82 1 5 80
M  V30 83 1 6 81 CFG=3
M  V30 84 1 7 82
M  V30 85 1 10 83
M  V30 86 1 10 84
M  V30 87 1 11 85
M  V30 88 1 11 86
M  V30 89 1 12 87
M  V30 90 1 12 88
M  V30 91 1 13 89
M  V30 92 1 13 90
M  V30 93 1 14 91
M  V30 94 1 14 92
M  V30 95 1 15 93
M  V30 96 1 15 94
M  V30 97 1 16 95
M  V30 98 1 16 96
M  V30 99 1 17 97
M  V30 100 1 17 98
M  V30 101 1 22 99
M  V30 102 1 26 100
M  V30 103 1 27 101
M  V30 104 1 28 102
M  V30 105 1 31 103
M  V30 106 1 33 104
M  V30 107 1 34 105
M  V30 108 1 38 106
M  V30 109 1 39 107 CFG=3
M  V30 110 1 40 108
M  V30 111 1 40 109
M  V30 112 1 43 110
M  V30 113 1 46 111
M  V30 114 1 47 112 CFG=3
M  V30 115 1 48 113
M  V30 116 1 48 114
M  V30 117 1 51 115
M  V30 118 1 54 116
M  V30 119 1 55 117 CFG=1
M  V30 120 1 56 118
M  V30 121 1 56 119
M  V30 122 1 59 120
M  V30 123 1 62 121
M  V30 124 1 63 122 CFG=1
M  V30 125 1 64 123
M  V30 126 1 64 124
M  V30 127 1 67 125
M  V30 128 1 70 126
M  V30 END BOND
M  V30 END CTAB
M  END
>  <Dataset>  (512) 
ChEMBL_Kinases

>  <Ligand_Instance>  (512) 
nan

>  <PDB_ID>  (512) 
nan

>  <Standardized_SMILES>  (512) 
NCCCC[C@H](NC(=O)CCCCCCCCOc1nc2cc(C(=O)O)ccc2c2cnccc12)C(=O)N[C@@H](CC(=O)O)C(=O)N[C@@H](CC(=O)O)C(=O)N[C@@H](CC(=O)O)C(=O)N[C@@H](CC(=O)O)C(=O)O

>  <Name>  (512) 
nan

>  <Pocket>  (512) 
nan

>  <ATP_Site>  (512) 
nan

>  <Peripheral>  (512) 
nan

>  <Num_H_Atoms_ProtBoundConf>  (512) 
nan

>  <Num_Resolved_Atoms>  (512) 
nan

>  <Num_Not_Resolved_Atoms>  (512) 
nan

$$$$
CHEMBL4099618
     RDKit          3D

  0  0  0  0  0  0  0  0  0  0999 V3000
M  V30 BEGIN CTAB
M  V30 COUNTS 45 48 0 0 0
M  V30 BEGIN ATOM
M  V30 1 C 1.138198 -6.217167 1.826414 0
M  V30 2 C 0.021930 -6.735390 0.979671 0
M  V30 3 O -0.017603 -6.106024 -0.288270 0
M  V30 4 C -0.190089 -4.739389 -0.443545 0
M  V30 5 C -0.350390 -3.753697 0.498509 0
M  V30 6 C -0.508463 -2.437853 0.118146 0
M  V30 7 C -0.502588 -2.129570 -1.228407 0
M  V30 8 N -0.664893 -0.774217 -1.633796 0
M  V30 9 C -0.834833 0.289913 -0.703861 0
M  V30 10 N 0.203569 0.983397 -0.186939 0
M  V30 11 C 0.033993 1.988833 0.692194 0
M  V30 12 N 1.170590 2.679669 1.199066 0
M  V30 13 C 2.532557 2.335703 0.798265 0
M  V30 14 C 3.438307 2.197083 1.999977 0
M  V30 15 O 3.054729 3.000155 3.066606 0
M  V30 16 C 2.459924 4.156939 2.569351 0
M  V30 17 C 1.045106 3.757109 2.135628 0
M  V30 18 C -1.257563 2.306458 1.065768 0
M  V30 19 N -1.736221 3.249563 1.915095 0
M  V30 20 C -3.094527 3.163708 1.946327 0
M  V30 21 N -3.437793 2.165587 1.113233 0
M  V30 22 C -2.346790 1.612084 0.552035 0
M  V30 23 N -2.100857 0.618003 -0.323237 0
M  V30 24 C -0.345671 -3.077460 -2.216227 0
M  V30 25 C -0.187519 -4.403358 -1.799505 0
M  V30 26 H 1.911781 -7.019240 1.987633 0
M  V30 27 H 1.701356 -5.385003 1.352552 0
M  V30 28 H 0.741475 -5.852210 2.787547 0
M  V30 29 H -0.952306 -6.591183 1.513593 0
M  V30 30 H 0.130383 -7.822093 0.866981 0
M  V30 31 H -0.336311 -4.131764 1.510692 0
M  V30 32 H -0.630423 -1.706936 0.907995 0
M  V30 33 H -0.670602 -0.473896 -2.611621 0
M  V30 34 H 2.928139 3.130425 0.135115 0
M  V30 35 H 2.542427 1.346806 0.280377 0
M  V30 36 H 3.474746 1.147780 2.327930 0
M  V30 37 H 4.459297 2.491257 1.688879 0
M  V30 38 H 2.387491 4.930247 3.363782 0
M  V30 39 H 3.084578 4.470911 1.706842 0
M  V30 40 H 0.499360 3.521334 3.055775 0
M  V30 41 H 0.624888 4.655237 1.619568 0
M  V30 42 H -3.741904 3.808908 2.552149 0
M  V30 43 H -4.432280 1.859963 0.927007 0
M  V30 44 H -0.347805 -2.787610 -3.258776 0
M  V30 45 H -0.068558 -5.096015 -2.646372 0
M  V30 END ATOM
M  V30 BEGIN BOND
M  V30 1 1 1 2
M  V30 2 1 2 3
M  V30 3 1 3 4
M  V30 4 2 4 5
M  V30 5 1 5 6
M  V30 6 2 6 7
M  V30 7 1 7 8
M  V30 8 1 8 9
M  V30 9 2 9 10
M  V30 10 1 10 11
M  V30 11 1 11 12
M  V30 12 1 12 13
M  V30 13 1 13 14
M  V30 14 1 14 15
M  V30 15 1 15 16
M  V30 16 1 16 17
M  V30 17 2 11 18
M  V30 18 1 18 19
M  V30 19 2 19 20
M  V30 20 1 20 21
M  V30 21 1 21 22
M  V30 22 2 22 23
M  V30 23 1 7 24
M  V30 24 2 24 25
M  V30 25 1 25 4
M  V30 26 1 23 9
M  V30 27 1 17 12
M  V30 28 1 22 18
M  V30 29 1 1 26
M  V30 30 1 1 27
M  V30 31 1 1 28
M  V30 32 1 2 29
M  V30 33 1 2 30
M  V30 34 1 5 31
M  V30 35 1 6 32
M  V30 36 1 8 33
M  V30 37 1 13 34
M  V30 38 1 13 35
M  V30 39 1 14 36
M  V30 40 1 14 37
M  V30 41 1 16 38
M  V30 42 1 16 39
M  V30 43 1 17 40
M  V30 44 1 17 41
M  V30 45 1 20 42
M  V30 46 1 21 43
M  V30 47 1 24 44
M  V30 48 1 25 45
M  V30 END BOND
M  V30 END CTAB
M  END
>  <Dataset>  (513) 
ChEMBL_Kinases

>  <Ligand_Instance>  (513) 
nan

>  <PDB_ID>  (513) 
nan

>  <Standardized_SMILES>  (513) 
CCOc1ccc(Nc2nc(N3CCOCC3)c3nc[nH]c3n2)cc1

>  <Name>  (513) 
nan

>  <Pocket>  (513) 
nan

>  <ATP_Site>  (513) 
nan

>  <Peripheral>  (513) 
nan

>  <Num_H_Atoms_ProtBoundConf>  (513) 
nan

>  <Num_Resolved_Atoms>  (513) 
nan

>  <Num_Not_Resolved_Atoms>  (513) 
nan

$$$$
CHEMBL4099596
     RDKit          3D

  0  0  0  0  0  0  0  0  0  0999 V3000
M  V30 BEGIN CTAB
M  V30 COUNTS 34 36 0 0 0
M  V30 BEGIN ATOM
M  V30 1 N 1.460154 -0.862556 4.757539 0
M  V30 2 C 1.845182 -1.353321 3.778895 0
M  V30 3 C 2.299252 -1.949082 2.561161 0
M  V30 4 C 2.876370 -3.212370 2.467305 0
M  V30 5 N 3.185629 -3.451292 1.194053 0
M  V30 6 C 2.839058 -2.400891 0.422709 0
M  V30 7 N 2.930921 -2.123465 -0.906636 0
M  V30 8 C 2.482297 -0.944772 -1.357238 0
M  V30 9 N 2.555235 -0.598309 -2.728924 0
M  V30 10 N 1.931707 0.004408 -0.551136 0
M  V30 11 C 1.828177 -0.250921 0.782580 0
M  V30 12 N 1.242061 0.770024 1.616948 0
M  V30 13 C -0.154961 0.618045 1.358812 0
M  V30 14 C -1.125664 -0.208874 1.875422 0
M  V30 15 C -2.419437 -0.133593 1.423687 0
M  V30 16 C -2.826984 0.756181 0.442392 0
M  V30 17 S -4.510774 0.713338 -0.003828 0
M  V30 18 N -4.811196 -0.441969 -1.270970 0
M  V30 19 O -5.296516 0.232747 1.206602 0
M  V30 20 O -5.013097 2.053663 -0.434206 0
M  V30 21 C -1.854098 1.607287 -0.097588 0
M  V30 22 C -0.555026 1.514994 0.370782 0
M  V30 23 C 2.282639 -1.454774 1.271630 0
M  V30 24 H 3.027280 -3.858601 3.324435 0
M  V30 25 H 3.628434 -4.286626 0.756080 0
M  V30 26 H 2.293381 0.303531 -3.136058 0
M  V30 27 H 2.874489 -1.147045 -3.562600 0
M  V30 28 H 1.643492 1.463063 2.265290 0
M  V30 29 H -0.727743 -0.868184 2.630235 0
M  V30 30 H -3.041223 -0.861441 1.950849 0
M  V30 31 H -4.610644 -1.418165 -0.907714 0
M  V30 32 H -4.119694 -0.262835 -2.041436 0
M  V30 33 H -2.231130 2.259840 -0.844347 0
M  V30 34 H 0.070822 2.248480 -0.156482 0
M  V30 END ATOM
M  V30 BEGIN BOND
M  V30 1 3 1 2
M  V30 2 1 2 3
M  V30 3 2 3 4
M  V30 4 1 4 5
M  V30 5 1 5 6
M  V30 6 2 6 7
M  V30 7 1 7 8
M  V30 8 1 8 9
M  V30 9 2 8 10
M  V30 10 1 10 11
M  V30 11 1 11 12
M  V30 12 1 12 13
M  V30 13 2 13 14
M  V30 14 1 14 15
M  V30 15 2 15 16
M  V30 16 1 16 17
M  V30 17 1 17 18
M  V30 18 2 17 19
M  V30 19 2 17 20
M  V30 20 1 16 21
M  V30 21 2 21 22
M  V30 22 2 11 23
M  V30 23 1 23 3
M  V30 24 1 23 6
M  V30 25 1 22 13
M  V30 26 1 4 24
M  V30 27 1 5 25
M  V30 28 1 9 26
M  V30 29 1 9 27
M  V30 30 1 12 28
M  V30 31 1 14 29
M  V30 32 1 15 30
M  V30 33 1 18 31
M  V30 34 1 18 32
M  V30 35 1 21 33
M  V30 36 1 22 34
M  V30 END BOND
M  V30 END CTAB
M  END
>  <Dataset>  (514) 
ChEMBL_Kinases

>  <Ligand_Instance>  (514) 
nan

>  <PDB_ID>  (514) 
nan

>  <Standardized_SMILES>  (514) 
N#Cc1c[nH]c2nc(N)nc(Nc3ccc(S(N)(=O)=O)cc3)c12

>  <Name>  (514) 
nan

>  <Pocket>  (514) 
nan

>  <ATP_Site>  (514) 
nan

>  <Peripheral>  (514) 
nan

>  <Num_H_Atoms_ProtBoundConf>  (514) 
nan

>  <Num_Resolved_Atoms>  (514) 
nan

>  <Num_Not_Resolved_Atoms>  (514) 
nan

$$$$
CHEMBL4100266
     RDKit          3D

  0  0  0  0  0  0  0  0  0  0999 V3000
M  V30 BEGIN CTAB
M  V30 COUNTS 44 47 0 0 0
M  V30 BEGIN ATOM
M  V30 1 C -0.572841 -2.299446 -1.251438 0
M  V30 2 O 0.474016 -1.353205 -1.191475 0
M  V30 3 C 1.230049 -1.036506 -2.300639 0
M  V30 4 C 0.942377 -1.673771 -3.489428 0
M  V30 5 C 1.637914 -1.434734 -4.657432 0
M  V30 6 C 2.668679 -0.505746 -4.602480 0
M  V30 7 C 2.983961 0.150800 -3.430456 0
M  V30 8 N 3.982658 1.034695 -3.369734 0
M  V30 9 C 4.340694 1.690987 -2.258833 0
M  V30 10 C 3.588979 1.389278 -1.142567 0
M  V30 11 C 2.520010 0.480142 -1.093257 0
M  V30 12 N 1.877073 0.317044 0.158213 0
M  V30 13 C 0.593092 0.563910 0.713097 0
M  V30 14 C -0.375182 1.390642 0.133791 0
M  V30 15 C -1.621110 1.647967 0.636871 0
M  V30 16 N -1.884777 1.030888 1.782936 0
M  V30 17 C -0.980089 0.212789 2.394892 0
M  V30 18 C -1.395039 -0.408618 3.657096 0
M  V30 19 N -0.621888 -0.468284 4.744513 0
M  V30 20 C -1.007551 -1.039055 5.898464 0
M  V30 21 C -0.131669 -1.096160 7.100722 0
M  V30 22 C -2.267072 -1.612330 6.020928 0
M  V30 23 C -3.106890 -1.569754 4.902552 0
M  V30 24 C -2.666508 -0.971030 3.734675 0
M  V30 25 F -3.458304 -0.915093 2.635630 0
M  V30 26 C 0.271927 -0.052761 1.900154 0
M  V30 27 C 2.252745 -0.130009 -2.298337 0
M  V30 28 H -0.805787 -2.650820 -0.218569 0
M  V30 29 H -1.448446 -1.832739 -1.733853 0
M  V30 30 H -0.235696 -3.230763 -1.793224 0
M  V30 31 H 0.150771 -2.417636 -3.625188 0
M  V30 32 H 1.435952 -1.918932 -5.607146 0
M  V30 33 H 3.252128 -0.277848 -5.495625 0
M  V30 34 H 5.141689 2.403691 -2.194654 0
M  V30 35 H 3.869344 1.919947 -0.219310 0
M  V30 36 H 2.608324 -0.100865 0.775591 0
M  V30 37 H -0.032564 1.837070 -0.805211 0
M  V30 38 H -2.266288 2.305248 0.086125 0
M  V30 39 H -0.765469 -0.970331 7.995131 0
M  V30 40 H 0.625640 -0.262665 7.016347 0
M  V30 41 H 0.443324 -2.031363 7.125973 0
M  V30 42 H -2.658513 -2.091877 6.910329 0
M  V30 43 H -4.111642 -1.988403 4.891022 0
M  V30 44 H 0.919865 -0.705174 2.441389 0
M  V30 END ATOM
M  V30 BEGIN BOND
M  V30 1 1 1 2
M  V30 2 1 2 3
M  V30 3 2 3 4
M  V30 4 1 4 5
M  V30 5 2 5 6
M  V30 6 1 6 7
M  V30 7 2 7 8
M  V30 8 1 8 9
M  V30 9 2 9 10
M  V30 10 1 10 11
M  V30 11 1 11 12
M  V30 12 1 12 13
M  V30 13 2 13 14
M  V30 14 1 14 15
M  V30 15 2 15 16
M  V30 16 1 16 17
M  V30 17 1 17 18
M  V30 18 2 18 19
M  V30 19 1 19 20
M  V30 20 1 20 21
M  V30 21 2 20 22
M  V30 22 1 22 23
M  V30 23 2 23 24
M  V30 24 1 24 25
M  V30 25 2 17 26
M  V30 26 2 11 27
M  V30 27 1 27 3
M  V30 28 1 27 7
M  V30 29 1 26 13
M  V30 30 1 24 18
M  V30 31 1 1 28
M  V30 32 1 1 29
M  V30 33 1 1 30
M  V30 34 1 4 31
M  V30 35 1 5 32
M  V30 36 1 6 33
M  V30 37 1 9 34
M  V30 38 1 10 35
M  V30 39 1 12 36
M  V30 40 1 14 37
M  V30 41 1 15 38
M  V30 42 1 21 39
M  V30 43 1 21 40
M  V30 44 1 21 41
M  V30 45 1 22 42
M  V30 46 1 23 43
M  V30 47 1 26 44
M  V30 END BOND
M  V30 END CTAB
M  END
>  <Dataset>  (515) 
ChEMBL_Kinases

>  <Ligand_Instance>  (515) 
nan

>  <PDB_ID>  (515) 
nan

>  <Standardized_SMILES>  (515) 
COc1cccc2nccc(Nc3ccnc(-c4nc(C)ccc4F)c3)c12

>  <Name>  (515) 
nan

>  <Pocket>  (515) 
nan

>  <ATP_Site>  (515) 
nan

>  <Peripheral>  (515) 
nan

>  <Num_H_Atoms_ProtBoundConf>  (515) 
nan

>  <Num_Resolved_Atoms>  (515) 
nan

>  <Num_Not_Resolved_Atoms>  (515) 
nan

$$$$
CHEMBL4101298
     RDKit          3D

  0  0  0  0  0  0  0  0  0  0999 V3000
M  V30 BEGIN CTAB
M  V30 COUNTS 67 71 0 0 0
M  V30 BEGIN ATOM
M  V30 1 C 0.716448 -2.279016 7.230215 0
M  V30 2 N 1.503196 -3.443406 7.019223 0
M  V30 3 C 0.733836 -4.627836 7.393543 0
M  V30 4 C 2.010033 -3.637666 5.699257 0
M  V30 5 C 3.046869 -2.675765 5.231505 0
M  V30 6 N 2.638734 -1.300249 5.150480 0
M  V30 7 C 2.086795 -0.898480 3.962584 0
M  V30 8 C 1.725453 0.457281 3.982222 0
M  V30 9 C 1.116510 1.066551 2.788711 0
M  V30 10 C 1.522396 0.585924 1.534263 0
M  V30 11 C 0.903072 1.168389 0.456511 0
M  V30 12 N -0.035003 2.130803 0.449532 0
M  V30 13 C -0.719036 2.781776 -0.542794 0
M  V30 14 C -0.424273 2.421378 -1.929750 0
M  V30 15 C -0.110551 3.232489 -2.994511 0
M  V30 16 C 0.183794 2.743304 -4.247307 0
M  V30 17 C 0.165860 1.373572 -4.451985 0
M  V30 18 C 0.465382 0.971233 -5.818260 0
M  V30 19 N 1.112210 -0.265736 -6.082346 0
M  V30 20 O 0.309352 1.436629 -6.962810 0
M  V30 21 C -0.138529 0.463827 -3.460652 0
M  V30 22 O -0.118357 -0.876712 -3.786551 0
M  V30 23 C -0.423245 -1.980817 -3.045428 0
M  V30 24 C -1.855386 -1.975309 -2.665343 0
M  V30 25 C -2.502666 -1.745797 -1.491336 0
M  V30 26 C -3.824234 -1.748396 -1.142866 0
M  V30 27 C -4.647239 -2.048823 -2.228765 0
M  V30 28 C -4.164405 -2.312258 -3.503083 0
M  V30 29 C -2.774009 -2.271214 -3.700270 0
M  V30 30 C -2.348796 -2.586865 -5.093085 0
M  V30 31 F -3.446887 -2.829637 -5.896773 0
M  V30 32 F -1.664988 -1.556677 -5.703590 0
M  V30 33 F -1.641019 -3.783763 -5.099670 0
M  V30 34 C -0.418508 1.063873 -2.247713 0
M  V30 35 C -1.544371 3.669761 0.138216 0
M  V30 36 N -1.337816 3.527107 1.458260 0
M  V30 37 C -0.410234 2.580143 1.677833 0
M  V30 38 C 0.163826 2.049515 2.821917 0
M  V30 39 C 2.091662 0.843499 5.250598 0
M  V30 40 N 2.613240 -0.217687 5.874643 0
M  V30 41 H 1.209087 -1.533318 7.894363 0
M  V30 42 H -0.226389 -2.554549 7.778032 0
M  V30 43 H 0.422091 -1.847428 6.244795 0
M  V30 44 H 0.843907 -4.786218 8.491687 0
M  V30 45 H -0.331646 -4.465747 7.170399 0
M  V30 46 H 1.108809 -5.525929 6.874426 0
M  V30 47 H 2.480957 -4.665797 5.666188 0
M  V30 48 H 1.156552 -3.718495 4.968532 0
M  V30 49 H 3.923127 -2.800077 5.917883 0
M  V30 50 H 3.426131 -3.063657 4.245924 0
M  V30 51 H 1.933974 -1.550289 3.082210 0
M  V30 52 H 2.270625 -0.190741 1.494327 0
M  V30 53 H 1.316665 0.738509 -0.471310 0
M  V30 54 H -0.117895 4.297342 -2.752488 0
M  V30 55 H 0.424230 3.440663 -5.042784 0
M  V30 56 H 1.503110 -1.172401 -6.413715 0
M  V30 57 H 1.808785 -0.964008 -5.677662 0
M  V30 58 H 0.169334 -1.962570 -2.099045 0
M  V30 59 H -0.222374 -2.950030 -3.519206 0
M  V30 60 H -1.814940 -1.524083 -0.675776 0
M  V30 61 H -4.161351 -1.542439 -0.150744 0
M  V30 62 H -5.729769 -2.078747 -2.073682 0
M  V30 63 H -4.871351 -2.532775 -4.279322 0
M  V30 64 H -0.670362 0.364481 -1.467425 0
M  V30 65 H -2.194784 4.309613 -0.451400 0
M  V30 66 H -0.120524 2.399042 3.797155 0
M  V30 67 H 1.915645 1.874490 5.528788 0
M  V30 END ATOM
M  V30 BEGIN BOND
M  V30 1 1 1 2
M  V30 2 1 2 3
M  V30 3 1 2 4
M  V30 4 1 4 5
M  V30 5 1 5 6
M  V30 6 1 6 7
M  V30 7 2 7 8
M  V30 8 1 8 9
M  V30 9 1 9 10
M  V30 10 2 10 11
M  V30 11 1 11 12
M  V30 12 1 12 13
M  V30 13 1 13 14
M  V30 14 2 14 15
M  V30 15 1 15 16
M  V30 16 2 16 17
M  V30 17 1 17 18
M  V30 18 1 18 19
M  V30 19 2 18 20
M  V30 20 1 17 21
M  V30 21 1 21 22
M  V30 22 1 22 23
M  V30 23 1 23 24
M  V30 24 2 24 25
M  V30 25 1 25 26
M  V30 26 2 26 27
M  V30 27 1 27 28
M  V30 28 2 28 29
M  V30 29 1 29 30
M  V30 30 1 30 31
M  V30 31 1 30 32
M  V30 32 1 30 33
M  V30 33 2 21 34
M  V30 34 2 13 35
M  V30 35 1 35 36
M  V30 36 2 36 37
M  V30 37 1 37 38
M  V30 38 1 8 39
M  V30 39 2 39 40
M  V30 40 1 40 6
M  V30 41 2 38 9
M  V30 42 1 37 12
M  V30 43 1 34 14
M  V30 44 1 29 24
M  V30 45 1 1 41
M  V30 46 1 1 42
M  V30 47 1 1 43
M  V30 48 1 3 44
M  V30 49 1 3 45
M  V30 50 1 3 46
M  V30 51 1 4 47
M  V30 52 1 4 48
M  V30 53 1 5 49
M  V30 54 1 5 50
M  V30 55 1 7 51
M  V30 56 1 10 52
M  V30 57 1 11 53
M  V30 58 1 15 54
M  V30 59 1 16 55
M  V30 60 1 19 56
M  V30 61 1 19 57
M  V30 62 1 23 58
M  V30 63 1 23 59
M  V30 64 1 25 60
M  V30 65 1 26 61
M  V30 66 1 27 62
M  V30 67 1 28 63
M  V30 68 1 34 64
M  V30 69 1 35 65
M  V30 70 1 38 66
M  V30 71 1 39 67
M  V30 END BOND
M  V30 END CTAB
M  END
>  <Dataset>  (516) 
ChEMBL_Kinases

>  <Ligand_Instance>  (516) 
nan

>  <PDB_ID>  (516) 
nan

>  <Standardized_SMILES>  (516) 
CN(C)CCn1cc(-c2ccn3c(-c4ccc(C(N)=O)c(OCc5ccccc5C(F)(F)F)c4)cnc3c2)cn1

>  <Name>  (516) 
nan

>  <Pocket>  (516) 
nan

>  <ATP_Site>  (516) 
nan

>  <Peripheral>  (516) 
nan

>  <Num_H_Atoms_ProtBoundConf>  (516) 
nan

>  <Num_Resolved_Atoms>  (516) 
nan

>  <Num_Not_Resolved_Atoms>  (516) 
nan

$$$$
CHEMBL4101293
     RDKit          3D

  0  0  0  0  0  0  0  0  0  0999 V3000
M  V30 BEGIN CTAB
M  V30 COUNTS 50 53 0 0 0
M  V30 BEGIN ATOM
M  V30 1 C -0.642659 -0.672126 2.170674 0
M  V30 2 C 0.621665 -0.640396 1.378429 0 CFG=2
M  V30 3 C 0.970858 0.832244 1.060898 0
M  V30 4 N 2.313002 0.742301 0.506582 0
M  V30 5 C 3.320663 1.189556 1.440791 0
M  V30 6 C 4.229484 0.268008 1.905379 0
M  V30 7 C 5.163989 0.763890 2.824298 0
M  V30 8 C 5.127827 2.095767 3.202535 0
M  V30 9 C 4.174939 2.967503 2.685570 0
M  V30 10 C 3.216679 2.526166 1.763501 0
M  V30 11 C 2.221245 3.390653 1.201440 0
M  V30 12 N 1.411108 4.106961 0.760136 0
M  V30 13 C 2.283775 0.215993 -0.859858 0
M  V30 14 C 1.381498 -0.956863 -1.032804 0
M  V30 15 N 0.518092 -1.253246 0.062400 0
M  V30 16 C -0.540477 -2.184890 -0.093512 0
M  V30 17 N -1.725144 -1.514967 -0.189263 0
M  V30 18 C -2.907221 -2.156943 -0.350164 0
M  V30 19 C -4.164328 -1.434963 -0.439565 0
M  V30 20 C -4.153415 -0.062562 -0.355508 0
M  V30 21 C -5.368420 0.630079 -0.436368 0
M  V30 22 N -6.504807 -0.076548 -0.594474 0
M  V30 23 C -6.495403 -1.432714 -0.675765 0
M  V30 24 N -5.309756 -2.086634 -0.595160 0
M  V30 25 C -2.873868 -3.536784 -0.415332 0
M  V30 26 C -1.672760 -4.211267 -0.316787 0
M  V30 27 O -1.547605 -5.482702 -0.365589 0
M  V30 28 N -0.515238 -3.529847 -0.156625 0
M  V30 29 C 0.805836 -4.106137 -0.043603 0
M  V30 30 H -1.138922 -1.638127 2.204043 0
M  V30 31 H -0.376046 -0.414313 3.235033 0
M  V30 32 H -1.294687 0.157067 1.824808 0
M  V30 33 H 1.505429 -1.046901 1.886228 0
M  V30 34 H 0.924786 1.419599 1.991958 0
M  V30 35 H 0.299906 1.246823 0.289680 0
M  V30 36 H 4.197214 -0.753830 1.565126 0
M  V30 37 H 5.875526 0.030869 3.186942 0
M  V30 38 H 5.873266 2.437046 3.921704 0
M  V30 39 H 4.168044 4.020025 3.001415 0
M  V30 40 H 1.896616 1.047881 -1.514130 0
M  V30 41 H 3.313920 -0.032602 -1.229537 0
M  V30 42 H 2.030027 -1.865432 -1.195581 0
M  V30 43 H 0.840261 -0.849217 -2.001383 0
M  V30 44 H -3.290928 0.544034 -0.231420 0
M  V30 45 H -5.433324 1.728735 -0.372408 0
M  V30 46 H -7.471003 -1.928015 -0.803976 0
M  V30 47 H -3.778400 -4.128488 -0.543724 0
M  V30 48 H 1.216366 -4.280430 -1.069803 0
M  V30 49 H 0.717093 -5.153870 0.372264 0
M  V30 50 H 1.486817 -3.571822 0.609771 0
M  V30 END ATOM
M  V30 BEGIN BOND
M  V30 1 1 1 2
M  V30 2 1 2 3
M  V30 3 1 3 4
M  V30 4 1 4 5
M  V30 5 2 5 6
M  V30 6 1 6 7
M  V30 7 2 7 8
M  V30 8 1 8 9
M  V30 9 2 9 10
M  V30 10 1 10 11
M  V30 11 3 11 12
M  V30 12 1 4 13
M  V30 13 1 13 14
M  V30 14 1 14 15
M  V30 15 1 15 16
M  V30 16 2 16 17
M  V30 17 1 17 18
M  V30 18 1 18 19
M  V30 19 2 19 20
M  V30 20 1 20 21
M  V30 21 2 21 22
M  V30 22 1 22 23
M  V30 23 2 23 24
M  V30 24 2 18 25
M  V30 25 1 25 26
M  V30 26 2 26 27
M  V30 27 1 26 28
M  V30 28 1 28 29
M  V30 29 1 15 2
M  V30 30 1 28 16
M  V30 31 1 10 5
M  V30 32 1 24 19
M  V30 33 1 1 30
M  V30 34 1 1 31
M  V30 35 1 1 32
M  V30 36 1 2 33 CFG=1
M  V30 37 1 3 34
M  V30 38 1 3 35
M  V30 39 1 6 36
M  V30 40 1 7 37
M  V30 41 1 8 38
M  V30 42 1 9 39
M  V30 43 1 13 40
M  V30 44 1 13 41
M  V30 45 1 14 42
M  V30 46 1 14 43
M  V30 47 1 20 44
M  V30 48 1 21 45
M  V30 49 1 23 46
M  V30 50 1 25 47
M  V30 51 1 29 48
M  V30 52 1 29 49
M  V30 53 1 29 50
M  V30 END BOND
M  V30 END CTAB
M  END
>  <Dataset>  (517) 
ChEMBL_Kinases

>  <Ligand_Instance>  (517) 
nan

>  <PDB_ID>  (517) 
nan

>  <Standardized_SMILES>  (517) 
C[C@@H]1CN(c2ccccc2C#N)CCN1c1nc(-c2ccncn2)cc(=O)n1C

>  <Name>  (517) 
nan

>  <Pocket>  (517) 
nan

>  <ATP_Site>  (517) 
nan

>  <Peripheral>  (517) 
nan

>  <Num_H_Atoms_ProtBoundConf>  (517) 
nan

>  <Num_Resolved_Atoms>  (517) 
nan

>  <Num_Not_Resolved_Atoms>  (517) 
nan

$$$$
CHEMBL4101252
     RDKit          3D

  0  0  0  0  0  0  0  0  0  0999 V3000
M  V30 BEGIN CTAB
M  V30 COUNTS 61 64 0 0 0
M  V30 BEGIN ATOM
M  V30 1 C 9.322182 1.850863 1.204526 0
M  V30 2 C 8.247162 2.016171 2.256866 0
M  V30 3 C 7.121026 2.861810 1.745109 0
M  V30 4 O 6.955685 3.399834 0.625159 0
M  V30 5 N 6.170211 2.990294 2.788062 0
M  V30 6 C 4.931503 3.697254 2.778655 0
M  V30 7 C 4.952680 5.027749 3.152324 0
M  V30 8 C 3.766399 5.735048 3.152984 0
M  V30 9 C 2.558542 5.144338 2.789322 0
M  V30 10 C 2.568676 3.830845 2.425550 0
M  V30 11 C 1.265744 3.300392 2.061980 0
M  V30 12 O 0.247371 4.017412 2.043879 0
M  V30 13 N 1.056790 1.969590 1.711198 0
M  V30 14 C 0.112437 0.999188 1.309719 0
M  V30 15 C -0.534460 0.348873 2.326516 0
M  V30 16 C -1.472632 -0.620097 2.033828 0
M  V30 17 C -1.734920 -0.909944 0.685049 0
M  V30 18 N -2.712185 -1.909247 0.429006 0
M  V30 19 C -2.770882 -2.718112 -0.737649 0
M  V30 20 C -3.776487 -3.638515 -0.916492 0
M  V30 21 C -3.874699 -4.474989 -2.014089 0
M  V30 22 C -4.971940 -5.412205 -2.130116 0
M  V30 23 N -5.954238 -5.428804 -1.208116 0
M  V30 24 C -6.861694 -6.370907 -1.492061 0
M  V30 25 S -8.381853 -6.977111 -0.783687 0
M  V30 26 C -8.773300 -6.024662 0.710272 0
M  V30 27 N -6.434518 -6.956270 -2.620517 0
M  V30 28 C -5.279992 -6.383704 -3.025878 0
M  V30 29 C -4.480967 -6.746301 -4.217567 0
M  V30 30 C -2.861558 -4.298503 -2.921343 0
M  V30 31 C -1.835684 -3.392166 -2.787408 0
M  V30 32 N -1.825306 -2.625424 -1.689737 0
M  V30 33 C -1.056010 -0.225804 -0.300509 0
M  V30 34 C -0.112402 0.748750 -0.032285 0
M  V30 35 C 3.734012 3.098862 2.414442 0
M  V30 36 H 10.111773 2.612950 1.375991 0
M  V30 37 H 9.743304 0.822159 1.160179 0
M  V30 38 H 8.857230 2.112694 0.229482 0
M  V30 39 H 7.847616 1.013260 2.552718 0
M  V30 40 H 8.664234 2.509955 3.146382 0
M  V30 41 H 6.136960 2.625140 3.764279 0
M  V30 42 H 5.855103 5.527798 3.441230 0
M  V30 43 H 3.786964 6.781325 3.443736 0
M  V30 44 H 1.670096 5.761511 2.814990 0
M  V30 45 H 1.914207 1.335715 1.720514 0
M  V30 46 H -0.356633 0.547236 3.360802 0
M  V30 47 H -2.006719 -1.156538 2.803546 0
M  V30 48 H -3.462345 -2.063935 1.167550 0
M  V30 49 H -4.510725 -3.678257 -0.131276 0
M  V30 50 H -6.155487 -4.865631 -0.329105 0
M  V30 51 H -9.300575 -6.685524 1.458311 0
M  V30 52 H -9.409255 -5.134883 0.465552 0
M  V30 53 H -7.861575 -5.609454 1.203560 0
M  V30 54 H -3.455594 -7.125760 -3.936163 0
M  V30 55 H -4.486331 -6.017700 -5.026016 0
M  V30 56 H -4.962479 -7.674069 -4.658585 0
M  V30 57 H -2.824562 -4.879269 -3.811235 0
M  V30 58 H -1.061383 -3.285186 -3.524434 0
M  V30 59 H -1.232624 -0.411362 -1.348162 0
M  V30 60 H 0.425208 1.290371 -0.801496 0
M  V30 61 H 3.741084 2.062336 2.126091 0
M  V30 END ATOM
M  V30 BEGIN BOND
M  V30 1 1 1 2
M  V30 2 1 2 3
M  V30 3 2 3 4
M  V30 4 1 3 5
M  V30 5 1 5 6
M  V30 6 2 6 7
M  V30 7 1 7 8
M  V30 8 2 8 9
M  V30 9 1 9 10
M  V30 10 1 10 11
M  V30 11 2 11 12
M  V30 12 1 11 13
M  V30 13 1 13 14
M  V30 14 2 14 15
M  V30 15 1 15 16
M  V30 16 2 16 17
M  V30 17 1 17 18
M  V30 18 1 18 19
M  V30 19 2 19 20
M  V30 20 1 20 21
M  V30 21 1 21 22
M  V30 22 1 22 23
M  V30 23 1 23 24
M  V30 24 1 24 25
M  V30 25 1 25 26
M  V30 26 2 24 27
M  V30 27 1 27 28
M  V30 28 1 28 29
M  V30 29 2 21 30
M  V30 30 1 30 31
M  V30 31 2 31 32
M  V30 32 1 17 33
M  V30 33 2 33 34
M  V30 34 2 10 35
M  V30 35 1 35 6
M  V30 36 1 34 14
M  V30 37 1 32 19
M  V30 38 2 28 22
M  V30 39 1 1 36
M  V30 40 1 1 37
M  V30 41 1 1 38
M  V30 42 1 2 39
M  V30 43 1 2 40
M  V30 44 1 5 41
M  V30 45 1 7 42
M  V30 46 1 8 43
M  V30 47 1 9 44
M  V30 48 1 13 45
M  V30 49 1 15 46
M  V30 50 1 16 47
M  V30 51 1 18 48
M  V30 52 1 20 49
M  V30 53 1 23 50
M  V30 54 1 26 51
M  V30 55 1 26 52
M  V30 56 1 26 53
M  V30 57 1 29 54
M  V30 58 1 29 55
M  V30 59 1 29 56
M  V30 60 1 30 57
M  V30 61 1 31 58
M  V30 62 1 33 59
M  V30 63 1 34 60
M  V30 64 1 35 61
M  V30 END BOND
M  V30 END CTAB
M  END
>  <Dataset>  (518) 
ChEMBL_Kinases

>  <Ligand_Instance>  (518) 
nan

>  <PDB_ID>  (518) 
nan

>  <Standardized_SMILES>  (518) 
CCC(=O)Nc1cccc(C(=O)Nc2ccc(Nc3cc(-c4[nH]c(SC)nc4C)ccn3)cc2)c1

>  <Name>  (518) 
nan

>  <Pocket>  (518) 
nan

>  <ATP_Site>  (518) 
nan

>  <Peripheral>  (518) 
nan

>  <Num_H_Atoms_ProtBoundConf>  (518) 
nan

>  <Num_Resolved_Atoms>  (518) 
nan

>  <Num_Not_Resolved_Atoms>  (518) 
nan

$$$$
CHEMBL4101218
     RDKit          3D

  0  0  0  0  0  0  0  0  0  0999 V3000
M  V30 BEGIN CTAB
M  V30 COUNTS 43 46 0 0 0
M  V30 BEGIN ATOM
M  V30 1 C -0.745025 -4.241581 4.623799 0
M  V30 2 C 0.294029 -3.634922 3.749988 0
M  V30 3 C 1.660796 -3.693895 4.025817 0
M  V30 4 N 2.566218 -3.128437 3.179887 0
M  V30 5 C 2.099400 -2.515248 2.076459 0
M  V30 6 C 0.747030 -2.444502 1.783202 0
M  V30 7 C 0.194803 -1.801986 0.567237 0
M  V30 8 C -0.284102 -0.506235 0.618999 0
M  V30 9 C -0.801526 0.167360 -0.481275 0
M  V30 10 N -1.247663 1.492494 -0.209058 0
M  V30 11 C -0.199861 2.439770 -0.013038 0
M  V30 12 N 1.109563 2.142346 -0.060598 0
M  V30 13 N 1.849280 3.225308 0.171002 0
M  V30 14 C 3.263809 3.507406 0.247127 0
M  V30 15 C 1.025557 4.262214 0.375731 0
M  V30 16 C -0.269114 3.794130 0.265076 0
M  V30 17 C -1.568288 4.537010 0.401798 0
M  V30 18 N -0.828359 -0.512668 -1.670248 0
M  V30 19 C -0.355312 -1.781078 -1.702796 0
M  V30 20 N -0.294619 -2.616354 -2.748591 0
M  V30 21 C 0.243285 -3.814603 -2.382621 0
M  V30 22 C 0.549173 -3.746814 -1.017602 0
M  V30 23 C 1.131943 -4.751306 -0.174880 0
M  V30 24 N 1.597011 -5.564692 0.512611 0
M  V30 25 C 0.166334 -2.494974 -0.651333 0
M  V30 26 C -0.192913 -2.996000 2.602117 0
M  V30 27 H -0.253533 -4.888810 5.361601 0
M  V30 28 H -1.433365 -4.881041 4.027271 0
M  V30 29 H -1.292359 -3.437387 5.146448 0
M  V30 30 H 1.880299 -4.214063 4.937825 0
M  V30 31 H 2.746054 -2.039343 1.351392 0
M  V30 32 H -0.226691 -0.040640 1.596453 0
M  V30 33 H -2.250044 1.678585 -0.176838 0
M  V30 34 H 3.528358 3.919912 1.252632 0
M  V30 35 H 3.575599 4.301482 -0.488207 0
M  V30 36 H 3.887761 2.606031 0.127220 0
M  V30 37 H 1.153826 5.313228 0.593903 0
M  V30 38 H -1.359737 5.592670 0.737026 0
M  V30 39 H -2.128465 4.023176 1.228870 0
M  V30 40 H -2.144088 4.485435 -0.532900 0
M  V30 41 H -0.589680 -2.480411 -3.751158 0
M  V30 42 H 0.415899 -4.684056 -3.010905 0
M  V30 43 H -1.246316 -2.956891 2.399345 0
M  V30 END ATOM
M  V30 BEGIN BOND
M  V30 1 1 1 2
M  V30 2 2 2 3
M  V30 3 1 3 4
M  V30 4 2 4 5
M  V30 5 1 5 6
M  V30 6 1 6 7
M  V30 7 2 7 8
M  V30 8 1 8 9
M  V30 9 1 9 10
M  V30 10 1 10 11
M  V30 11 2 11 12
M  V30 12 1 12 13
M  V30 13 1 13 14
M  V30 14 1 13 15
M  V30 15 2 15 16
M  V30 16 1 16 17
M  V30 17 2 9 18
M  V30 18 1 18 19
M  V30 19 1 19 20
M  V30 20 1 20 21
M  V30 21 2 21 22
M  V30 22 1 22 23
M  V30 23 3 23 24
M  V30 24 1 22 25
M  V30 25 2 6 26
M  V30 26 1 26 2
M  V30 27 1 25 7
M  V30 28 1 16 11
M  V30 29 2 25 19
M  V30 30 1 1 27
M  V30 31 1 1 28
M  V30 32 1 1 29
M  V30 33 1 3 30
M  V30 34 1 5 31
M  V30 35 1 8 32
M  V30 36 1 10 33
M  V30 37 1 14 34
M  V30 38 1 14 35
M  V30 39 1 14 36
M  V30 40 1 15 37
M  V30 41 1 17 38
M  V30 42 1 17 39
M  V30 43 1 17 40
M  V30 44 1 20 41
M  V30 45 1 21 42
M  V30 46 1 26 43
M  V30 END BOND
M  V30 END CTAB
M  END
>  <Dataset>  (519) 
ChEMBL_Kinases

>  <Ligand_Instance>  (519) 
nan

>  <PDB_ID>  (519) 
nan

>  <Standardized_SMILES>  (519) 
Cc1cncc(-c2cc(Nc3nn(C)cc3C)nc3[nH]cc(C#N)c23)c1

>  <Name>  (519) 
nan

>  <Pocket>  (519) 
nan

>  <ATP_Site>  (519) 
nan

>  <Peripheral>  (519) 
nan

>  <Num_H_Atoms_ProtBoundConf>  (519) 
nan

>  <Num_Resolved_Atoms>  (519) 
nan

>  <Num_Not_Resolved_Atoms>  (519) 
nan

$$$$
CHEMBL4101141
     RDKit          3D

  0  0  0  0  0  0  0  0  0  0999 V3000
M  V30 BEGIN CTAB
M  V30 COUNTS 39 41 0 0 0
M  V30 BEGIN ATOM
M  V30 1 C 0.255924 -6.040026 2.715125 0
M  V30 2 C 0.601540 -5.161665 3.883178 0
M  V30 3 O -0.294222 -4.117353 4.119041 0
M  V30 4 C -0.548462 -3.140513 3.202342 0
M  V30 5 C -0.083815 -2.880690 1.930936 0
M  V30 6 C -0.512517 -1.799451 1.201856 0
M  V30 7 C 0.091796 -1.694854 -0.123213 0
M  V30 8 C 0.449025 -0.549005 -0.690699 0
M  V30 9 O 0.287284 0.692267 -0.081658 0
M  V30 10 C 0.760557 1.706556 -0.930608 0
M  V30 11 C 0.811935 3.085578 -0.765348 0
M  V30 12 C 1.335819 3.869103 -1.772289 0
M  V30 13 O 1.371506 5.236999 -1.574848 0
M  V30 14 C 0.876785 5.785235 -0.359375 0
M  V30 15 C 1.799746 3.272554 -2.925395 0
M  V30 16 C 1.770913 1.897604 -3.139656 0
M  V30 17 C 1.234957 1.149696 -2.098356 0
M  V30 18 C 1.056317 -0.306088 -1.993950 0
M  V30 19 O 1.331724 -1.214738 -2.790984 0
M  V30 20 C -1.437772 -0.921985 1.725708 0
M  V30 21 C -1.933213 -1.139342 2.995592 0
M  V30 22 C -1.487051 -2.246562 3.728091 0
M  V30 23 O -2.103995 -2.295943 4.990715 0
M  V30 24 H -0.760728 -5.717646 2.347859 0
M  V30 25 H 0.220128 -7.102521 3.070506 0
M  V30 26 H 0.958052 -5.959059 1.864478 0
M  V30 27 H 1.615918 -4.695537 3.742570 0
M  V30 28 H 0.600018 -5.799276 4.804032 0
M  V30 29 H 0.633280 -3.623157 1.617522 0
M  V30 30 H 0.286003 -2.584081 -0.732216 0
M  V30 31 H 0.423826 3.478656 0.179443 0
M  V30 32 H -0.166066 5.404198 -0.246296 0
M  V30 33 H 0.822416 6.874308 -0.361869 0
M  V30 34 H 1.451340 5.386927 0.515259 0
M  V30 35 H 2.217647 3.879577 -3.730778 0
M  V30 36 H 2.127303 1.419200 -4.026119 0
M  V30 37 H -1.714191 -0.099162 1.075306 0
M  V30 38 H -2.644304 -0.418280 3.326078 0
M  V30 39 H -3.118457 -2.272328 5.054136 0
M  V30 END ATOM
M  V30 BEGIN BOND
M  V30 1 1 1 2
M  V30 2 1 2 3
M  V30 3 1 3 4
M  V30 4 2 4 5
M  V30 5 1 5 6
M  V30 6 1 6 7
M  V30 7 2 7 8
M  V30 8 1 8 9
M  V30 9 1 9 10
M  V30 10 2 10 11
M  V30 11 1 11 12
M  V30 12 1 12 13
M  V30 13 1 13 14
M  V30 14 2 12 15
M  V30 15 1 15 16
M  V30 16 2 16 17
M  V30 17 1 17 18
M  V30 18 2 18 19
M  V30 19 2 6 20
M  V30 20 1 20 21
M  V30 21 2 21 22
M  V30 22 1 22 23
M  V30 23 1 22 4
M  V30 24 1 18 8
M  V30 25 1 17 10
M  V30 26 1 1 24
M  V30 27 1 1 25
M  V30 28 1 1 26
M  V30 29 1 2 27
M  V30 30 1 2 28
M  V30 31 1 5 29
M  V30 32 1 7 30
M  V30 33 1 11 31
M  V30 34 1 14 32
M  V30 35 1 14 33
M  V30 36 1 14 34
M  V30 37 1 15 35
M  V30 38 1 16 36
M  V30 39 1 20 37
M  V30 40 1 21 38
M  V30 41 1 23 39
M  V30 END BOND
M  V30 END CTAB
M  END
>  <Dataset>  (520) 
ChEMBL_Kinases

>  <Ligand_Instance>  (520) 
nan

>  <PDB_ID>  (520) 
nan

>  <Standardized_SMILES>  (520) 
CCOc1cc(/C=C2\Oc3cc(OC)ccc3C2=O)ccc1O

>  <Name>  (520) 
nan

>  <Pocket>  (520) 
nan

>  <ATP_Site>  (520) 
nan

>  <Peripheral>  (520) 
nan

>  <Num_H_Atoms_ProtBoundConf>  (520) 
nan

>  <Num_Resolved_Atoms>  (520) 
nan

>  <Num_Not_Resolved_Atoms>  (520) 
nan

$$$$
CHEMBL4101126
     RDKit          3D

  0  0  0  0  0  0  0  0  0  0999 V3000
M  V30 BEGIN CTAB
M  V30 COUNTS 48 51 0 0 0
M  V30 BEGIN ATOM
M  V30 1 O -0.181829 2.130406 -0.590211 0
M  V30 2 C -0.202038 0.872099 -0.535402 0
M  V30 3 N -1.078300 0.428595 -1.555615 0
M  V30 4 C -1.735474 1.359678 -2.400030 0
M  V30 5 C -2.969001 1.962023 -2.206470 0
M  V30 6 C -3.450503 2.855206 -3.152260 0
M  V30 7 C -2.721082 3.157821 -4.289235 0
M  V30 8 N -1.511380 2.566966 -4.478813 0
M  V30 9 C -1.043346 1.696670 -3.556230 0
M  V30 10 C 0.554772 0.070638 0.420038 0
M  V30 11 C 1.314315 0.883864 1.275735 0
M  V30 12 C 2.112988 0.358377 2.262708 0
M  V30 13 C 2.900478 1.207892 3.148984 0
M  V30 14 C 3.146921 0.785127 4.445690 0
M  V30 15 C 3.899142 1.581889 5.313042 0
M  V30 16 N 4.397464 2.769832 4.910132 0
M  V30 17 C 4.164072 3.180370 3.667098 0
M  V30 18 C 3.424289 2.434798 2.757836 0
M  V30 19 C 2.197085 -1.003964 2.448991 0
M  V30 20 C 1.434061 -1.758067 1.585285 0
M  V30 21 C 0.615528 -1.304946 0.579495 0
M  V30 22 O -0.138544 -1.995789 -0.278183 0
M  V30 23 C -0.395973 -3.316049 -0.496067 0
M  V30 24 C -1.009578 -4.097823 0.581029 0
M  V30 25 C -2.409530 -4.013500 0.628117 0
M  V30 26 C -3.193559 -4.675086 1.548069 0
M  V30 27 C -2.596807 -5.475998 2.492476 0
M  V30 28 C -1.222317 -5.582229 2.475446 0
M  V30 29 C -0.480023 -4.905162 1.540166 0
M  V30 30 H -1.214239 -0.599332 -1.653507 0
M  V30 31 H -3.458926 1.662421 -1.293336 0
M  V30 32 H -4.435477 3.287081 -2.921525 0
M  V30 33 H -3.162585 3.865943 -4.984575 0
M  V30 34 H -0.074573 1.275084 -3.787979 0
M  V30 35 H 1.338044 1.984677 1.234598 0
M  V30 36 H 2.769599 -0.157913 4.815501 0
M  V30 37 H 4.096447 1.250890 6.340099 0
M  V30 38 H 4.510493 4.111967 3.230457 0
M  V30 39 H 3.205663 2.720157 1.740282 0
M  V30 40 H 2.809159 -1.469154 3.209255 0
M  V30 41 H 1.497638 -2.826018 1.720696 0
M  V30 42 H -1.034283 -3.455173 -1.410276 0
M  V30 43 H 0.610220 -3.822015 -0.678733 0
M  V30 44 H -2.983622 -3.399292 -0.083320 0
M  V30 45 H -4.270686 -4.585952 1.553631 0
M  V30 46 H -3.190604 -6.001939 3.220881 0
M  V30 47 H -0.681287 -6.198620 3.193281 0
M  V30 48 H 0.591215 -4.983660 1.507471 0
M  V30 END ATOM
M  V30 BEGIN BOND
M  V30 1 2 1 2
M  V30 2 1 2 3
M  V30 3 1 3 4
M  V30 4 2 4 5
M  V30 5 1 5 6
M  V30 6 2 6 7
M  V30 7 1 7 8
M  V30 8 2 8 9
M  V30 9 1 2 10
M  V30 10 2 10 11
M  V30 11 1 11 12
M  V30 12 1 12 13
M  V30 13 2 13 14
M  V30 14 1 14 15
M  V30 15 2 15 16
M  V30 16 1 16 17
M  V30 17 2 17 18
M  V30 18 2 12 19
M  V30 19 1 19 20
M  V30 20 2 20 21
M  V30 21 1 21 22
M  V30 22 1 22 23
M  V30 23 1 23 24
M  V30 24 2 24 25
M  V30 25 1 25 26
M  V30 26 2 26 27
M  V30 27 1 27 28
M  V30 28 2 28 29
M  V30 29 1 9 4
M  V30 30 1 21 10
M  V30 31 1 29 24
M  V30 32 1 18 13
M  V30 33 1 3 30
M  V30 34 1 5 31
M  V30 35 1 6 32
M  V30 36 1 7 33
M  V30 37 1 9 34
M  V30 38 1 11 35
M  V30 39 1 14 36
M  V30 40 1 15 37
M  V30 41 1 17 38
M  V30 42 1 18 39
M  V30 43 1 19 40
M  V30 44 1 20 41
M  V30 45 1 23 42
M  V30 46 1 23 43
M  V30 47 1 25 44
M  V30 48 1 26 45
M  V30 49 1 27 46
M  V30 50 1 28 47
M  V30 51 1 29 48
M  V30 END BOND
M  V30 END CTAB
M  END
>  <Dataset>  (521) 
ChEMBL_Kinases

>  <Ligand_Instance>  (521) 
nan

>  <PDB_ID>  (521) 
nan

>  <Standardized_SMILES>  (521) 
O=C(Nc1cccnc1)c1cc(-c2ccncc2)ccc1OCc1ccccc1

>  <Name>  (521) 
nan

>  <Pocket>  (521) 
nan

>  <ATP_Site>  (521) 
nan

>  <Peripheral>  (521) 
nan

>  <Num_H_Atoms_ProtBoundConf>  (521) 
nan

>  <Num_Resolved_Atoms>  (521) 
nan

>  <Num_Not_Resolved_Atoms>  (521) 
nan

$$$$
CHEMBL4101072
     RDKit          3D

  0  0  0  0  0  0  0  0  0  0999 V3000
M  V30 BEGIN CTAB
M  V30 COUNTS 56 60 0 0 0
M  V30 BEGIN ATOM
M  V30 1 C 6.575954 1.230799 3.832684 0
M  V30 2 C 6.055992 0.131822 2.990018 0
M  V30 3 C 6.042847 -1.142242 3.558421 0
M  V30 4 C 5.551181 -2.151712 2.787927 0
M  V30 5 C 5.096890 -1.862336 1.496757 0
M  V30 6 C 5.108477 -0.593850 0.926181 0
M  V30 7 C 4.581952 -0.428088 -0.431161 0
M  V30 8 N 3.164469 -0.007973 -0.420177 0
M  V30 9 C 3.010251 1.427641 -0.453197 0
M  V30 10 C 1.734415 1.786434 -1.158463 0
M  V30 11 N 0.717493 0.758351 -1.113138 0
M  V30 12 C -0.578014 1.027133 -1.447404 0
M  V30 13 C -1.298504 -0.131704 -1.312623 0
M  V30 14 C -2.666483 -0.676940 -1.493707 0
M  V30 15 N -3.255142 -1.396162 -0.490786 0
M  V30 16 C -4.477162 -1.951000 -0.594333 0
M  V30 17 N -4.762511 -2.617999 0.640567 0
M  V30 18 C -5.732573 -2.137438 1.535587 0
M  V30 19 C -6.555919 -1.040410 1.370868 0
M  V30 20 C -7.336174 -0.971326 2.530047 0
M  V30 21 N -6.967528 -1.993694 3.323243 0
M  V30 22 N -6.006547 -2.697469 2.735089 0
M  V30 23 C -5.369950 -3.864947 3.311836 0
M  V30 24 N -5.141813 -1.780931 -1.748289 0
M  V30 25 C -4.619907 -1.083849 -2.775041 0
M  V30 26 C -3.368577 -0.512128 -2.678546 0
M  V30 27 C -2.815731 0.234338 -3.808722 0
M  V30 28 C -0.399725 -1.131854 -0.880447 0
M  V30 29 C 0.845120 -0.528896 -0.771089 0
M  V30 30 C 2.162685 -1.010332 -0.381595 0
M  V30 31 O 2.336888 -2.183889 -0.059912 0
M  V30 32 N 5.601245 0.358534 1.726539 0
M  V30 33 H 5.997578 1.324756 4.778289 0
M  V30 34 H 6.475663 2.208833 3.325479 0
M  V30 35 H 7.640000 1.093197 4.085178 0
M  V30 36 H 6.410771 -1.275881 4.562709 0
M  V30 37 H 5.535566 -3.136370 3.219413 0
M  V30 38 H 4.746699 -2.765529 1.006818 0
M  V30 39 H 4.640480 -1.418868 -0.955186 0
M  V30 40 H 5.172318 0.264414 -1.042100 0
M  V30 41 H 3.842883 1.915490 -1.018454 0
M  V30 42 H 2.979001 1.861453 0.572147 0
M  V30 43 H 1.958856 1.994555 -2.234456 0
M  V30 44 H 1.343924 2.749914 -0.696114 0
M  V30 45 H -1.158747 1.870674 -1.769014 0
M  V30 46 H -4.206914 -3.478065 0.827810 0
M  V30 47 H -6.545981 -0.394463 0.480568 0
M  V30 48 H -8.052953 -0.147344 2.567312 0
M  V30 49 H -5.863796 -4.815956 3.030325 0
M  V30 50 H -5.344000 -3.807265 4.420822 0
M  V30 51 H -4.298156 -3.929365 2.980539 0
M  V30 52 H -5.265158 -1.028914 -3.642384 0
M  V30 53 H -2.533831 1.263807 -3.582306 0
M  V30 54 H -1.978888 -0.334322 -4.294999 0
M  V30 55 H -3.608107 0.313792 -4.606010 0
M  V30 56 H -0.497306 -2.192295 -0.640670 0
M  V30 END ATOM
M  V30 BEGIN BOND
M  V30 1 1 1 2
M  V30 2 2 2 3
M  V30 3 1 3 4
M  V30 4 2 4 5
M  V30 5 1 5 6
M  V30 6 1 6 7
M  V30 7 1 7 8
M  V30 8 1 8 9
M  V30 9 1 9 10
M  V30 10 1 10 11
M  V30 11 1 11 12
M  V30 12 2 12 13
M  V30 13 1 13 14
M  V30 14 2 14 15
M  V30 15 1 15 16
M  V30 16 1 16 17
M  V30 17 1 17 18
M  V30 18 2 18 19
M  V30 19 1 19 20
M  V30 20 2 20 21
M  V30 21 1 21 22
M  V30 22 1 22 23
M  V30 23 2 16 24
M  V30 24 1 24 25
M  V30 25 2 25 26
M  V30 26 1 26 27
M  V30 27 1 13 28
M  V30 28 2 28 29
M  V30 29 1 29 30
M  V30 30 2 30 31
M  V30 31 2 6 32
M  V30 32 1 32 2
M  V30 33 1 30 8
M  V30 34 1 29 11
M  V30 35 1 26 14
M  V30 36 1 22 18
M  V30 37 1 1 33
M  V30 38 1 1 34
M  V30 39 1 1 35
M  V30 40 1 3 36
M  V30 41 1 4 37
M  V30 42 1 5 38
M  V30 43 1 7 39
M  V30 44 1 7 40
M  V30 45 1 9 41
M  V30 46 1 9 42
M  V30 47 1 10 43
M  V30 48 1 10 44
M  V30 49 1 12 45
M  V30 50 1 17 46
M  V30 51 1 19 47
M  V30 52 1 20 48
M  V30 53 1 23 49
M  V30 54 1 23 50
M  V30 55 1 23 51
M  V30 56 1 25 52
M  V30 57 1 27 53
M  V30 58 1 27 54
M  V30 59 1 27 55
M  V30 60 1 28 56
M  V30 END BOND
M  V30 END CTAB
M  END
>  <Dataset>  (522) 
ChEMBL_Kinases

>  <Ligand_Instance>  (522) 
nan

>  <PDB_ID>  (522) 
nan

>  <Standardized_SMILES>  (522) 
Cc1cccc(CN2CCn3cc(-c4nc(Nc5ccnn5C)ncc4C)cc3C2=O)n1

>  <Name>  (522) 
nan

>  <Pocket>  (522) 
nan

>  <ATP_Site>  (522) 
nan

>  <Peripheral>  (522) 
nan

>  <Num_H_Atoms_ProtBoundConf>  (522) 
nan

>  <Num_Resolved_Atoms>  (522) 
nan

>  <Num_Not_Resolved_Atoms>  (522) 
nan

$$$$
CHEMBL4100980
     RDKit          3D

  0  0  0  0  0  0  0  0  0  0999 V3000
M  V30 BEGIN CTAB
M  V30 COUNTS 52 56 0 0 0
M  V30 BEGIN ATOM
M  V30 1 C -5.250873 -3.205412 -2.657604 0
M  V30 2 C -4.570017 -2.551699 -1.530777 0
M  V30 3 N -5.001402 -2.579045 -0.270120 0
M  V30 4 N -4.222613 -1.923388 0.547462 0
M  V30 5 C -4.542667 -1.853847 1.941804 0
M  V30 6 C -5.619747 -1.084151 2.394958 0
M  V30 7 C -5.920259 -1.023917 3.742574 0
M  V30 8 C -5.161570 -1.723557 4.667869 0
M  V30 9 C -5.544915 -1.605426 6.059781 0
M  V30 10 N -5.855702 -1.527786 7.162024 0
M  V30 11 C -4.108091 -2.476034 4.221919 0
M  V30 12 C -3.790502 -2.548528 2.867575 0
M  V30 13 C -3.182184 -1.392971 -0.123584 0
M  V30 14 O -2.180031 -0.648672 0.421684 0
M  V30 15 C -1.101913 -0.088475 -0.241811 0
M  V30 16 C 0.018494 -0.923044 -0.324413 0
M  V30 17 C 1.151693 -0.461411 -0.966964 0
M  V30 18 C 1.187655 0.818311 -1.528952 0
M  V30 19 C 2.387404 1.302055 -2.207482 0
M  V30 20 N 3.526382 0.585858 -2.350141 0
M  V30 21 C 4.463002 1.283095 -3.016579 0
M  V30 22 C 5.758352 0.952143 -3.385272 0
M  V30 23 C 6.505733 1.884934 -4.077796 0
M  V30 24 C 7.891863 1.658870 -4.526993 0
M  V30 25 O 8.566079 2.508316 -5.155055 0
M  V30 26 O 8.429571 0.402877 -4.202491 0
M  V30 27 C 5.952333 3.113065 -4.384293 0
M  V30 28 C 4.653547 3.418228 -4.003238 0
M  V30 29 C 3.874976 2.510113 -3.308959 0
M  V30 30 N 2.622786 2.486855 -2.806018 0
M  V30 31 C 0.077150 1.634793 -1.442508 0
M  V30 32 C -1.069992 1.192201 -0.802630 0
M  V30 33 C -3.427528 -1.799946 -1.403534 0
M  V30 34 N -2.628531 -1.514277 -2.537731 0 CHG=1 VAL=4
M  V30 35 O -1.655676 -1.009403 -3.105302 0
M  V30 36 O -2.893736 -1.930220 -3.816957 0 CHG=-1 VAL=1
M  V30 37 H -6.024662 -2.469840 -3.023221 0
M  V30 38 H -5.830301 -4.081565 -2.266242 0
M  V30 39 H -4.564433 -3.514704 -3.464922 0
M  V30 40 H -6.203696 -0.541805 1.652385 0
M  V30 41 H -6.775339 -0.398412 3.987827 0
M  V30 42 H -3.528801 -3.013729 4.956223 0
M  V30 43 H -2.942599 -3.163411 2.581229 0
M  V30 44 H 0.060120 -1.917222 0.084847 0
M  V30 45 H 2.038770 -1.103366 -1.040349 0
M  V30 46 H 6.222069 0.013478 -3.167083 0
M  V30 47 H 9.417380 0.200859 -4.355952 0
M  V30 48 H 6.476013 3.898325 -4.925722 0
M  V30 49 H 4.186915 4.382340 -4.231143 0
M  V30 50 H 1.943298 3.266990 -2.871562 0
M  V30 51 H 0.043122 2.645992 -1.862111 0
M  V30 52 H -1.979241 1.783256 -0.698759 0
M  V30 END ATOM
M  V30 BEGIN BOND
M  V30 1 1 1 2
M  V30 2 2 2 3
M  V30 3 1 3 4
M  V30 4 1 4 5
M  V30 5 2 5 6
M  V30 6 1 6 7
M  V30 7 2 7 8
M  V30 8 1 8 9
M  V30 9 3 9 10
M  V30 10 1 8 11
M  V30 11 2 11 12
M  V30 12 1 4 13
M  V30 13 1 13 14
M  V30 14 1 14 15
M  V30 15 2 15 16
M  V30 16 1 16 17
M  V30 17 2 17 18
M  V30 18 1 18 19
M  V30 19 2 19 20
M  V30 20 1 20 21
M  V30 21 2 21 22
M  V30 22 1 22 23
M  V30 23 1 23 24
M  V30 24 2 24 25
M  V30 25 1 24 26
M  V30 26 2 23 27
M  V30 27 1 27 28
M  V30 28 2 28 29
M  V30 29 1 29 30
M  V30 30 1 18 31
M  V30 31 2 31 32
M  V30 32 2 13 33
M  V30 33 1 33 34
M  V30 34 2 34 35
M  V30 35 1 34 36
M  V30 36 1 33 2
M  V30 37 1 12 5
M  V30 38 1 32 15
M  V30 39 1 30 19
M  V30 40 1 29 21
M  V30 41 1 1 37
M  V30 42 1 1 38
M  V30 43 1 1 39
M  V30 44 1 6 40
M  V30 45 1 7 41
M  V30 46 1 11 42
M  V30 47 1 12 43
M  V30 48 1 16 44
M  V30 49 1 17 45
M  V30 50 1 22 46
M  V30 51 1 26 47
M  V30 52 1 27 48
M  V30 53 1 28 49
M  V30 54 1 30 50
M  V30 55 1 31 51
M  V30 56 1 32 52
M  V30 END BOND
M  V30 END CTAB
M  END
>  <Dataset>  (523) 
ChEMBL_Kinases

>  <Ligand_Instance>  (523) 
nan

>  <PDB_ID>  (523) 
nan

>  <Standardized_SMILES>  (523) 
Cc1nn(-c2ccc(C#N)cc2)c(Oc2ccc(-c3nc4cc(C(=O)O)ccc4[nH]3)cc2)c1[N+](=O)[O-]

>  <Name>  (523) 
nan

>  <Pocket>  (523) 
nan

>  <ATP_Site>  (523) 
nan

>  <Peripheral>  (523) 
nan

>  <Num_H_Atoms_ProtBoundConf>  (523) 
nan

>  <Num_Resolved_Atoms>  (523) 
nan

>  <Num_Not_Resolved_Atoms>  (523) 
nan

$$$$
CHEMBL4799332
     RDKit          3D

  0  0  0  0  0  0  0  0  0  0999 V3000
M  V30 BEGIN CTAB
M  V30 COUNTS 35 37 0 0 0
M  V30 BEGIN ATOM
M  V30 1 N -1.045338 -2.479000 3.950649 0
M  V30 2 C -0.245674 -2.020017 2.862103 0
M  V30 3 N 0.994068 -2.469159 2.591753 0
M  V30 4 C 1.686032 -1.985358 1.544004 0
M  V30 5 C 1.205988 -1.011871 0.672585 0
M  V30 6 C 1.993783 -0.515572 -0.454999 0
M  V30 7 C 2.887084 -1.357397 -1.103926 0
M  V30 8 C 3.657744 -0.915074 -2.188212 0
M  V30 9 C 3.444075 0.403521 -2.534557 0
M  V30 10 C 4.237348 0.878531 -3.660286 0
M  V30 11 O 5.046062 0.095966 -4.239297 0
M  V30 12 O 4.380815 2.049494 -4.350504 0
M  V30 13 N 2.582147 1.231798 -1.915729 0
M  V30 14 C 1.831788 0.800829 -0.859694 0
M  V30 15 C -0.059773 -0.529015 0.919152 0
M  V30 16 C -0.750828 -1.039933 1.999245 0
M  V30 17 C -2.105520 -0.469983 2.198301 0
M  V30 18 C -2.886822 -0.349116 1.048033 0
M  V30 19 C -4.177182 0.179193 1.148180 0
M  V30 20 C -4.606782 0.552558 2.382985 0
M  V30 21 Cl -6.218662 1.218894 2.545803 0
M  V30 22 C -3.860586 0.445411 3.532380 0
M  V30 23 C -2.585850 -0.074916 3.442927 0
M  V30 24 H -0.759013 -2.233301 4.930346 0
M  V30 25 H -1.915475 -3.049895 3.932374 0
M  V30 26 H 2.688646 -2.329332 1.301634 0
M  V30 27 H 3.019265 -2.384875 -0.794797 0
M  V30 28 H 4.344253 -1.570475 -2.683013 0
M  V30 29 H 4.004528 2.197758 -5.298390 0
M  V30 30 H 1.131000 1.424922 -0.334472 0
M  V30 31 H -0.474976 0.219023 0.279983 0
M  V30 32 H -2.551045 -0.644017 0.062997 0
M  V30 33 H -4.840253 0.301541 0.291403 0
M  V30 34 H -4.220538 0.749975 4.513394 0
M  V30 35 H -1.936149 -0.192563 4.296932 0
M  V30 END ATOM
M  V30 BEGIN BOND
M  V30 1 1 1 2
M  V30 2 2 2 3
M  V30 3 1 3 4
M  V30 4 2 4 5
M  V30 5 1 5 6
M  V30 6 2 6 7
M  V30 7 1 7 8
M  V30 8 2 8 9
M  V30 9 1 9 10
M  V30 10 2 10 11
M  V30 11 1 10 12
M  V30 12 1 9 13
M  V30 13 2 13 14
M  V30 14 1 5 15
M  V30 15 2 15 16
M  V30 16 1 16 17
M  V30 17 2 17 18
M  V30 18 1 18 19
M  V30 19 2 19 20
M  V30 20 1 20 21
M  V30 21 1 20 22
M  V30 22 2 22 23
M  V30 23 1 16 2
M  V30 24 1 23 17
M  V30 25 1 14 6
M  V30 26 1 1 24
M  V30 27 1 1 25
M  V30 28 1 4 26
M  V30 29 1 7 27
M  V30 30 1 8 28
M  V30 31 1 12 29
M  V30 32 1 14 30
M  V30 33 1 15 31
M  V30 34 1 18 32
M  V30 35 1 19 33
M  V30 36 1 22 34
M  V30 37 1 23 35
M  V30 END BOND
M  V30 END CTAB
M  END
>  <Dataset>  (524) 
ChEMBL_Kinases

>  <Ligand_Instance>  (524) 
nan

>  <PDB_ID>  (524) 
nan

>  <Standardized_SMILES>  (524) 
Nc1ncc(-c2ccc(C(=O)O)nc2)cc1-c1ccc(Cl)cc1

>  <Name>  (524) 
nan

>  <Pocket>  (524) 
nan

>  <ATP_Site>  (524) 
nan

>  <Peripheral>  (524) 
nan

>  <Num_H_Atoms_ProtBoundConf>  (524) 
nan

>  <Num_Resolved_Atoms>  (524) 
nan

>  <Num_Not_Resolved_Atoms>  (524) 
nan

$$$$
CHEMBL4100931
     RDKit          3D

  0  0  0  0  0  0  0  0  0  0999 V3000
M  V30 BEGIN CTAB
M  V30 COUNTS 45 48 0 0 0
M  V30 BEGIN ATOM
M  V30 1 C 1.112549 -2.435949 6.149466 0
M  V30 2 C 1.916675 -1.815582 5.044497 0
M  V30 3 C 1.922089 -0.428971 5.038489 0
M  V30 4 C 2.661597 0.179222 4.022358 0
M  V30 5 C 3.350247 -0.579900 3.074734 0
M  V30 6 N 4.079125 0.116558 2.073256 0
M  V30 7 S 3.991525 -0.353836 0.430518 0
M  V30 8 O 4.474778 -1.752324 0.183396 0
M  V30 9 O 4.891404 0.571155 -0.355405 0
M  V30 10 C 2.368671 -0.225238 -0.203203 0
M  V30 11 C 1.921739 0.937339 -0.791905 0
M  V30 12 C 0.604827 0.943595 -1.269616 0
M  V30 13 C -0.287124 -0.138369 -1.193835 0
M  V30 14 C -1.570523 0.089859 -1.772281 0
M  V30 15 N -1.486017 0.570586 -3.053308 0
M  V30 16 C -2.610762 0.854802 -3.772382 0
M  V30 17 N -2.531895 1.353785 -5.102805 0
M  V30 18 N -3.865378 0.681563 -3.269884 0
M  V30 19 C -3.970236 0.211983 -2.014669 0
M  V30 20 N -5.020927 -0.060463 -1.218281 0
M  V30 21 C -4.569156 -0.505253 -0.021722 0
M  V30 22 C -3.169620 -0.514672 -0.063541 0
M  V30 23 C -2.390306 -0.916610 1.051002 0
M  V30 24 N -1.768377 -1.243824 1.975754 0
M  V30 25 C -2.831057 -0.070277 -1.300905 0
M  V30 26 C 0.260488 -1.247338 -0.589346 0
M  V30 27 C 1.545009 -1.325791 -0.096420 0
M  V30 28 C 3.308065 -1.960373 3.131300 0
M  V30 29 C 2.582327 -2.596794 4.128473 0
M  V30 30 H 1.269427 -1.909579 7.111044 0
M  V30 31 H 0.027551 -2.394171 5.909971 0
M  V30 32 H 1.397584 -3.485026 6.296605 0
M  V30 33 H 1.391515 0.168249 5.768595 0
M  V30 34 H 2.663316 1.260664 4.021101 0
M  V30 35 H 4.653839 0.918027 2.434069 0
M  V30 36 H 2.540705 1.802597 -0.886527 0
M  V30 37 H 0.301663 1.897678 -1.729822 0
M  V30 38 H -2.640744 1.001398 -6.070728 0
M  V30 39 H -2.296042 2.358859 -5.019441 0
M  V30 40 H -6.028216 0.070880 -1.529852 0
M  V30 41 H -5.202721 -0.789750 0.788210 0
M  V30 42 H -0.388517 -2.101921 -0.528884 0
M  V30 43 H 1.839052 -2.273744 0.358136 0
M  V30 44 H 3.846645 -2.543740 2.390206 0
M  V30 45 H 2.534039 -3.692306 4.193730 0
M  V30 END ATOM
M  V30 BEGIN BOND
M  V30 1 1 1 2
M  V30 2 2 2 3
M  V30 3 1 3 4
M  V30 4 2 4 5
M  V30 5 1 5 6
M  V30 6 1 6 7
M  V30 7 2 7 8
M  V30 8 2 7 9
M  V30 9 1 7 10
M  V30 10 2 10 11
M  V30 11 1 11 12
M  V30 12 2 12 13
M  V30 13 1 13 14
M  V30 14 2 14 15
M  V30 15 1 15 16
M  V30 16 1 16 17
M  V30 17 2 16 18
M  V30 18 1 18 19
M  V30 19 1 19 20
M  V30 20 1 20 21
M  V30 21 2 21 22
M  V30 22 1 22 23
M  V30 23 3 23 24
M  V30 24 1 22 25
M  V30 25 1 13 26
M  V30 26 2 26 27
M  V30 27 1 5 28
M  V30 28 2 28 29
M  V30 29 1 29 2
M  V30 30 1 27 10
M  V30 31 1 25 14
M  V30 32 2 25 19
M  V30 33 1 1 30
M  V30 34 1 1 31
M  V30 35 1 1 32
M  V30 36 1 3 33
M  V30 37 1 4 34
M  V30 38 1 6 35
M  V30 39 1 11 36
M  V30 40 1 12 37
M  V30 41 1 17 38
M  V30 42 1 17 39
M  V30 43 1 20 40
M  V30 44 1 21 41
M  V30 45 1 26 42
M  V30 46 1 27 43
M  V30 47 1 28 44
M  V30 48 1 29 45
M  V30 END BOND
M  V30 END CTAB
M  END
>  <Dataset>  (525) 
ChEMBL_Kinases

>  <Ligand_Instance>  (525) 
nan

>  <PDB_ID>  (525) 
nan

>  <Standardized_SMILES>  (525) 
Cc1ccc(NS(=O)(=O)c2ccc(-c3nc(N)nc4[nH]cc(C#N)c34)cc2)cc1

>  <Name>  (525) 
nan

>  <Pocket>  (525) 
nan

>  <ATP_Site>  (525) 
nan

>  <Peripheral>  (525) 
nan

>  <Num_H_Atoms_ProtBoundConf>  (525) 
nan

>  <Num_Resolved_Atoms>  (525) 
nan

>  <Num_Not_Resolved_Atoms>  (525) 
nan

$$$$
CHEMBL4100923
     RDKit          3D

  0  0  0  0  0  0  0  0  0  0999 V3000
M  V30 BEGIN CTAB
M  V30 COUNTS 47 50 0 0 0
M  V30 BEGIN ATOM
M  V30 1 C 1.361542 -3.737437 2.772047 0
M  V30 2 N 0.194935 -3.138610 2.165666 0
M  V30 3 C 0.306896 -2.015048 1.395071 0
M  V30 4 N 1.575192 -1.404418 1.158650 0
M  V30 5 C 2.037905 -1.929921 -0.117572 0
M  V30 6 C 3.363924 -1.313926 -0.456668 0
M  V30 7 N 3.242168 0.113103 -0.402028 0
M  V30 8 C 2.953001 0.614862 0.916966 0
M  V30 9 C 2.020218 1.786413 0.886030 0
M  V30 10 C 0.864220 1.760259 0.102387 0
M  V30 11 C -0.005494 2.845970 0.069934 0
M  V30 12 C 0.359626 3.901411 0.845549 0
M  V30 13 Cl -0.748576 5.277116 0.800408 0
M  V30 14 C 1.460044 4.047704 1.652658 0
M  V30 15 Cl 1.809449 5.458952 2.594640 0
M  V30 16 C 2.289075 2.932437 1.642789 0
M  V30 17 C 2.437369 -0.466607 1.838338 0
M  V30 18 N -0.783286 -1.441527 0.819306 0
M  V30 19 C -2.032503 -1.917663 0.954462 0
M  V30 20 C -3.149312 -1.267681 0.307170 0
M  V30 21 C -2.828021 -0.138311 -0.453702 0
M  V30 22 C -3.867023 0.506894 -1.087795 0
M  V30 23 N -5.126828 0.044850 -0.960799 0
M  V30 24 C -5.424532 -1.029737 -0.235506 0
M  V30 25 C -4.428893 -1.726043 0.428605 0
M  V30 26 C -2.141343 -3.051075 1.732971 0
M  V30 27 C -1.045913 -3.664534 2.337644 0
M  V30 28 O -1.218000 -4.696539 3.033865 0
M  V30 29 H 1.673467 -3.152787 3.658714 0
M  V30 30 H 1.042895 -4.732640 3.187593 0
M  V30 31 H 2.172387 -3.963204 2.078461 0
M  V30 32 H 2.097362 -3.024376 -0.123665 0
M  V30 33 H 1.302784 -1.544390 -0.884521 0
M  V30 34 H 3.629577 -1.588677 -1.503679 0
M  V30 35 H 4.131280 -1.643999 0.254444 0
M  V30 36 H 2.738554 0.560883 -1.173833 0
M  V30 37 H 3.907758 0.987167 1.342208 0
M  V30 38 H 0.679987 0.870200 -0.468080 0
M  V30 39 H -0.893741 2.825760 -0.533498 0
M  V30 40 H 3.197295 2.920642 2.244077 0
M  V30 41 H 3.337131 -1.048665 2.170602 0
M  V30 42 H 1.980560 0.001007 2.710273 0
M  V30 43 H -1.845290 0.266254 -0.583973 0
M  V30 44 H -3.776005 1.385856 -1.704290 0
M  V30 45 H -6.480936 -1.329156 -0.192650 0
M  V30 46 H -4.683705 -2.588338 1.008137 0
M  V30 47 H -3.097118 -3.496700 1.894191 0
M  V30 END ATOM
M  V30 BEGIN BOND
M  V30 1 1 1 2
M  V30 2 1 2 3
M  V30 3 1 3 4
M  V30 4 1 4 5
M  V30 5 1 5 6
M  V30 6 1 6 7
M  V30 7 1 7 8
M  V30 8 1 8 9
M  V30 9 2 9 10
M  V30 10 1 10 11
M  V30 11 2 11 12
M  V30 12 1 12 13
M  V30 13 1 12 14
M  V30 14 1 14 15
M  V30 15 2 14 16
M  V30 16 1 8 17
M  V30 17 2 3 18
M  V30 18 1 18 19
M  V30 19 1 19 20
M  V30 20 2 20 21
M  V30 21 1 21 22
M  V30 22 2 22 23
M  V30 23 1 23 24
M  V30 24 2 24 25
M  V30 25 2 19 26
M  V30 26 1 26 27
M  V30 27 2 27 28
M  V30 28 1 27 2
M  V30 29 1 17 4
M  V30 30 1 25 20
M  V30 31 1 16 9
M  V30 32 1 1 29
M  V30 33 1 1 30
M  V30 34 1 1 31
M  V30 35 1 5 32
M  V30 36 1 5 33
M  V30 37 1 6 34
M  V30 38 1 6 35
M  V30 39 1 7 36
M  V30 40 1 8 37
M  V30 41 1 10 38
M  V30 42 1 11 39
M  V30 43 1 16 40
M  V30 44 1 17 41
M  V30 45 1 17 42
M  V30 46 1 21 43
M  V30 47 1 22 44
M  V30 48 1 24 45
M  V30 49 1 25 46
M  V30 50 1 26 47
M  V30 END BOND
M  V30 END CTAB
M  END
>  <Dataset>  (526) 
ChEMBL_Kinases

>  <Ligand_Instance>  (526) 
nan

>  <PDB_ID>  (526) 
nan

>  <Standardized_SMILES>  (526) 
Cn1c(N2CCNC(c3ccc(Cl)c(Cl)c3)C2)nc(-c2ccncc2)cc1=O

>  <Name>  (526) 
nan

>  <Pocket>  (526) 
nan

>  <ATP_Site>  (526) 
nan

>  <Peripheral>  (526) 
nan

>  <Num_H_Atoms_ProtBoundConf>  (526) 
nan

>  <Num_Resolved_Atoms>  (526) 
nan

>  <Num_Not_Resolved_Atoms>  (526) 
nan

$$$$
CHEMBL4799529
     RDKit          3D

  0  0  0  0  0  0  0  0  0  0999 V3000
M  V30 BEGIN CTAB
M  V30 COUNTS 67 70 0 0 0
M  V30 BEGIN ATOM
M  V30 1 C 3.184633 -3.632554 2.933827 0
M  V30 2 O 4.216797 -3.059614 2.131433 0
M  V30 3 C 4.032705 -1.862760 1.457939 0
M  V30 4 O 2.843050 -1.517187 1.749674 0
M  V30 5 C 5.086393 -1.290950 0.646696 0
M  V30 6 S 6.715972 -2.117197 0.480045 0
M  V30 7 C 7.369877 -0.838853 -0.634316 0
M  V30 8 C 6.383172 0.039135 -0.778907 0
M  V30 9 C 5.200357 -0.180949 -0.124174 0
M  V30 10 N 4.026731 0.613215 -0.157653 0
M  V30 11 C 3.322296 1.330509 0.812184 0
M  V30 12 N 2.096491 1.770653 0.448930 0
M  V30 13 C 1.301899 2.460518 1.245758 0
M  V30 14 N 0.026319 2.850782 0.735581 0
M  V30 15 C -0.961563 1.799393 0.769444 0
M  V30 16 C -0.649486 0.511026 1.236045 0
M  V30 17 C -1.539602 -0.538383 1.274103 0
M  V30 18 C -2.826033 -0.325755 0.828060 0
M  V30 19 N -3.772586 -1.385670 0.853679 0
M  V30 20 C -5.071772 -1.431407 0.177978 0
M  V30 21 C -5.053666 -2.538776 -0.843618 0
M  V30 22 C -3.808239 -3.380959 -0.791346 0
M  V30 23 N -2.669506 -2.721571 -1.387396 0
M  V30 24 C -1.536955 -3.619335 -1.318631 0
M  V30 25 C -2.867742 -2.339604 -2.755953 0
M  V30 26 C -3.453399 -3.794832 0.617705 0
M  V30 27 C -3.596654 -2.637200 1.586314 0
M  V30 28 C -3.196214 0.913836 0.358784 0
M  V30 29 C -2.262553 1.925480 0.344688 0
M  V30 30 O -2.609570 3.186210 -0.123260 0
M  V30 31 C -3.911790 3.471982 -0.591617 0
M  V30 32 N 1.697380 2.767323 2.504908 0
M  V30 33 C 2.919344 2.365764 2.959444 0
M  V30 34 C 3.712970 1.646112 2.086250 0
M  V30 35 C 5.046964 1.226763 2.547895 0
M  V30 36 H 2.248247 -3.521884 2.368428 0
M  V30 37 H 3.491582 -4.675383 3.109238 0
M  V30 38 H 3.141192 -3.085381 3.898742 0
M  V30 39 H 8.360495 -0.854439 -1.051075 0
M  V30 40 H 6.514938 0.923287 -1.411629 0
M  V30 41 H 3.715626 0.583811 -1.151631 0
M  V30 42 H -0.341129 3.747055 0.339706 0
M  V30 43 H 0.360663 0.330463 1.591238 0
M  V30 44 H -1.178223 -1.484117 1.654421 0
M  V30 45 H -5.845178 -1.626079 0.954607 0
M  V30 46 H -5.338282 -0.463812 -0.284559 0
M  V30 47 H -5.949706 -3.169879 -0.679154 0
M  V30 48 H -5.132457 -2.078688 -1.846901 0
M  V30 49 H -3.999226 -4.304131 -1.368138 0
M  V30 50 H -0.932799 -3.584448 -2.266074 0
M  V30 51 H -0.833380 -3.377648 -0.498323 0
M  V30 52 H -1.877546 -4.684592 -1.236993 0
M  V30 53 H -3.288500 -3.182108 -3.319985 0
M  V30 54 H -1.861660 -2.104087 -3.204542 0
M  V30 55 H -3.451324 -1.389743 -2.854532 0
M  V30 56 H -4.023011 -4.679108 0.936376 0
M  V30 57 H -2.382463 -4.078557 0.618322 0
M  V30 58 H -2.764947 -2.538933 2.294706 0
M  V30 59 H -4.501149 -2.809517 2.205256 0
M  V30 60 H -4.176518 1.161770 -0.004013 0
M  V30 61 H -4.291689 2.717477 -1.312989 0
M  V30 62 H -4.594641 3.456173 0.290967 0
M  V30 63 H -3.897865 4.480996 -1.094699 0
M  V30 64 H 3.256844 2.599188 3.960415 0
M  V30 65 H 4.973652 0.274278 3.103824 0
M  V30 66 H 5.379010 2.003793 3.314587 0
M  V30 67 H 5.834189 1.248883 1.768684 0
M  V30 END ATOM
M  V30 BEGIN BOND
M  V30 1 1 1 2
M  V30 2 1 2 3
M  V30 3 2 3 4
M  V30 4 1 3 5
M  V30 5 1 5 6
M  V30 6 1 6 7
M  V30 7 2 7 8
M  V30 8 1 8 9
M  V30 9 1 9 10
M  V30 10 1 10 11
M  V30 11 2 11 12
M  V30 12 1 12 13
M  V30 13 1 13 14
M  V30 14 1 14 15
M  V30 15 2 15 16
M  V30 16 1 16 17
M  V30 17 2 17 18
M  V30 18 1 18 19
M  V30 19 1 19 20
M  V30 20 1 20 21
M  V30 21 1 21 22
M  V30 22 1 22 23
M  V30 23 1 23 24
M  V30 24 1 23 25
M  V30 25 1 22 26
M  V30 26 1 26 27
M  V30 27 1 18 28
M  V30 28 2 28 29
M  V30 29 1 29 30
M  V30 30 1 30 31
M  V30 31 2 13 32
M  V30 32 1 32 33
M  V30 33 2 33 34
M  V30 34 1 34 35
M  V30 35 2 9 5
M  V30 36 1 34 11
M  V30 37 1 29 15
M  V30 38 1 27 19
M  V30 39 1 1 36
M  V30 40 1 1 37
M  V30 41 1 1 38
M  V30 42 1 7 39
M  V30 43 1 8 40
M  V30 44 1 10 41
M  V30 45 1 14 42
M  V30 46 1 16 43
M  V30 47 1 17 44
M  V30 48 1 20 45
M  V30 49 1 20 46
M  V30 50 1 21 47
M  V30 51 1 21 48
M  V30 52 1 22 49
M  V30 53 1 24 50
M  V30 54 1 24 51
M  V30 55 1 24 52
M  V30 56 1 25 53
M  V30 57 1 25 54
M  V30 58 1 25 55
M  V30 59 1 26 56
M  V30 60 1 26 57
M  V30 61 1 27 58
M  V30 62 1 27 59
M  V30 63 1 28 60
M  V30 64 1 31 61
M  V30 65 1 31 62
M  V30 66 1 31 63
M  V30 67 1 33 64
M  V30 68 1 35 65
M  V30 69 1 35 66
M  V30 70 1 35 67
M  V30 END BOND
M  V30 END CTAB
M  END
>  <Dataset>  (527) 
ChEMBL_Kinases

>  <Ligand_Instance>  (527) 
nan

>  <PDB_ID>  (527) 
nan

>  <Standardized_SMILES>  (527) 
COC(=O)c1sccc1Nc1nc(Nc2ccc(N3CCC(N(C)C)CC3)cc2OC)ncc1C

>  <Name>  (527) 
nan

>  <Pocket>  (527) 
nan

>  <ATP_Site>  (527) 
nan

>  <Peripheral>  (527) 
nan

>  <Num_H_Atoms_ProtBoundConf>  (527) 
nan

>  <Num_Resolved_Atoms>  (527) 
nan

>  <Num_Not_Resolved_Atoms>  (527) 
nan

$$$$
CHEMBL4100904
     RDKit          3D

  0  0  0  0  0  0  0  0  0  0999 V3000
M  V30 BEGIN CTAB
M  V30 COUNTS 47 50 0 0 0
M  V30 BEGIN ATOM
M  V30 1 C -0.315779 -4.955934 -1.759368 0
M  V30 2 C 0.966532 -4.621907 -1.048046 0
M  V30 3 C 1.056663 -5.607741 0.126318 0
M  V30 4 O 0.993198 -3.367748 -0.472017 0
M  V30 5 C 1.916640 -2.367772 -0.576518 0
M  V30 6 C 3.062699 -2.464811 -1.338550 0
M  V30 7 C 3.928090 -1.394871 -1.373742 0
M  V30 8 C 3.670420 -0.238058 -0.666057 0
M  V30 9 N 4.279059 0.942002 -0.488763 0
M  V30 10 N 3.567234 1.722680 0.324970 0
M  V30 11 C 2.453706 1.080358 0.717325 0
M  V30 12 C 1.451033 1.655226 1.615454 0
M  V30 13 C 1.841051 2.327642 2.763017 0
M  V30 14 C 0.957992 2.900607 3.665645 0
M  V30 15 N -0.372262 2.783960 3.388472 0
M  V30 16 C -0.788846 2.137433 2.282484 0
M  V30 17 N -2.196882 2.073700 2.089013 0
M  V30 18 C -3.077016 2.692894 3.063284 0
M  V30 19 C -3.854961 1.508927 3.622175 0
M  V30 20 O -4.543717 0.798892 2.707494 0
M  V30 21 C -4.178356 0.776710 1.413045 0
M  V30 22 C -2.915790 1.458699 1.022345 0
M  V30 23 C 0.092082 1.571230 1.391030 0
M  V30 24 C 2.512302 -0.155517 0.096695 0
M  V30 25 C 1.615452 -1.214113 0.156869 0
M  V30 26 H -1.195896 -4.593483 -1.158602 0
M  V30 27 H -0.347480 -4.622144 -2.801988 0
M  V30 28 H -0.409211 -6.064430 -1.755796 0
M  V30 29 H 1.817987 -4.877455 -1.700737 0
M  V30 30 H 0.179778 -5.370489 0.764262 0
M  V30 31 H 1.119985 -6.648484 -0.205331 0
M  V30 32 H 1.949132 -5.254164 0.701103 0
M  V30 33 H 3.269085 -3.380977 -1.900362 0
M  V30 34 H 4.825585 -1.435495 -1.953763 0
M  V30 35 H 5.191267 1.159917 -0.955792 0
M  V30 36 H 2.884901 2.426670 2.993066 0
M  V30 37 H 1.335703 3.410869 4.541560 0
M  V30 38 H -3.773427 3.371324 2.527188 0
M  V30 39 H -2.553559 3.188739 3.892658 0
M  V30 40 H -4.600613 1.971109 4.331561 0
M  V30 41 H -3.148213 0.850132 4.159353 0
M  V30 42 H -5.042143 1.131184 0.807081 0
M  V30 43 H -4.082991 -0.303441 1.116420 0
M  V30 44 H -3.180311 2.304394 0.319712 0
M  V30 45 H -2.255277 0.817545 0.402388 0
M  V30 46 H -0.234958 1.061286 0.518684 0
M  V30 47 H 0.720200 -1.129365 0.756358 0
M  V30 END ATOM
M  V30 BEGIN BOND
M  V30 1 1 1 2
M  V30 2 1 2 3
M  V30 3 1 2 4
M  V30 4 1 4 5
M  V30 5 2 5 6
M  V30 6 1 6 7
M  V30 7 2 7 8
M  V30 8 1 8 9
M  V30 9 1 9 10
M  V30 10 2 10 11
M  V30 11 1 11 12
M  V30 12 2 12 13
M  V30 13 1 13 14
M  V30 14 2 14 15
M  V30 15 1 15 16
M  V30 16 1 16 17
M  V30 17 1 17 18
M  V30 18 1 18 19
M  V30 19 1 19 20
M  V30 20 1 20 21
M  V30 21 1 21 22
M  V30 22 2 16 23
M  V30 23 1 11 24
M  V30 24 2 24 25
M  V30 25 1 25 5
M  V30 26 1 24 8
M  V30 27 1 23 12
M  V30 28 1 22 17
M  V30 29 1 1 26
M  V30 30 1 1 27
M  V30 31 1 1 28
M  V30 32 1 2 29
M  V30 33 1 3 30
M  V30 34 1 3 31
M  V30 35 1 3 32
M  V30 36 1 6 33
M  V30 37 1 7 34
M  V30 38 1 9 35
M  V30 39 1 13 36
M  V30 40 1 14 37
M  V30 41 1 18 38
M  V30 42 1 18 39
M  V30 43 1 19 40
M  V30 44 1 19 41
M  V30 45 1 21 42
M  V30 46 1 21 43
M  V30 47 1 22 44
M  V30 48 1 22 45
M  V30 49 1 23 46
M  V30 50 1 25 47
M  V30 END BOND
M  V30 END CTAB
M  END
>  <Dataset>  (528) 
ChEMBL_Kinases

>  <Ligand_Instance>  (528) 
nan

>  <PDB_ID>  (528) 
nan

>  <Standardized_SMILES>  (528) 
CC(C)Oc1ccc2[nH]nc(-c3ccnc(N4CCOCC4)c3)c2c1

>  <Name>  (528) 
nan

>  <Pocket>  (528) 
nan

>  <ATP_Site>  (528) 
nan

>  <Peripheral>  (528) 
nan

>  <Num_H_Atoms_ProtBoundConf>  (528) 
nan

>  <Num_Resolved_Atoms>  (528) 
nan

>  <Num_Not_Resolved_Atoms>  (528) 
nan

$$$$
CHEMBL4799349
     RDKit          3D

  0  0  0  0  0  0  0  0  0  0999 V3000
M  V30 BEGIN CTAB
M  V30 COUNTS 44 47 0 0 0
M  V30 BEGIN ATOM
M  V30 1 C 0.728476 -8.174867 -2.375460 0
M  V30 2 N 0.749173 -6.807862 -1.961562 0
M  V30 3 C 1.074947 -5.771628 -2.857668 0
M  V30 4 O 1.306800 -6.342107 -3.967546 0
M  V30 5 C 1.189957 -4.336636 -2.788204 0
M  V30 6 N 1.540833 -3.702184 -3.924741 0
M  V30 7 N 1.602281 -2.388493 -3.690870 0
M  V30 8 C 1.302929 -2.086600 -2.417710 0
M  V30 9 C 1.207916 -0.951911 -1.639749 0
M  V30 10 C 0.854908 -1.068267 -0.308555 0
M  V30 11 C 0.748700 0.122857 0.533060 0
M  V30 12 C -0.364306 0.194631 1.350505 0
M  V30 13 C -0.602698 1.275009 2.212366 0
M  V30 14 C 0.321348 2.299963 2.233074 0
M  V30 15 C 0.054073 3.412695 3.135847 0
M  V30 16 C 0.856708 4.518894 3.293154 0
M  V30 17 C 0.550462 5.544278 4.166678 0
M  V30 18 C -0.594848 5.501545 4.932694 0
M  V30 19 C -1.374976 4.378098 4.748667 0
M  V30 20 C -2.648427 4.193586 5.511971 0
M  V30 21 N -1.063631 3.370211 3.882895 0
M  V30 22 C 1.435387 2.238859 1.421790 0
M  V30 23 C 1.654117 1.168104 0.579760 0
M  V30 24 Cl 3.045800 1.051579 -0.459643 0
M  V30 25 C 0.604808 -2.326582 0.211369 0
M  V30 26 C 0.696250 -3.467012 -0.554768 0
M  V30 27 C 1.048064 -3.326115 -1.872479 0
M  V30 28 H 1.732276 -8.594546 -2.293997 0
M  V30 29 H 0.345497 -8.254648 -3.426507 0
M  V30 30 H 0.059373 -8.746242 -1.681553 0
M  V30 31 H 0.536486 -6.460556 -1.005909 0
M  V30 32 H 1.854519 -1.695978 -4.422738 0
M  V30 33 H 1.414511 -0.017125 -2.106836 0
M  V30 34 H -1.113811 -0.613090 1.348944 0
M  V30 35 H -1.506738 1.260894 2.829640 0
M  V30 36 H 1.755067 4.576908 2.708106 0
M  V30 37 H 1.210112 6.406375 4.265643 0
M  V30 38 H -0.878219 6.275038 5.627919 0
M  V30 39 H -2.879538 5.079778 6.122261 0
M  V30 40 H -3.457384 4.041203 4.773869 0
M  V30 41 H -2.584270 3.302727 6.156790 0
M  V30 42 H 2.160507 3.039534 1.435693 0
M  V30 43 H 0.327523 -2.383994 1.269262 0
M  V30 44 H 0.496926 -4.407138 -0.117873 0
M  V30 END ATOM
M  V30 BEGIN BOND
M  V30 1 1 1 2
M  V30 2 1 2 3
M  V30 3 2 3 4
M  V30 4 1 3 5
M  V30 5 2 5 6
M  V30 6 1 6 7
M  V30 7 1 7 8
M  V30 8 2 8 9
M  V30 9 1 9 10
M  V30 10 1 10 11
M  V30 11 2 11 12
M  V30 12 1 12 13
M  V30 13 2 13 14
M  V30 14 1 14 15
M  V30 15 2 15 16
M  V30 16 1 16 17
M  V30 17 2 17 18
M  V30 18 1 18 19
M  V30 19 1 19 20
M  V30 20 2 19 21
M  V30 21 1 14 22
M  V30 22 2 22 23
M  V30 23 1 23 24
M  V30 24 2 10 25
M  V30 25 1 25 26
M  V30 26 2 26 27
M  V30 27 1 27 5
M  V30 28 1 27 8
M  V30 29 1 23 11
M  V30 30 1 21 15
M  V30 31 1 1 28
M  V30 32 1 1 29
M  V30 33 1 1 30
M  V30 34 1 2 31
M  V30 35 1 7 32
M  V30 36 1 9 33
M  V30 37 1 12 34
M  V30 38 1 13 35
M  V30 39 1 16 36
M  V30 40 1 17 37
M  V30 41 1 18 38
M  V30 42 1 20 39
M  V30 43 1 20 40
M  V30 44 1 20 41
M  V30 45 1 22 42
M  V30 46 1 25 43
M  V30 47 1 26 44
M  V30 END BOND
M  V30 END CTAB
M  END
>  <Dataset>  (529) 
ChEMBL_Kinases

>  <Ligand_Instance>  (529) 
nan

>  <PDB_ID>  (529) 
nan

>  <Standardized_SMILES>  (529) 
CNC(=O)c1n[nH]c2cc(-c3ccc(-c4cccc(C)n4)cc3Cl)ccc12

>  <Name>  (529) 
nan

>  <Pocket>  (529) 
nan

>  <ATP_Site>  (529) 
nan

>  <Peripheral>  (529) 
nan

>  <Num_H_Atoms_ProtBoundConf>  (529) 
nan

>  <Num_Resolved_Atoms>  (529) 
nan

>  <Num_Not_Resolved_Atoms>  (529) 
nan

$$$$
CHEMBL4100799
     RDKit          3D

  0  0  0  0  0  0  0  0  0  0999 V3000
M  V30 BEGIN CTAB
M  V30 COUNTS 53 57 0 0 0
M  V30 BEGIN ATOM
M  V30 1 F 3.700606 -0.440215 2.037218 0
M  V30 2 C 4.481394 -0.825922 1.011698 0
M  V30 3 C 5.709433 -1.325926 1.342690 0
M  V30 4 C 6.558279 -1.738544 0.350832 0
M  V30 5 C 6.124346 -1.626706 -0.946920 0
M  V30 6 Cl 7.202126 -2.150732 -2.209722 0
M  V30 7 C 4.873435 -1.114995 -1.239564 0
M  V30 8 C 3.997061 -0.691392 -0.259805 0
M  V30 9 C 2.712713 -0.172896 -0.686125 0
M  V30 10 C 1.691222 0.301831 0.094329 0
M  V30 11 C 0.489891 0.782826 -0.378812 0
M  V30 12 N -0.505705 1.248996 0.520230 0
M  V30 13 C -0.824648 1.286265 1.891589 0
M  V30 14 C -0.795549 2.581156 2.446222 0
M  V30 15 C -1.067181 2.903354 3.772548 0
M  V30 16 N -1.375855 1.843610 4.529727 0
M  V30 17 C -1.434366 0.579084 4.108557 0
M  V30 18 C -1.727845 -0.658018 4.634351 0
M  V30 19 N -1.623071 -1.568185 3.657719 0
M  V30 20 N -1.270173 -0.988107 2.497459 0
M  V30 21 C -1.153814 -1.839074 1.344555 0
M  V30 22 C -2.489593 -2.004471 0.665462 0
M  V30 23 C -3.115182 -0.744451 0.174215 0
M  V30 24 C -4.421949 -1.093113 -0.503952 0
M  V30 25 N -4.775551 -2.438010 -0.168003 0
M  V30 26 C -3.865854 -3.416975 -0.734190 0
M  V30 27 C -2.431964 -2.986350 -0.481446 0
M  V30 28 C -1.158995 0.308847 2.791800 0
M  V30 29 C 0.262828 0.803538 -1.731672 0
M  V30 30 C 1.293879 0.325569 -2.497426 0
M  V30 31 N 2.455280 -0.137461 -2.003528 0
M  V30 32 H 6.034625 -1.407183 2.361126 0
M  V30 33 H 7.528274 -2.134121 0.599939 0
M  V30 34 H 4.632889 -1.072324 -2.310990 0
M  V30 35 H 1.818427 0.306887 1.151889 0
M  V30 36 H -1.326965 1.744873 0.057834 0
M  V30 37 H -0.542584 3.460888 1.829529 0
M  V30 38 H -1.028268 3.899922 4.131028 0
M  V30 39 H -1.996343 -0.837504 5.671142 0
M  V30 40 H -0.832213 -2.872863 1.627454 0
M  V30 41 H -0.447738 -1.519564 0.585849 0
M  V30 42 H -3.197125 -2.476365 1.410197 0
M  V30 43 H -3.246976 0.024199 0.961014 0
M  V30 44 H -2.462103 -0.341050 -0.654160 0
M  V30 45 H -5.203545 -0.421557 -0.052932 0
M  V30 46 H -4.398998 -0.921726 -1.611035 0
M  V30 47 H -5.759942 -2.692028 -0.267211 0
M  V30 48 H -4.083477 -4.388063 -0.249867 0
M  V30 49 H -4.055721 -3.484884 -1.844573 0
M  V30 50 H -1.819730 -3.862457 -0.184062 0
M  V30 51 H -2.051662 -2.508415 -1.410633 0
M  V30 52 H -0.650417 1.164179 -2.182124 0
M  V30 53 H 1.160461 0.321640 -3.581848 0
M  V30 END ATOM
M  V30 BEGIN BOND
M  V30 1 1 1 2
M  V30 2 2 2 3
M  V30 3 1 3 4
M  V30 4 2 4 5
M  V30 5 1 5 6
M  V30 6 1 5 7
M  V30 7 2 7 8
M  V30 8 1 8 9
M  V30 9 2 9 10
M  V30 10 1 10 11
M  V30 11 1 11 12
M  V30 12 1 12 13
M  V30 13 2 13 14
M  V30 14 1 14 15
M  V30 15 2 15 16
M  V30 16 1 16 17
M  V30 17 1 17 18
M  V30 18 2 18 19
M  V30 19 1 19 20
M  V30 20 1 20 21
M  V30 21 1 21 22
M  V30 22 1 22 23
M  V30 23 1 23 24
M  V30 24 1 24 25
M  V30 25 1 25 26
M  V30 26 1 26 27
M  V30 27 1 20 28
M  V30 28 2 11 29
M  V30 29 1 29 30
M  V30 30 2 30 31
M  V30 31 1 8 2
M  V30 32 1 31 9
M  V30 33 1 28 13
M  V30 34 2 28 17
M  V30 35 1 27 22
M  V30 36 1 3 32
M  V30 37 1 4 33
M  V30 38 1 7 34
M  V30 39 1 10 35
M  V30 40 1 12 36
M  V30 41 1 14 37
M  V30 42 1 15 38
M  V30 43 1 18 39
M  V30 44 1 21 40
M  V30 45 1 21 41
M  V30 46 1 22 42
M  V30 47 1 23 43
M  V30 48 1 23 44
M  V30 49 1 24 45
M  V30 50 1 24 46
M  V30 51 1 25 47
M  V30 52 1 26 48
M  V30 53 1 26 49
M  V30 54 1 27 50
M  V30 55 1 27 51
M  V30 56 1 29 52
M  V30 57 1 30 53
M  V30 END BOND
M  V30 END CTAB
M  END
>  <Dataset>  (530) 
ChEMBL_Kinases

>  <Ligand_Instance>  (530) 
nan

>  <PDB_ID>  (530) 
nan

>  <Standardized_SMILES>  (530) 
Fc1ccc(Cl)cc1-c1cc(Nc2ccnc3cnn(CC4CCNCC4)c23)ccn1

>  <Name>  (530) 
nan

>  <Pocket>  (530) 
nan

>  <ATP_Site>  (530) 
nan

>  <Peripheral>  (530) 
nan

>  <Num_H_Atoms_ProtBoundConf>  (530) 
nan

>  <Num_Resolved_Atoms>  (530) 
nan

>  <Num_Not_Resolved_Atoms>  (530) 
nan

$$$$
CHEMBL4799364
     RDKit          3D

  0  0  0  0  0  0  0  0  0  0999 V3000
M  V30 BEGIN CTAB
M  V30 COUNTS 45 47 0 0 0
M  V30 BEGIN ATOM
M  V30 1 C -1.380323 -5.558841 2.379273 0
M  V30 2 C -1.144738 -4.873796 1.065277 0
M  V30 3 C -0.198242 -3.884465 0.846717 0
M  V30 4 C -0.323740 -3.535869 -0.501601 0
M  V30 5 N 0.526063 -2.528288 -1.040315 0
M  V30 6 C 0.252900 -1.119520 -1.080013 0
M  V30 7 O -0.850358 -0.858864 -0.573379 0
M  V30 8 N 1.193837 -0.222445 -1.649627 0
M  V30 9 C 0.711069 1.133332 -1.580493 0
M  V30 10 C -0.041383 1.752116 -2.543063 0
M  V30 11 C -0.404718 3.073971 -2.275054 0
M  V30 12 C -0.007782 3.690721 -1.091692 0
M  V30 13 C 0.751674 3.009099 -0.161046 0
M  V30 14 C 1.168027 3.661526 1.084158 0
M  V30 15 N 1.340959 4.954393 1.346306 0
M  V30 16 N 1.728178 5.101970 2.618955 0
M  V30 17 C 1.797280 3.869095 3.160340 0
M  V30 18 N 1.448601 2.974694 2.204412 0
M  V30 19 C 1.437806 1.576485 2.516904 0
M  V30 20 C 0.881246 1.296785 3.911569 0
M  V30 21 C 2.907722 1.147800 2.553650 0
M  V30 22 N 1.088029 1.747521 -0.436292 0
M  V30 23 N -1.301925 -4.293957 -1.034635 0
M  V30 24 N -1.799193 -5.102489 -0.090863 0
M  V30 25 C -2.865477 -6.071667 -0.261878 0
M  V30 26 H -2.414131 -5.971499 2.369026 0
M  V30 27 H -0.636576 -6.384389 2.513487 0
M  V30 28 H -1.220102 -4.864926 3.243962 0
M  V30 29 H 0.479647 -3.492893 1.600215 0
M  V30 30 H 1.456147 -2.817765 -1.458865 0
M  V30 31 H 2.111025 -0.550168 -2.057173 0
M  V30 32 H -0.291822 1.186125 -3.416366 0
M  V30 33 H -1.003621 3.553178 -3.050739 0
M  V30 34 H -0.322030 4.716095 -0.944336 0
M  V30 35 H 2.104713 3.849432 4.204944 0
M  V30 36 H 0.932586 0.927892 1.794964 0
M  V30 37 H 1.337656 0.332360 4.265188 0
M  V30 38 H 1.186636 2.075580 4.622888 0
M  V30 39 H -0.211440 1.110166 3.872384 0
M  V30 40 H 3.289261 1.021579 1.520451 0
M  V30 41 H 3.512595 1.884108 3.152587 0
M  V30 42 H 3.011564 0.175616 3.068271 0
M  V30 43 H -3.652171 -6.004339 0.503880 0
M  V30 44 H -3.320203 -5.958973 -1.271791 0
M  V30 45 H -2.436407 -7.099490 -0.180442 0
M  V30 END ATOM
M  V30 BEGIN BOND
M  V30 1 1 1 2
M  V30 2 2 2 3
M  V30 3 1 3 4
M  V30 4 1 4 5
M  V30 5 1 5 6
M  V30 6 2 6 7
M  V30 7 1 6 8
M  V30 8 1 8 9
M  V30 9 2 9 10
M  V30 10 1 10 11
M  V30 11 2 11 12
M  V30 12 1 12 13
M  V30 13 1 13 14
M  V30 14 2 14 15
M  V30 15 1 15 16
M  V30 16 2 16 17
M  V30 17 1 17 18
M  V30 18 1 18 19
M  V30 19 1 19 20
M  V30 20 1 19 21
M  V30 21 2 13 22
M  V30 22 2 4 23
M  V30 23 1 23 24
M  V30 24 1 24 25
M  V30 25 1 24 2
M  V30 26 1 22 9
M  V30 27 1 18 14
M  V30 28 1 1 26
M  V30 29 1 1 27
M  V30 30 1 1 28
M  V30 31 1 3 29
M  V30 32 1 5 30
M  V30 33 1 8 31
M  V30 34 1 10 32
M  V30 35 1 11 33
M  V30 36 1 12 34
M  V30 37 1 17 35
M  V30 38 1 19 36
M  V30 39 1 20 37
M  V30 40 1 20 38
M  V30 41 1 20 39
M  V30 42 1 21 40
M  V30 43 1 21 41
M  V30 44 1 21 42
M  V30 45 1 25 43
M  V30 46 1 25 44
M  V30 47 1 25 45
M  V30 END BOND
M  V30 END CTAB
M  END
>  <Dataset>  (531) 
ChEMBL_Kinases

>  <Ligand_Instance>  (531) 
nan

>  <PDB_ID>  (531) 
nan

>  <Standardized_SMILES>  (531) 
Cc1cc(NC(=O)Nc2cccc(-c3nncn3C(C)C)n2)nn1C

>  <Name>  (531) 
nan

>  <Pocket>  (531) 
nan

>  <ATP_Site>  (531) 
nan

>  <Peripheral>  (531) 
nan

>  <Num_H_Atoms_ProtBoundConf>  (531) 
nan

>  <Num_Resolved_Atoms>  (531) 
nan

>  <Num_Not_Resolved_Atoms>  (531) 
nan

$$$$
CHEMBL4100776
     RDKit          3D

  0  0  0  0  0  0  0  0  0  0999 V3000
M  V30 BEGIN CTAB
M  V30 COUNTS 48 51 0 0 0
M  V30 BEGIN ATOM
M  V30 1 C 1.549121 -4.711943 0.674502 0
M  V30 2 C 2.369260 -3.727880 1.442090 0 CFG=2
M  V30 3 N 1.672353 -3.314794 2.645945 0
M  V30 4 C 2.488335 -2.477633 3.483414 0
M  V30 5 C 3.162057 -1.355439 2.777641 0
M  V30 6 C 3.582405 -1.650264 1.365572 0
M  V30 7 C 2.517632 -2.449922 0.613689 0 CFG=2
M  V30 8 N 1.260961 -1.738935 0.589968 0
M  V30 9 C 1.149515 -0.511905 -0.122499 0
M  V30 10 N 2.230412 -0.054957 -0.754204 0
M  V30 11 C 2.343042 1.059218 -1.470902 0
M  V30 12 C 1.202553 1.813029 -1.558618 0
M  V30 13 C 1.126427 3.061560 -2.295677 0
M  V30 14 N -0.085144 3.803146 -2.352459 0
M  V30 15 O 2.203771 3.395663 -2.851496 0
M  V30 16 C 0.035960 1.353997 -0.897673 0
M  V30 17 S -1.626941 2.056983 -0.783868 0
M  V30 18 C -2.277502 0.766004 0.216318 0
M  V30 19 C -3.664526 0.716450 0.699289 0
M  V30 20 C -4.482615 1.767009 0.325200 0
M  V30 21 C -5.799472 1.731476 0.776676 0
M  V30 22 C -6.193893 0.660012 1.559260 0
M  V30 23 C -5.339498 -0.362826 1.904585 0
M  V30 24 C -4.029410 -0.343284 1.465076 0
M  V30 25 C -1.242468 -0.084269 0.397346 0
M  V30 26 C -0.039756 0.181706 -0.157557 0
M  V30 27 H 1.560639 -4.462098 -0.419513 0
M  V30 28 H 2.014400 -5.714020 0.797645 0
M  V30 29 H 0.477759 -4.749075 0.954854 0
M  V30 30 H 3.364274 -4.109878 1.762125 0
M  V30 31 H 1.448448 -4.174744 3.207786 0
M  V30 32 H 1.810558 -2.031634 4.244783 0
M  V30 33 H 3.191247 -3.129174 4.061307 0
M  V30 34 H 2.564028 -0.406461 2.777751 0
M  V30 35 H 4.092913 -1.106266 3.344922 0
M  V30 36 H 4.499198 -2.276251 1.355712 0
M  V30 37 H 3.835386 -0.710917 0.876148 0
M  V30 38 H 2.928222 -2.648920 -0.379549 0
M  V30 39 H 0.406231 -2.109977 1.095398 0
M  V30 40 H 3.210620 1.412943 -1.969970 0
M  V30 41 H 0.068933 4.422177 -1.526885 0
M  V30 42 H -0.505357 4.585513 -1.769704 0
M  V30 43 H -4.163124 2.599294 -0.286967 0
M  V30 44 H -6.501035 2.516231 0.526760 0
M  V30 45 H -7.230204 0.656239 1.899800 0
M  V30 46 H -5.658093 -1.198455 2.518505 0
M  V30 47 H -3.346428 -1.138964 1.727732 0
M  V30 48 H -1.437169 -0.974978 1.004470 0
M  V30 END ATOM
M  V30 BEGIN BOND
M  V30 1 1 1 2
M  V30 2 1 2 3
M  V30 3 1 3 4
M  V30 4 1 4 5
M  V30 5 1 5 6
M  V30 6 1 6 7
M  V30 7 1 7 8
M  V30 8 1 8 9
M  V30 9 2 9 10
M  V30 10 1 10 11
M  V30 11 2 11 12
M  V30 12 1 12 13
M  V30 13 1 13 14
M  V30 14 2 13 15
M  V30 15 1 12 16
M  V30 16 1 16 17
M  V30 17 1 17 18
M  V30 18 1 18 19
M  V30 19 2 19 20
M  V30 20 1 20 21
M  V30 21 2 21 22
M  V30 22 1 22 23
M  V30 23 2 23 24
M  V30 24 2 18 25
M  V30 25 1 25 26
M  V30 26 1 7 2
M  V30 27 1 26 9
M  V30 28 2 26 16
M  V30 29 1 24 19
M  V30 30 1 1 27
M  V30 31 1 1 28
M  V30 32 1 1 29
M  V30 33 1 2 30 CFG=1
M  V30 34 1 3 31
M  V30 35 1 4 32
M  V30 36 1 4 33
M  V30 37 1 5 34
M  V30 38 1 5 35
M  V30 39 1 6 36
M  V30 40 1 6 37
M  V30 41 1 7 38 CFG=3
M  V30 42 1 8 39
M  V30 43 1 11 40
M  V30 44 1 14 41
M  V30 45 1 14 42
M  V30 46 1 20 43
M  V30 47 1 21 44
M  V30 48 1 22 45
M  V30 49 1 23 46
M  V30 50 1 24 47
M  V30 51 1 25 48
M  V30 END BOND
M  V30 END CTAB
M  END
>  <Dataset>  (532) 
ChEMBL_Kinases

>  <Ligand_Instance>  (532) 
nan

>  <PDB_ID>  (532) 
nan

>  <Standardized_SMILES>  (532) 
C[C@@H]1NCCC[C@@H]1Nc1ncc(C(N)=O)c2sc(-c3ccccc3)cc12

>  <Name>  (532) 
nan

>  <Pocket>  (532) 
nan

>  <ATP_Site>  (532) 
nan

>  <Peripheral>  (532) 
nan

>  <Num_H_Atoms_ProtBoundConf>  (532) 
nan

>  <Num_Resolved_Atoms>  (532) 
nan

>  <Num_Not_Resolved_Atoms>  (532) 
nan

$$$$
CHEMBL4100748
     RDKit          3D

  0  0  0  0  0  0  0  0  0  0999 V3000
M  V30 BEGIN CTAB
M  V30 COUNTS 63 67 0 0 0
M  V30 BEGIN ATOM
M  V30 1 C 3.109698 -2.222523 -2.045698 0
M  V30 2 C 3.609600 -1.142706 -1.127969 0
M  V30 3 C 5.002238 -1.099590 -1.018912 0
M  V30 4 C 5.553972 -0.142323 -0.199440 0
M  V30 5 C 4.697882 0.716099 0.464074 0
M  V30 6 C 3.330467 0.712262 0.388760 0
M  V30 7 C 2.849377 -0.242323 -0.424838 0
M  V30 8 C 2.830630 1.756706 1.224954 0
M  V30 9 C 1.588395 2.038026 1.397272 0
M  V30 10 N 1.143605 3.087662 2.239870 0
M  V30 11 C -0.277216 3.200200 2.269499 0
M  V30 12 C -1.102575 4.073838 2.951175 0
M  V30 13 C -2.458365 3.919145 2.764636 0
M  V30 14 C -2.986511 2.946443 1.942231 0
M  V30 15 C -2.095373 2.118432 1.301004 0
M  V30 16 C -0.724638 2.187427 1.417735 0
M  V30 17 C 0.392054 1.456091 0.866325 0
M  V30 18 N 0.189967 0.530007 0.097544 0
M  V30 19 O -0.916450 -0.037526 -0.417507 0
M  V30 20 C -1.428681 0.196126 -1.693617 0
M  V30 21 C -1.950806 -0.965693 -2.453048 0
M  V30 22 O -2.967227 -1.705045 -1.979070 0
M  V30 23 C -2.713318 -2.351470 -0.816999 0 CFG=2
M  V30 24 O -2.701129 -3.761768 -0.987198 0
M  V30 25 C -1.975235 -4.281514 0.078057 0 CFG=2
M  V30 26 C -1.924316 -5.797877 -0.021415 0
M  V30 27 O -1.187704 -6.296918 1.061666 0
M  V30 28 C -2.495603 -3.929993 1.429259 0 CFG=1
M  V30 29 O -1.433995 -4.088055 2.344665 0
M  V30 30 C -3.014844 -2.520491 1.567148 0 CFG=2
M  V30 31 O -3.932375 -2.437674 2.597958 0
M  V30 32 C -3.726849 -2.121489 0.287505 0 CFG=1
M  V30 33 O -4.091876 -0.795307 0.277607 0
M  V30 34 C 3.986017 2.406151 1.821993 0
M  V30 35 O 4.012787 3.359619 2.610347 0
M  V30 36 N 5.158412 1.757363 1.348002 0
M  V30 37 H 3.853436 -2.500071 -2.794927 0
M  V30 38 H 2.221903 -1.850448 -2.598439 0
M  V30 39 H 2.813930 -3.121617 -1.483287 0
M  V30 40 H 5.648164 -1.778967 -1.545876 0
M  V30 41 H 6.622300 -0.116971 -0.122345 0
M  V30 42 H 1.854203 -0.447886 -0.649142 0
M  V30 43 H 1.750062 3.724695 2.789577 0
M  V30 44 H -0.699554 4.839434 3.598177 0
M  V30 45 H -3.074991 4.617736 3.311714 0
M  V30 46 H -4.056281 2.874012 1.835449 0
M  V30 47 H -2.562990 1.386021 0.679313 0
M  V30 48 H -0.628555 0.654579 -2.363795 0
M  V30 49 H -2.248963 0.954632 -1.626057 0
M  V30 50 H -2.259918 -0.550302 -3.465260 0
M  V30 51 H -1.072570 -1.638721 -2.742673 0
M  V30 52 H -1.712503 -2.133676 -0.418916 0
M  V30 53 H -0.931118 -3.869313 -0.049160 0
M  V30 54 H -2.932699 -6.213885 0.016642 0
M  V30 55 H -1.445642 -6.132370 -0.967239 0
M  V30 56 H -0.489486 -6.887409 0.736370 0
M  V30 57 H -3.259901 -4.697120 1.715193 0
M  V30 58 H -0.632001 -3.724635 1.857748 0
M  V30 59 H -2.142562 -1.859819 1.665959 0
M  V30 60 H -4.087754 -1.477161 2.802930 0
M  V30 61 H -4.618221 -2.779462 0.117738 0
M  V30 62 H -5.060293 -0.751152 0.535479 0
M  V30 63 H 6.146526 2.025994 1.621546 0
M  V30 END ATOM
M  V30 BEGIN BOND
M  V30 1 1 1 2
M  V30 2 2 2 3
M  V30 3 1 3 4
M  V30 4 2 4 5
M  V30 5 1 5 6
M  V30 6 2 6 7
M  V30 7 1 6 8
M  V30 8 2 8 9
M  V30 9 1 9 10
M  V30 10 1 10 11
M  V30 11 2 11 12
M  V30 12 1 12 13
M  V30 13 2 13 14
M  V30 14 1 14 15
M  V30 15 2 15 16
M  V30 16 1 16 17
M  V30 17 2 17 18
M  V30 18 1 18 19
M  V30 19 1 19 20
M  V30 20 1 20 21
M  V30 21 1 21 22
M  V30 22 1 22 23
M  V30 23 1 23 24
M  V30 24 1 24 25
M  V30 25 1 25 26
M  V30 26 1 26 27
M  V30 27 1 25 28
M  V30 28 1 28 29
M  V30 29 1 28 30
M  V30 30 1 30 31
M  V30 31 1 30 32
M  V30 32 1 32 33
M  V30 33 1 8 34
M  V30 34 2 34 35
M  V30 35 1 34 36
M  V30 36 1 7 2
M  V30 37 1 17 9
M  V30 38 1 32 23
M  V30 39 1 36 5
M  V30 40 1 16 11
M  V30 41 1 1 37
M  V30 42 1 1 38
M  V30 43 1 1 39
M  V30 44 1 3 40
M  V30 45 1 4 41
M  V30 46 1 7 42
M  V30 47 1 10 43
M  V30 48 1 12 44
M  V30 49 1 13 45
M  V30 50 1 14 46
M  V30 51 1 15 47
M  V30 52 1 20 48
M  V30 53 1 20 49
M  V30 54 1 21 50
M  V30 55 1 21 51
M  V30 56 1 23 52 CFG=1
M  V30 57 1 25 53 CFG=1
M  V30 58 1 26 54
M  V30 59 1 26 55
M  V30 60 1 27 56
M  V30 61 1 28 57 CFG=1
M  V30 62 1 29 58
M  V30 63 1 30 59 CFG=1
M  V30 64 1 31 60
M  V30 65 1 32 61 CFG=3
M  V30 66 1 33 62
M  V30 67 1 36 63
M  V30 END BOND
M  V30 END CTAB
M  END
>  <Dataset>  (533) 
ChEMBL_Kinases

>  <Ligand_Instance>  (533) 
nan

>  <PDB_ID>  (533) 
nan

>  <Standardized_SMILES>  (533) 
Cc1ccc2c(c1)/C(=C1/Nc3ccccc3/C1=N\OCCO[C@@H]1O[C@H](CO)[C@@H](O)[C@H](O)[C@H]1O)C(=O)N2

>  <Name>  (533) 
nan

>  <Pocket>  (533) 
nan

>  <ATP_Site>  (533) 
nan

>  <Peripheral>  (533) 
nan

>  <Num_H_Atoms_ProtBoundConf>  (533) 
nan

>  <Num_Resolved_Atoms>  (533) 
nan

>  <Num_Not_Resolved_Atoms>  (533) 
nan

$$$$
CHEMBL4799386
     RDKit          3D

  0  0  0  0  0  0  0  0  0  0999 V3000
M  V30 BEGIN CTAB
M  V30 COUNTS 46 49 0 0 0
M  V30 BEGIN ATOM
M  V30 1 N -3.483761 -6.514199 -0.352512 0
M  V30 2 C -2.416329 -6.367899 -0.829900 0
M  V30 3 N -1.141492 -6.191277 -1.385503 0
M  V30 4 C -0.118436 -7.133568 -1.042233 0
M  V30 5 C 1.231418 -6.498247 -1.101354 0
M  V30 6 C 1.096209 -5.027887 -1.113688 0
M  V30 7 C 0.204153 -4.200764 -1.633195 0
M  V30 8 C 0.214222 -2.749777 -1.559473 0
M  V30 9 C -0.838913 -2.058027 -2.171346 0
M  V30 10 C -0.690725 -0.679114 -2.042708 0
M  V30 11 C 0.355296 -0.071866 -1.398663 0
M  V30 12 C 0.668408 1.359851 -1.172112 0
M  V30 13 C 0.102756 1.854281 0.130209 0
M  V30 14 O -1.070856 2.055761 0.534857 0
M  V30 15 N 1.021120 2.191536 1.196794 0
M  V30 16 C 0.694527 2.674153 2.485714 0
M  V30 17 C 0.585370 3.899855 3.077088 0
M  V30 18 C 0.205319 3.642536 4.368650 0
M  V30 19 C -0.019878 4.653748 5.410784 0
M  V30 20 C -0.071985 6.121676 5.017336 0
M  V30 21 C 1.118859 5.558736 5.750953 0
M  V30 22 N 0.091018 2.305777 4.536282 0
M  V30 23 N 0.390544 1.689500 3.381235 0
M  V30 24 C 1.367244 -0.852510 -0.814784 0
M  V30 25 N 1.259965 -2.220314 -0.917482 0
M  V30 26 C -0.791427 -5.105807 -2.282257 0
M  V30 27 H -0.101796 -7.934541 -1.854242 0
M  V30 28 H -0.321503 -7.619088 -0.060287 0
M  V30 29 H 1.847719 -6.776250 -0.203442 0
M  V30 30 H 1.815518 -6.784299 -2.013728 0
M  V30 31 H 1.904215 -4.463532 -0.586502 0
M  V30 32 H -1.657684 -2.482297 -2.675123 0
M  V30 33 H -1.385168 0.021434 -2.444489 0
M  V30 34 H 0.202228 1.997658 -1.971790 0
M  V30 35 H 1.723136 1.607700 -1.182978 0
M  V30 36 H 2.074473 2.091706 1.061118 0
M  V30 37 H 0.780552 4.795887 2.541994 0
M  V30 38 H -0.629311 4.371229 6.312708 0
M  V30 39 H 0.091470 6.367084 3.936346 0
M  V30 40 H -0.740187 6.819618 5.533888 0
M  V30 41 H 1.251967 5.950505 6.778988 0
M  V30 42 H 2.064160 5.348440 5.254348 0
M  V30 43 H -0.187979 1.846842 5.435308 0
M  V30 44 H 2.253277 -0.506495 -0.276660 0
M  V30 45 H -1.730285 -4.587334 -2.538699 0
M  V30 46 H -0.329131 -5.446887 -3.231548 0
M  V30 END ATOM
M  V30 BEGIN BOND
M  V30 1 3 1 2
M  V30 2 1 2 3
M  V30 3 1 3 4
M  V30 4 1 4 5
M  V30 5 1 5 6
M  V30 6 2 6 7
M  V30 7 1 7 8
M  V30 8 2 8 9
M  V30 9 1 9 10
M  V30 10 2 10 11
M  V30 11 1 11 12
M  V30 12 1 12 13
M  V30 13 2 13 14
M  V30 14 1 13 15
M  V30 15 1 15 16
M  V30 16 1 16 17
M  V30 17 2 17 18
M  V30 18 1 18 19
M  V30 19 1 19 20
M  V30 20 1 20 21
M  V30 21 1 18 22
M  V30 22 1 22 23
M  V30 23 1 11 24
M  V30 24 2 24 25
M  V30 25 1 7 26
M  V30 26 1 26 3
M  V30 27 1 25 8
M  V30 28 2 23 16
M  V30 29 1 21 19
M  V30 30 1 4 27
M  V30 31 1 4 28
M  V30 32 1 5 29
M  V30 33 1 5 30
M  V30 34 1 6 31
M  V30 35 1 9 32
M  V30 36 1 10 33
M  V30 37 1 12 34
M  V30 38 1 12 35
M  V30 39 1 15 36
M  V30 40 1 17 37
M  V30 41 1 19 38
M  V30 42 1 20 39
M  V30 43 1 20 40
M  V30 44 1 21 41
M  V30 45 1 21 42
M  V30 46 1 22 43
M  V30 47 1 24 44
M  V30 48 1 26 45
M  V30 49 1 26 46
M  V30 END BOND
M  V30 END CTAB
M  END
>  <Dataset>  (534) 
ChEMBL_Kinases

>  <Ligand_Instance>  (534) 
nan

>  <PDB_ID>  (534) 
nan

>  <Standardized_SMILES>  (534) 
N#CN1CCC=C(c2ccc(CC(=O)Nc3cc(C4CC4)[nH]n3)cn2)C1

>  <Name>  (534) 
nan

>  <Pocket>  (534) 
nan

>  <ATP_Site>  (534) 
nan

>  <Peripheral>  (534) 
nan

>  <Num_H_Atoms_ProtBoundConf>  (534) 
nan

>  <Num_Resolved_Atoms>  (534) 
nan

>  <Num_Not_Resolved_Atoms>  (534) 
nan

$$$$
CHEMBL4100711
     RDKit          3D

  0  0  0  0  0  0  0  0  0  0999 V3000
M  V30 BEGIN CTAB
M  V30 COUNTS 47 50 0 0 0
M  V30 BEGIN ATOM
M  V30 1 O -0.158091 -5.916547 2.493129 0
M  V30 2 C 0.262330 -5.012247 1.731381 0
M  V30 3 N 1.004921 -5.257004 0.552396 0
M  V30 4 C 1.284614 -3.984807 -0.017274 0
M  V30 5 C 1.970763 -3.588265 -1.162224 0
M  V30 6 C 2.136992 -2.265787 -1.551045 0
M  V30 7 C 1.589865 -1.286664 -0.756225 0
M  V30 8 C 1.748294 0.105379 -1.141053 0
M  V30 9 O 2.363677 0.332670 -2.210806 0
M  V30 10 N 1.266360 1.205417 -0.407516 0
M  V30 11 C 1.402666 2.603682 -0.757263 0 CFG=2
M  V30 12 C 2.326754 3.335598 0.181437 0
M  V30 13 O 1.946084 3.335741 1.495154 0
M  V30 14 C 0.120010 3.267370 -0.966838 0
M  V30 15 C -0.935905 2.981178 -0.133988 0
M  V30 16 C -2.189467 3.542415 -0.230772 0
M  V30 17 C -2.381874 4.469899 -1.258786 0
M  V30 18 C -1.375221 4.828242 -2.155953 0
M  V30 19 C -0.167445 4.192209 -1.948302 0
M  V30 20 Cl 1.143869 4.610371 -3.058543 0
M  V30 21 C 0.894162 -1.636878 0.400035 0
M  V30 22 C 0.751970 -2.962212 0.750505 0
M  V30 23 C 0.087675 -3.590410 1.884232 0
M  V30 24 C -0.554726 -3.040826 2.899334 0
M  V30 25 C -1.196211 -3.675652 4.035740 0
M  V30 26 C -2.494934 -3.254599 4.349748 0
M  V30 27 C -2.988470 -3.908430 5.454783 0
M  V30 28 C -1.962285 -4.750224 5.823122 0
M  V30 29 N -0.931480 -4.593233 4.980106 0
M  V30 30 H 1.275344 -6.197183 0.199676 0
M  V30 31 H 2.396899 -4.363513 -1.781127 0
M  V30 32 H 2.676723 -2.020179 -2.444341 0
M  V30 33 H 0.751429 1.031694 0.487231 0
M  V30 34 H 1.947568 2.603084 -1.746065 0
M  V30 35 H 2.440326 4.398036 -0.159713 0
M  V30 36 H 3.332260 2.876997 0.085115 0
M  V30 37 H 2.740009 3.246597 2.091597 0
M  V30 38 H -0.862650 2.268723 0.689433 0
M  V30 39 H -3.024167 3.323867 0.418956 0
M  V30 40 H -3.371915 4.942171 -1.369528 0
M  V30 41 H -1.518685 5.539700 -2.948161 0
M  V30 42 H 0.449492 -0.899114 1.050132 0
M  V30 43 H -0.572618 -1.938035 2.818927 0
M  V30 44 H -3.150153 -2.510667 3.862058 0
M  V30 45 H -3.934608 -3.824109 5.954327 0
M  V30 46 H -1.942706 -5.441019 6.646400 0
M  V30 47 H -0.007357 -5.067707 4.992167 0
M  V30 END ATOM
M  V30 BEGIN BOND
M  V30 1 2 1 2
M  V30 2 1 2 3
M  V30 3 1 3 4
M  V30 4 2 4 5
M  V30 5 1 5 6
M  V30 6 2 6 7
M  V30 7 1 7 8
M  V30 8 2 8 9
M  V30 9 1 8 10
M  V30 10 1 10 11
M  V30 11 1 11 12
M  V30 12 1 12 13
M  V30 13 1 11 14
M  V30 14 2 14 15
M  V30 15 1 15 16
M  V30 16 2 16 17
M  V30 17 1 17 18
M  V30 18 2 18 19
M  V30 19 1 19 20
M  V30 20 1 7 21
M  V30 21 2 21 22
M  V30 22 1 22 23
M  V30 23 2 23 24
M  V30 24 1 24 25
M  V30 25 2 25 26
M  V30 26 1 26 27
M  V30 27 2 27 28
M  V30 28 1 28 29
M  V30 29 1 23 2
M  V30 30 1 29 25
M  V30 31 1 22 4
M  V30 32 1 19 14
M  V30 33 1 3 30
M  V30 34 1 5 31
M  V30 35 1 6 32
M  V30 36 1 10 33
M  V30 37 1 11 34 CFG=3
M  V30 38 1 12 35
M  V30 39 1 12 36
M  V30 40 1 13 37
M  V30 41 1 15 38
M  V30 42 1 16 39
M  V30 43 1 17 40
M  V30 44 1 18 41
M  V30 45 1 21 42
M  V30 46 1 24 43
M  V30 47 1 26 44
M  V30 48 1 27 45
M  V30 49 1 28 46
M  V30 50 1 29 47
M  V30 END BOND
M  V30 END CTAB
M  END
>  <Dataset>  (535) 
ChEMBL_Kinases

>  <Ligand_Instance>  (535) 
nan

>  <PDB_ID>  (535) 
nan

>  <Standardized_SMILES>  (535) 
O=C1Nc2ccc(C(=O)N[C@H](CO)c3ccccc3Cl)cc2/C1=C/c1ccc[nH]1

>  <Name>  (535) 
nan

>  <Pocket>  (535) 
nan

>  <ATP_Site>  (535) 
nan

>  <Peripheral>  (535) 
nan

>  <Num_H_Atoms_ProtBoundConf>  (535) 
nan

>  <Num_Resolved_Atoms>  (535) 
nan

>  <Num_Not_Resolved_Atoms>  (535) 
nan

$$$$
CHEMBL4799481
     RDKit          3D

  0  0  0  0  0  0  0  0  0  0999 V3000
M  V30 BEGIN CTAB
M  V30 COUNTS 54 57 0 0 0
M  V30 BEGIN ATOM
M  V30 1 C 10.861746 -3.046364 -0.811770 0
M  V30 2 C 10.306402 -2.428925 0.225753 0
M  V30 3 C 9.084528 -1.804592 0.769918 0
M  V30 4 O 8.766312 -1.241750 1.859210 0
M  V30 5 N 7.956035 -1.806328 -0.096885 0
M  V30 6 C 6.614230 -1.345713 -0.032584 0
M  V30 7 C 6.287396 -0.073086 -0.443739 0
M  V30 8 C 5.004257 0.431670 -0.405933 0
M  V30 9 C 4.003251 -0.382817 0.067961 0
M  V30 10 C 2.561702 -0.069495 0.202539 0
M  V30 11 O 1.657157 -0.853723 0.652635 0
M  V30 12 N 1.986796 1.194242 -0.168351 0
M  V30 13 C 0.574225 1.100247 0.113087 0
M  V30 14 C -0.030688 1.438975 1.307092 0
M  V30 15 C -1.397726 1.292755 1.426311 0
M  V30 16 C -2.106988 0.808983 0.334357 0
M  V30 17 N -3.517097 0.652276 0.440210 0
M  V30 18 C -4.678147 1.435786 0.196960 0
M  V30 19 O -4.563169 2.612375 -0.233182 0
M  V30 20 C -5.938803 0.764080 0.484100 0
M  V30 21 C -7.066628 1.520319 0.248252 0
M  V30 22 C -8.326249 0.964557 0.493142 0
M  V30 23 C -8.415868 -0.344532 0.971391 0
M  V30 24 C -7.261083 -1.058427 1.190972 0
M  V30 25 C -7.270661 -2.428404 1.689306 0
M  V30 26 C -8.406810 -3.161935 1.995177 0
M  V30 27 C -7.918629 -4.397198 2.427930 0
M  V30 28 N -6.563998 -4.353816 2.365685 0
M  V30 29 N -6.170797 -3.163054 1.918906 0
M  V30 30 N -6.060450 -0.503033 0.948232 0
M  V30 31 C -1.498676 0.467085 -0.869877 0
M  V30 32 C -0.120059 0.617056 -0.983059 0
M  V30 33 C 4.306868 -1.674105 0.490031 0
M  V30 34 C 5.593521 -2.131161 0.434062 0
M  V30 35 H 9.834393 -2.789035 -0.988105 0
M  V30 36 H 10.431516 -3.312612 -1.771574 0
M  V30 37 H 11.047850 -2.327191 1.033715 0
M  V30 38 H 7.886252 -2.198115 -1.077358 0
M  V30 39 H 7.047423 0.588776 -0.819476 0
M  V30 40 H 4.667675 1.395050 -0.701674 0
M  V30 41 H 2.643758 1.932928 -0.558456 0
M  V30 42 H 0.631666 1.801593 2.074688 0
M  V30 43 H -1.862512 1.558971 2.360432 0
M  V30 44 H -3.545693 -0.330546 0.797200 0
M  V30 45 H -7.029608 2.521102 -0.116316 0
M  V30 46 H -9.247277 1.516658 0.324246 0
M  V30 47 H -9.367270 -0.810632 1.173130 0
M  V30 48 H -9.443709 -2.833829 1.911304 0
M  V30 49 H -8.543383 -5.236781 2.754920 0
M  V30 50 H -5.167329 -2.946253 1.805578 0
M  V30 51 H -2.097836 0.089498 -1.704401 0
M  V30 52 H 0.290102 0.340275 -1.926257 0
M  V30 53 H 3.576638 -2.379948 0.876861 0
M  V30 54 H 5.886403 -3.135306 0.752402 0
M  V30 END ATOM
M  V30 BEGIN BOND
M  V30 1 2 1 2
M  V30 2 1 2 3
M  V30 3 2 3 4
M  V30 4 1 3 5
M  V30 5 1 5 6
M  V30 6 2 6 7
M  V30 7 1 7 8
M  V30 8 2 8 9
M  V30 9 1 9 10
M  V30 10 2 10 11
M  V30 11 1 10 12
M  V30 12 1 12 13
M  V30 13 2 13 14
M  V30 14 1 14 15
M  V30 15 2 15 16
M  V30 16 1 16 17
M  V30 17 1 17 18
M  V30 18 2 18 19
M  V30 19 1 18 20
M  V30 20 2 20 21
M  V30 21 1 21 22
M  V30 22 2 22 23
M  V30 23 1 23 24
M  V30 24 1 24 25
M  V30 25 2 25 26
M  V30 26 1 26 27
M  V30 27 2 27 28
M  V30 28 1 28 29
M  V30 29 2 24 30
M  V30 30 1 16 31
M  V30 31 2 31 32
M  V30 32 1 9 33
M  V30 33 2 33 34
M  V30 34 1 34 6
M  V30 35 1 32 13
M  V30 36 1 30 20
M  V30 37 1 29 25
M  V30 38 1 1 35
M  V30 39 1 1 36
M  V30 40 1 2 37
M  V30 41 1 5 38
M  V30 42 1 7 39
M  V30 43 1 8 40
M  V30 44 1 12 41
M  V30 45 1 14 42
M  V30 46 1 15 43
M  V30 47 1 17 44
M  V30 48 1 21 45
M  V30 49 1 22 46
M  V30 50 1 23 47
M  V30 51 1 26 48
M  V30 52 1 27 49
M  V30 53 1 29 50
M  V30 54 1 31 51
M  V30 55 1 32 52
M  V30 56 1 33 53
M  V30 57 1 34 54
M  V30 END BOND
M  V30 END CTAB
M  END
>  <Dataset>  (536) 
ChEMBL_Kinases

>  <Ligand_Instance>  (536) 
nan

>  <PDB_ID>  (536) 
nan

>  <Standardized_SMILES>  (536) 
C=CC(=O)Nc1ccc(C(=O)Nc2ccc(NC(=O)c3cccc(-c4ccn[nH]4)n3)cc2)cc1

>  <Name>  (536) 
nan

>  <Pocket>  (536) 
nan

>  <ATP_Site>  (536) 
nan

>  <Peripheral>  (536) 
nan

>  <Num_H_Atoms_ProtBoundConf>  (536) 
nan

>  <Num_Resolved_Atoms>  (536) 
nan

>  <Num_Not_Resolved_Atoms>  (536) 
nan

$$$$
CHEMBL4100703
     RDKit          3D

  0  0  0  0  0  0  0  0  0  0999 V3000
M  V30 BEGIN CTAB
M  V30 COUNTS 49 53 0 0 0
M  V30 BEGIN ATOM
M  V30 1 C 2.302259 0.355351 -2.809847 0
M  V30 2 C 1.691518 0.147017 -1.382661 0 CFG=1
M  V30 3 C 2.207306 -1.180573 -0.878614 0
M  V30 4 C 3.587008 -1.147414 -0.974716 0
M  V30 5 C 4.354102 -2.253916 -0.584911 0
M  V30 6 C 3.751941 -3.395511 -0.098778 0
M  V30 7 F 4.411063 -4.506975 0.299806 0
M  V30 8 C 2.394877 -3.378652 -0.023920 0
M  V30 9 C 1.607368 -2.321943 -0.393200 0
M  V30 10 N 2.109720 1.250953 -0.601170 0
M  V30 11 N 3.193125 1.981015 -0.932692 0
M  V30 12 N 3.427207 2.956695 -0.105612 0
M  V30 13 C 2.504780 2.948791 0.851100 0
M  V30 14 C 2.306153 3.750112 1.937158 0
M  V30 15 N 1.254489 3.467730 2.726459 0
M  V30 16 C 0.446234 2.431090 2.434969 0
M  V30 17 C -0.602986 2.208419 3.294077 0
M  V30 18 C -1.440811 1.148660 3.015527 0
M  V30 19 C -1.244354 0.335896 1.920483 0
M  V30 20 C -2.223353 -0.743903 1.769187 0
M  V30 21 C -2.564794 -1.197084 0.510367 0
M  V30 22 C -3.477563 -2.205322 0.357313 0
M  V30 23 C -4.073751 -2.788315 1.451377 0
M  V30 24 C -5.051845 -3.870511 1.258105 0
M  V30 25 N -5.658447 -4.463342 2.386454 0
M  V30 26 O -5.291452 -4.207775 0.060668 0
M  V30 27 C -3.745480 -2.348877 2.720727 0
M  V30 28 C -2.818589 -1.325448 2.869813 0
M  V30 29 C -0.185182 0.589100 1.084117 0
M  V30 30 C 0.654967 1.632518 1.341416 0
M  V30 31 C 1.708197 1.878192 0.509042 0
M  V30 32 H 2.200820 -0.569558 -3.377169 0
M  V30 33 H 3.314453 0.743381 -2.738762 0
M  V30 34 H 1.674317 1.132113 -3.264783 0
M  V30 35 H 0.655220 -0.012561 -1.615142 0
M  V30 36 H 4.260137 -0.364359 -1.323062 0
M  V30 37 H 5.452831 -2.312315 -0.627992 0
M  V30 38 H 1.802139 -4.222594 0.344311 0
M  V30 39 H 0.536020 -2.215858 -0.379668 0
M  V30 40 H 2.992109 4.577041 2.127039 0
M  V30 41 H -0.753030 2.847937 4.151206 0
M  V30 42 H -2.252414 0.999296 3.704534 0
M  V30 43 H -2.106506 -0.751996 -0.377354 0
M  V30 44 H -3.722386 -2.537372 -0.658536 0
M  V30 45 H -5.361343 -5.145398 3.100585 0
M  V30 46 H -6.630981 -4.055155 2.425479 0
M  V30 47 H -4.249241 -2.847180 3.553571 0
M  V30 48 H -2.587922 -1.009323 3.878723 0
M  V30 49 H -0.165031 -0.109529 0.310575 0
M  V30 END ATOM
M  V30 BEGIN BOND
M  V30 1 1 1 2
M  V30 2 1 2 3
M  V30 3 2 3 4
M  V30 4 1 4 5
M  V30 5 2 5 6
M  V30 6 1 6 7
M  V30 7 1 6 8
M  V30 8 2 8 9
M  V30 9 1 2 10
M  V30 10 1 10 11
M  V30 11 2 11 12
M  V30 12 1 12 13
M  V30 13 2 13 14
M  V30 14 1 14 15
M  V30 15 2 15 16
M  V30 16 1 16 17
M  V30 17 2 17 18
M  V30 18 1 18 19
M  V30 19 1 19 20
M  V30 20 2 20 21
M  V30 21 1 21 22
M  V30 22 2 22 23
M  V30 23 1 23 24
M  V30 24 1 24 25
M  V30 25 2 24 26
M  V30 26 1 23 27
M  V30 27 2 27 28
M  V30 28 2 19 29
M  V30 29 1 29 30
M  V30 30 2 30 31
M  V30 31 1 9 3
M  V30 32 1 31 10
M  V30 33 1 31 13
M  V30 34 1 30 16
M  V30 35 1 28 20
M  V30 36 1 1 32
M  V30 37 1 1 33
M  V30 38 1 1 34
M  V30 39 1 2 35 CFG=3
M  V30 40 1 4 36
M  V30 41 1 5 37
M  V30 42 1 8 38
M  V30 43 1 9 39
M  V30 44 1 14 40
M  V30 45 1 17 41
M  V30 46 1 18 42
M  V30 47 1 21 43
M  V30 48 1 22 44
M  V30 49 1 25 45
M  V30 50 1 25 46
M  V30 51 1 27 47
M  V30 52 1 28 48
M  V30 53 1 29 49
M  V30 END BOND
M  V30 END CTAB
M  END
>  <Dataset>  (537) 
ChEMBL_Kinases

>  <Ligand_Instance>  (537) 
nan

>  <PDB_ID>  (537) 
nan

>  <Standardized_SMILES>  (537) 
C[C@@H](c1ccc(F)cc1)n1nnc2cnc3ccc(-c4ccc(C(N)=O)cc4)cc3c21

>  <Name>  (537) 
nan

>  <Pocket>  (537) 
nan

>  <ATP_Site>  (537) 
nan

>  <Peripheral>  (537) 
nan

>  <Num_H_Atoms_ProtBoundConf>  (537) 
nan

>  <Num_Resolved_Atoms>  (537) 
nan

>  <Num_Not_Resolved_Atoms>  (537) 
nan

$$$$
CHEMBL4799497
     RDKit          3D

  0  0  0  0  0  0  0  0  0  0999 V3000
M  V30 BEGIN CTAB
M  V30 COUNTS 54 58 0 0 0
M  V30 BEGIN ATOM
M  V30 1 C 1.449011 -3.345276 7.230658 0
M  V30 2 N 1.168386 -3.328576 5.789166 0
M  V30 3 C 1.785405 -2.525566 4.875648 0
M  V30 4 C 1.175470 -2.890104 3.693462 0
M  V30 5 C 1.547946 -2.254443 2.422526 0
M  V30 6 C 1.961906 -0.923880 2.418058 0
M  V30 7 C 2.323026 -0.273533 1.251799 0
M  V30 8 C 2.268614 -0.973717 0.055883 0
M  V30 9 C 2.627557 -0.319485 -1.102681 0
M  V30 10 N 3.053331 1.055406 -1.092270 0
M  V30 11 C 2.053583 2.090486 -1.202700 0
M  V30 12 C 2.395992 3.405742 -1.243183 0
M  V30 13 C 1.394122 4.338218 -1.345201 0
M  V30 14 C 0.072733 3.967150 -1.405844 0
M  V30 15 C -0.317648 2.650316 -1.367993 0
M  V30 16 N -1.696802 2.348106 -1.434190 0
M  V30 17 C -2.351942 1.101390 -1.409475 0
M  V30 18 O -1.668634 0.053506 -1.314912 0
M  V30 19 N -3.752342 0.884757 -1.482056 0
M  V30 20 C -4.027096 -0.520933 -1.426096 0
M  V30 21 C -4.239887 -1.164333 -0.203563 0
M  V30 22 C -4.504413 -2.531846 -0.169729 0
M  V30 23 C -4.548556 -3.219565 -1.365306 0
M  V30 24 C -4.338709 -2.585892 -2.571722 0
M  V30 25 C -4.074560 -1.227110 -2.626019 0
M  V30 26 F -3.864904 -0.575862 -3.798270 0
M  V30 27 C 0.718724 1.754433 -1.265763 0
M  V30 28 N 2.568811 -1.016706 -2.276463 0
M  V30 29 C 2.162668 -2.316955 -2.259584 0
M  V30 30 N 1.817711 -2.933946 -1.119032 0
M  V30 31 C 1.852272 -2.307158 0.071542 0
M  V30 32 C 1.492790 -2.961194 1.217441 0
M  V30 33 C 0.218425 -3.881740 3.876278 0
M  V30 34 N 0.260927 -4.112517 5.203331 0
M  V30 35 H 0.515152 -3.446866 7.796141 0
M  V30 36 H 2.088174 -4.249051 7.445590 0
M  V30 37 H 2.063574 -2.469146 7.492276 0
M  V30 38 H 2.546496 -1.800897 5.042767 0
M  V30 39 H 1.993738 -0.408045 3.357525 0
M  V30 40 H 2.649352 0.769211 1.236005 0
M  V30 41 H 4.039481 1.345050 -1.009768 0
M  V30 42 H 3.423151 3.689849 -1.195929 0
M  V30 43 H 1.612439 5.395741 -1.380546 0
M  V30 44 H -0.689541 4.738832 -1.486053 0
M  V30 45 H -2.387424 3.124731 -1.514367 0
M  V30 46 H -4.364035 1.748235 -1.562800 0
M  V30 47 H -4.183516 -0.531496 0.690884 0
M  V30 48 H -4.658567 -2.963107 0.797719 0
M  V30 49 H -4.755818 -4.291538 -1.340892 0
M  V30 50 H -4.370872 -3.119363 -3.523850 0
M  V30 51 H 0.497932 0.699984 -1.229956 0
M  V30 52 H 2.103059 -2.901590 -3.163122 0
M  V30 53 H 1.171149 -3.988211 1.234190 0
M  V30 54 H -0.386881 -4.324949 3.099143 0
M  V30 END ATOM
M  V30 BEGIN BOND
M  V30 1 1 1 2
M  V30 2 1 2 3
M  V30 3 2 3 4
M  V30 4 1 4 5
M  V30 5 2 5 6
M  V30 6 1 6 7
M  V30 7 2 7 8
M  V30 8 1 8 9
M  V30 9 1 9 10
M  V30 10 1 10 11
M  V30 11 2 11 12
M  V30 12 1 12 13
M  V30 13 2 13 14
M  V30 14 1 14 15
M  V30 15 1 15 16
M  V30 16 1 16 17
M  V30 17 2 17 18
M  V30 18 1 17 19
M  V30 19 1 19 20
M  V30 20 2 20 21
M  V30 21 1 21 22
M  V30 22 2 22 23
M  V30 23 1 23 24
M  V30 24 2 24 25
M  V30 25 1 25 26
M  V30 26 2 15 27
M  V30 27 2 9 28
M  V30 28 1 28 29
M  V30 29 2 29 30
M  V30 30 1 30 31
M  V30 31 2 31 32
M  V30 32 1 4 33
M  V30 33 2 33 34
M  V30 34 1 34 2
M  V30 35 1 32 5
M  V30 36 1 31 8
M  V30 37 1 27 11
M  V30 38 1 25 20
M  V30 39 1 1 35
M  V30 40 1 1 36
M  V30 41 1 1 37
M  V30 42 1 3 38
M  V30 43 1 6 39
M  V30 44 1 7 40
M  V30 45 1 10 41
M  V30 46 1 12 42
M  V30 47 1 13 43
M  V30 48 1 14 44
M  V30 49 1 16 45
M  V30 50 1 19 46
M  V30 51 1 21 47
M  V30 52 1 22 48
M  V30 53 1 23 49
M  V30 54 1 24 50
M  V30 55 1 27 51
M  V30 56 1 29 52
M  V30 57 1 32 53
M  V30 58 1 33 54
M  V30 END BOND
M  V30 END CTAB
M  END
>  <Dataset>  (538) 
ChEMBL_Kinases

>  <Ligand_Instance>  (538) 
nan

>  <PDB_ID>  (538) 
nan

>  <Standardized_SMILES>  (538) 
Cn1cc(-c2ccc3c(Nc4cccc(NC(=O)Nc5ccccc5F)c4)ncnc3c2)cn1

>  <Name>  (538) 
nan

>  <Pocket>  (538) 
nan

>  <ATP_Site>  (538) 
nan

>  <Peripheral>  (538) 
nan

>  <Num_H_Atoms_ProtBoundConf>  (538) 
nan

>  <Num_Resolved_Atoms>  (538) 
nan

>  <Num_Not_Resolved_Atoms>  (538) 
nan

$$$$
CHEMBL4799521
     RDKit          3D

  0  0  0  0  0  0  0  0  0  0999 V3000
M  V30 BEGIN CTAB
M  V30 COUNTS 34 35 0 0 0
M  V30 BEGIN ATOM
M  V30 1 C 0.852185 -5.800671 1.350432 0
M  V30 2 O -0.480741 -5.649156 0.923625 0
M  V30 3 C -1.062332 -4.482219 0.530194 0
M  V30 4 C -0.523299 -3.210413 0.452984 0
M  V30 5 C -1.340510 -2.215138 0.019426 0
M  V30 6 C -0.819402 -0.855078 -0.068273 0
M  V30 7 C -0.050922 -0.254152 0.822341 0
M  V30 8 C 0.346024 -0.939920 2.012350 0
M  V30 9 N 0.669743 -1.492191 2.951126 0
M  V30 10 C 0.389982 1.124049 0.569970 0
M  V30 11 O 0.026186 1.701258 -0.487786 0
M  V30 12 N 1.225991 1.793301 1.525011 0
M  V30 13 C 1.524164 3.112054 1.067716 0
M  V30 14 N 2.549518 3.347893 0.341106 0
M  V30 15 N 2.765151 4.554716 -0.044492 0
M  V30 16 C 2.195862 5.524864 0.137112 0
M  V30 17 C 2.198992 6.981705 -0.160373 0
M  V30 18 S 0.821549 4.759855 1.201196 0
M  V30 19 C -2.674051 -2.376616 -0.352305 0
M  V30 20 C -3.217231 -3.663290 -0.273650 0
M  V30 21 C -2.374026 -4.677826 0.171876 0
M  V30 22 O -3.077921 -5.893112 0.188283 0
M  V30 23 H 1.516443 -5.903117 0.473068 0
M  V30 24 H 1.099147 -4.891178 1.965912 0
M  V30 25 H 0.978507 -6.727921 1.968244 0
M  V30 26 H 0.500598 -3.136795 0.741821 0
M  V30 27 H -1.092640 -0.291481 -0.960560 0
M  V30 28 H 1.536790 1.313622 2.414297 0
M  V30 29 H 1.239262 7.466713 0.136513 0
M  V30 30 H 3.072518 7.462328 0.316393 0
M  V30 31 H 2.253788 7.154641 -1.269009 0
M  V30 32 H -3.268045 -1.512276 -0.695422 0
M  V30 33 H -4.250454 -3.742000 -0.571576 0
M  V30 34 H -3.532435 -6.125932 1.060695 0
M  V30 END ATOM
M  V30 BEGIN BOND
M  V30 1 1 1 2
M  V30 2 1 2 3
M  V30 3 2 3 4
M  V30 4 1 4 5
M  V30 5 1 5 6
M  V30 6 2 6 7
M  V30 7 1 7 8
M  V30 8 3 8 9
M  V30 9 1 7 10
M  V30 10 2 10 11
M  V30 11 1 10 12
M  V30 12 1 12 13
M  V30 13 2 13 14
M  V30 14 1 14 15
M  V30 15 2 15 16
M  V30 16 1 16 17
M  V30 17 1 16 18
M  V30 18 2 5 19
M  V30 19 1 19 20
M  V30 20 2 20 21
M  V30 21 1 21 22
M  V30 22 1 21 3
M  V30 23 1 18 13
M  V30 24 1 1 23
M  V30 25 1 1 24
M  V30 26 1 1 25
M  V30 27 1 4 26
M  V30 28 1 6 27
M  V30 29 1 12 28
M  V30 30 1 17 29
M  V30 31 1 17 30
M  V30 32 1 17 31
M  V30 33 1 19 32
M  V30 34 1 20 33
M  V30 35 1 22 34
M  V30 END BOND
M  V30 END CTAB
M  END
>  <Dataset>  (539) 
ChEMBL_Kinases

>  <Ligand_Instance>  (539) 
nan

>  <PDB_ID>  (539) 
nan

>  <Standardized_SMILES>  (539) 
COc1cc(/C=C(\C#N)C(=O)Nc2nnc(C)s2)ccc1O

>  <Name>  (539) 
nan

>  <Pocket>  (539) 
nan

>  <ATP_Site>  (539) 
nan

>  <Peripheral>  (539) 
nan

>  <Num_H_Atoms_ProtBoundConf>  (539) 
nan

>  <Num_Resolved_Atoms>  (539) 
nan

>  <Num_Not_Resolved_Atoms>  (539) 
nan

$$$$
CHEMBL4100916
     RDKit          3D

  0  0  0  0  0  0  0  0  0  0999 V3000
M  V30 BEGIN CTAB
M  V30 COUNTS 60 64 0 0 0
M  V30 BEGIN ATOM
M  V30 1 O 0.431837 -3.750225 5.961841 0
M  V30 2 C 0.967794 -3.575292 4.850379 0
M  V30 3 N 1.677618 -4.629502 4.184070 0
M  V30 4 C 2.133479 -4.026679 2.953000 0
M  V30 5 C 2.873318 -4.710921 2.002975 0
M  V30 6 C 3.262686 -4.043970 0.862197 0
M  V30 7 C 2.887711 -2.713278 0.721848 0
M  V30 8 C 2.152494 -2.118757 1.718480 0
M  V30 9 C 1.746346 -2.715195 2.849219 0
M  V30 10 C 1.007213 -2.387005 4.027622 0
M  V30 11 C 0.485621 -1.224671 4.291569 0
M  V30 12 N -0.231350 -0.936634 5.481862 0
M  V30 13 C -0.680395 0.410587 5.486138 0
M  V30 14 C -1.413073 1.090602 6.462058 0
M  V30 15 C -1.708836 2.405457 6.200454 0
M  V30 16 C -1.316764 3.051443 5.044618 0
M  V30 17 C -0.592866 2.306287 4.124249 0
M  V30 18 C -0.254693 0.989801 4.302691 0
M  V30 19 C 0.470664 -0.001315 3.541585 0
M  V30 20 N 0.926875 0.308986 2.454037 0
M  V30 21 O 0.955804 1.411488 1.690701 0
M  V30 22 C -0.112111 1.568628 0.742932 0
M  V30 23 C 0.176250 0.775785 -0.513538 0
M  V30 24 O -0.866502 0.916301 -1.463522 0
M  V30 25 C -0.522742 0.037451 -2.504432 0 CFG=2
M  V30 26 O -0.319071 0.710324 -3.645213 0
M  V30 27 C -0.736605 0.211336 -4.835528 0 CFG=2
M  V30 28 C -2.068268 0.767286 -5.309538 0
M  V30 29 O -2.455150 0.204648 -6.552475 0
M  V30 30 C -0.703842 -1.284058 -4.880135 0 CFG=1
M  V30 31 O 0.624454 -1.700517 -4.749971 0
M  V30 32 C -1.535236 -1.892732 -3.780197 0 CFG=2
M  V30 33 O -2.879968 -1.917508 -4.213353 0
M  V30 34 C -1.481164 -1.123701 -2.508633 0 CFG=1
M  V30 35 O -1.131495 -2.020912 -1.486353 0
M  V30 36 H 1.812850 -5.596174 4.542753 0
M  V30 37 H 3.170786 -5.744691 2.098520 0
M  V30 38 H 3.837783 -4.572774 0.122882 0
M  V30 39 H 3.243887 -2.276827 -0.220045 0
M  V30 40 H 1.984825 -1.133223 1.417775 0
M  V30 41 H -0.404644 -1.613114 6.242942 0
M  V30 42 H -1.719386 0.604542 7.365567 0
M  V30 43 H -2.283291 2.891965 6.990785 0
M  V30 44 H -1.582295 4.084420 4.907633 0
M  V30 45 H -0.321826 2.871215 3.257990 0
M  V30 46 H -1.089718 1.281951 1.157452 0
M  V30 47 H -0.134633 2.669612 0.507737 0
M  V30 48 H 0.302055 -0.293544 -0.203145 0
M  V30 49 H 1.155807 1.083425 -0.916500 0
M  V30 50 H 0.458215 -0.402612 -2.154675 0
M  V30 51 H 0.014211 0.552113 -5.613041 0
M  V30 52 H -2.000199 1.858131 -5.512477 0
M  V30 53 H -2.865743 0.658613 -4.554980 0
M  V30 54 H -1.601179 -0.007028 -7.044221 0
M  V30 55 H -1.042093 -1.599199 -5.900867 0
M  V30 56 H 0.916525 -2.253434 -5.530745 0
M  V30 57 H -1.234151 -2.957449 -3.677646 0
M  V30 58 H -3.441987 -2.396874 -3.540853 0
M  V30 59 H -2.475791 -0.714575 -2.178653 0
M  V30 60 H -0.513369 -2.732967 -1.810954 0
M  V30 END ATOM
M  V30 BEGIN BOND
M  V30 1 2 1 2
M  V30 2 1 2 3
M  V30 3 1 3 4
M  V30 4 2 4 5
M  V30 5 1 5 6
M  V30 6 2 6 7
M  V30 7 1 7 8
M  V30 8 2 8 9
M  V30 9 1 9 10
M  V30 10 2 10 11
M  V30 11 1 11 12
M  V30 12 1 12 13
M  V30 13 2 13 14
M  V30 14 1 14 15
M  V30 15 2 15 16
M  V30 16 1 16 17
M  V30 17 2 17 18
M  V30 18 1 18 19
M  V30 19 2 19 20
M  V30 20 1 20 21
M  V30 21 1 21 22
M  V30 22 1 22 23
M  V30 23 1 23 24
M  V30 24 1 24 25
M  V30 25 1 25 26
M  V30 26 1 26 27
M  V30 27 1 27 28
M  V30 28 1 28 29
M  V30 29 1 27 30
M  V30 30 1 30 31
M  V30 31 1 30 32
M  V30 32 1 32 33
M  V30 33 1 32 34
M  V30 34 1 34 35
M  V30 35 1 10 2
M  V30 36 1 19 11
M  V30 37 1 34 25
M  V30 38 1 9 4
M  V30 39 1 18 13
M  V30 40 1 3 36
M  V30 41 1 5 37
M  V30 42 1 6 38
M  V30 43 1 7 39
M  V30 44 1 8 40
M  V30 45 1 12 41
M  V30 46 1 14 42
M  V30 47 1 15 43
M  V30 48 1 16 44
M  V30 49 1 17 45
M  V30 50 1 22 46
M  V30 51 1 22 47
M  V30 52 1 23 48
M  V30 53 1 23 49
M  V30 54 1 25 50 CFG=1
M  V30 55 1 27 51 CFG=3
M  V30 56 1 28 52
M  V30 57 1 28 53
M  V30 58 1 29 54
M  V30 59 1 30 55 CFG=3
M  V30 60 1 31 56
M  V30 61 1 32 57 CFG=1
M  V30 62 1 33 58
M  V30 63 1 34 59 CFG=1
M  V30 64 1 35 60
M  V30 END BOND
M  V30 END CTAB
M  END
>  <Dataset>  (540) 
ChEMBL_Kinases

>  <Ligand_Instance>  (540) 
nan

>  <PDB_ID>  (540) 
nan

>  <Standardized_SMILES>  (540) 
O=C1Nc2ccccc2/C1=C1/Nc2ccccc2/C1=N\OCCO[C@@H]1O[C@H](CO)[C@@H](O)[C@H](O)[C@H]1O

>  <Name>  (540) 
nan

>  <Pocket>  (540) 
nan

>  <ATP_Site>  (540) 
nan

>  <Peripheral>  (540) 
nan

>  <Num_H_Atoms_ProtBoundConf>  (540) 
nan

>  <Num_Resolved_Atoms>  (540) 
nan

>  <Num_Not_Resolved_Atoms>  (540) 
nan

$$$$
CHEMBL4859534
     RDKit          3D

  0  0  0  0  0  0  0  0  0  0999 V3000
M  V30 BEGIN CTAB
M  V30 COUNTS 38 41 0 0 0
M  V30 BEGIN ATOM
M  V30 1 O -2.515412 -1.430483 3.373267 0
M  V30 2 C -1.621211 -1.746413 2.551534 0
M  V30 3 N -1.213997 -3.024272 2.453132 0
M  V30 4 C -0.266172 -3.425252 1.597891 0
M  V30 5 C 0.368766 -2.548344 0.746144 0
M  V30 6 N 1.381884 -2.994979 -0.140820 0
M  V30 7 C 1.905686 -2.472237 -1.351361 0
M  V30 8 C 3.161319 -2.832332 -1.796267 0
M  V30 9 C 3.671801 -2.343092 -2.975845 0
M  V30 10 C 2.969521 -1.480213 -3.766417 0
M  V30 11 Br 3.726257 -0.844001 -5.374483 0
M  V30 12 C 1.719721 -1.097076 -3.362987 0
M  V30 13 C 1.228343 -1.599944 -2.177758 0
M  V30 14 C -0.058131 -1.243602 0.858480 0
M  V30 15 C -1.032648 -0.804121 1.730909 0
M  V30 16 C -1.436944 0.603013 1.794953 0
M  V30 17 C -2.452714 1.127496 1.022712 0
M  V30 18 C -2.751556 2.458484 1.160166 0
M  V30 19 C -2.028036 3.217927 2.061344 0
M  V30 20 C -1.009519 2.706730 2.840231 0
M  V30 21 N -0.179197 3.226291 3.765359 0
M  V30 22 C 0.650538 2.276297 4.234537 0
M  V30 23 C 0.327109 1.106480 3.574373 0
M  V30 24 C -0.709908 1.358097 2.698015 0
M  V30 25 H -1.668084 -3.732570 3.081968 0
M  V30 26 H 0.025115 -4.486049 1.563277 0
M  V30 27 H 1.842573 -3.907443 0.163708 0
M  V30 28 H 3.731458 -3.519001 -1.176313 0
M  V30 29 H 4.670135 -2.675826 -3.256565 0
M  V30 30 H 1.161408 -0.413057 -3.988438 0
M  V30 31 H 0.240230 -1.261764 -1.936715 0
M  V30 32 H 0.373116 -0.469855 0.253022 0
M  V30 33 H -2.986526 0.473522 0.328797 0
M  V30 34 H -3.554482 2.896867 0.557110 0
M  V30 35 H -2.245211 4.284200 2.191922 0
M  V30 36 H -0.165108 4.225644 4.088023 0
M  V30 37 H 1.416213 2.427352 4.985971 0
M  V30 38 H 0.798383 0.142395 3.709302 0
M  V30 END ATOM
M  V30 BEGIN BOND
M  V30 1 2 1 2
M  V30 2 1 2 3
M  V30 3 1 3 4
M  V30 4 2 4 5
M  V30 5 1 5 6
M  V30 6 1 6 7
M  V30 7 2 7 8
M  V30 8 1 8 9
M  V30 9 2 9 10
M  V30 10 1 10 11
M  V30 11 1 10 12
M  V30 12 2 12 13
M  V30 13 1 5 14
M  V30 14 2 14 15
M  V30 15 1 15 16
M  V30 16 2 16 17
M  V30 17 1 17 18
M  V30 18 2 18 19
M  V30 19 1 19 20
M  V30 20 1 20 21
M  V30 21 1 21 22
M  V30 22 2 22 23
M  V30 23 1 23 24
M  V30 24 1 15 2
M  V30 25 1 24 16
M  V30 26 1 13 7
M  V30 27 2 24 20
M  V30 28 1 3 25
M  V30 29 1 4 26
M  V30 30 1 6 27
M  V30 31 1 8 28
M  V30 32 1 9 29
M  V30 33 1 12 30
M  V30 34 1 13 31
M  V30 35 1 14 32
M  V30 36 1 17 33
M  V30 37 1 18 34
M  V30 38 1 19 35
M  V30 39 1 21 36
M  V30 40 1 22 37
M  V30 41 1 23 38
M  V30 END BOND
M  V30 END CTAB
M  END
>  <Dataset>  (541) 
ChEMBL_Kinases

>  <Ligand_Instance>  (541) 
nan

>  <PDB_ID>  (541) 
nan

>  <Standardized_SMILES>  (541) 
O=c1[nH]cc(Nc2ccc(Br)cc2)cc1-c1cccc2[nH]ccc12

>  <Name>  (541) 
nan

>  <Pocket>  (541) 
nan

>  <ATP_Site>  (541) 
nan

>  <Peripheral>  (541) 
nan

>  <Num_H_Atoms_ProtBoundConf>  (541) 
nan

>  <Num_Resolved_Atoms>  (541) 
nan

>  <Num_Not_Resolved_Atoms>  (541) 
nan

$$$$
CHEMBL4072503
     RDKit          3D

  0  0  0  0  0  0  0  0  0  0999 V3000
M  V30 BEGIN CTAB
M  V30 COUNTS 65 69 0 0 0
M  V30 BEGIN ATOM
M  V30 1 O 1.524216 1.903282 2.723264 0
M  V30 2 C 1.423054 2.127099 3.982364 0
M  V30 3 N 2.310189 1.344457 4.773028 0
M  V30 4 C 3.153285 0.448891 4.016133 0
M  V30 5 C 4.408939 0.754651 3.525526 0
M  V30 6 C 5.092426 -0.222104 2.801200 0
M  V30 7 C 4.509851 -1.451547 2.593066 0
M  V30 8 C 5.144341 -2.559994 1.839786 0
M  V30 9 N 4.804899 -2.512975 0.408320 0
M  V30 10 C 3.368211 -2.540074 0.266947 0
M  V30 11 N 2.702130 -1.597588 0.140948 0
M  V30 12 C 1.399835 -1.475594 0.012418 0
M  V30 13 C 0.555381 -0.377721 -0.141632 0
M  V30 14 C -0.797247 -0.535765 -0.255465 0
M  V30 15 C -1.443298 -1.767402 -0.229033 0
M  V30 16 O -2.774187 -1.776951 -0.347916 0
M  V30 17 C -3.748983 -2.730701 -0.372042 0
M  V30 18 C -3.736243 -3.761679 -1.440204 0
M  V30 19 N -3.828216 -3.299193 -2.760783 0
M  V30 20 C -5.023023 -2.716032 -3.199062 0
M  V30 21 C -4.924652 -1.938050 -4.481581 0
M  V30 22 O -4.081440 -2.534932 -5.395735 0
M  V30 23 C -2.802421 -2.595076 -4.872505 0
M  V30 24 C -2.746976 -3.463305 -3.638507 0
M  V30 25 C -0.735931 -2.902521 -0.086035 0
M  V30 26 C 0.672054 -2.722075 0.031035 0
M  V30 27 S 2.067478 -3.955867 0.243876 0
M  V30 28 C 3.235703 -1.725330 3.105007 0
M  V30 29 C 2.547289 -0.771377 3.822969 0
M  V30 30 N 0.437889 3.115818 4.308648 0
M  V30 31 C -0.280880 3.701255 3.203810 0
M  V30 32 C -1.474493 3.294853 2.617233 0
M  V30 33 C -1.957349 4.024383 1.553932 0
M  V30 34 C -1.289734 5.121337 1.078429 0
M  V30 35 C -0.089559 5.556662 1.643532 0
M  V30 36 Cl 0.753646 6.962724 1.021350 0
M  V30 37 C 0.394250 4.810398 2.723376 0
M  V30 38 H 2.168949 1.585078 5.798575 0
M  V30 39 H 4.792035 1.732101 3.727560 0
M  V30 40 H 6.064114 -0.020433 2.408339 0
M  V30 41 H 4.772386 -3.528326 2.219483 0
M  V30 42 H 6.251862 -2.502648 1.893287 0
M  V30 43 H 5.357148 -2.469025 -0.452743 0
M  V30 44 H 0.975830 0.615804 -0.172754 0
M  V30 45 H -1.396000 0.383479 -0.372862 0
M  V30 46 H -4.745758 -2.184144 -0.344588 0
M  V30 47 H -3.780737 -3.301819 0.608968 0
M  V30 48 H -4.666282 -4.394288 -1.258490 0
M  V30 49 H -2.912249 -4.481429 -1.308894 0
M  V30 50 H -5.477017 -2.062194 -2.407822 0
M  V30 51 H -5.798008 -3.517916 -3.355283 0
M  V30 52 H -4.653900 -0.872947 -4.313042 0
M  V30 53 H -5.946536 -1.910610 -4.927794 0
M  V30 54 H -2.118203 -3.049837 -5.624071 0
M  V30 55 H -2.435287 -1.580978 -4.697010 0
M  V30 56 H -2.696641 -4.522779 -3.963236 0
M  V30 57 H -1.777868 -3.262372 -3.113276 0
M  V30 58 H -1.034161 -3.909393 -0.041370 0
M  V30 59 H 2.777004 -2.713040 2.935427 0
M  V30 60 H 1.559635 -1.061227 4.192819 0
M  V30 61 H 0.413344 3.244971 5.362889 0
M  V30 62 H -1.878174 2.417324 3.101884 0
M  V30 63 H -2.892469 3.642517 1.151631 0
M  V30 64 H -1.709976 5.673922 0.229963 0
M  V30 65 H 1.335461 5.210444 3.111503 0
M  V30 END ATOM
M  V30 BEGIN BOND
M  V30 1 2 1 2
M  V30 2 1 2 3
M  V30 3 1 3 4
M  V30 4 2 4 5
M  V30 5 1 5 6
M  V30 6 2 6 7
M  V30 7 1 7 8
M  V30 8 1 8 9
M  V30 9 1 9 10
M  V30 10 2 10 11
M  V30 11 1 11 12
M  V30 12 2 12 13
M  V30 13 1 13 14
M  V30 14 2 14 15
M  V30 15 1 15 16
M  V30 16 1 16 17
M  V30 17 1 17 18
M  V30 18 1 18 19
M  V30 19 1 19 20
M  V30 20 1 20 21
M  V30 21 1 21 22
M  V30 22 1 22 23
M  V30 23 1 23 24
M  V30 24 1 15 25
M  V30 25 2 25 26
M  V30 26 1 26 27
M  V30 27 1 7 28
M  V30 28 2 28 29
M  V30 29 1 2 30
M  V30 30 1 30 31
M  V30 31 2 31 32
M  V30 32 1 32 33
M  V30 33 2 33 34
M  V30 34 1 34 35
M  V30 35 1 35 36
M  V30 36 2 35 37
M  V30 37 1 29 4
M  V30 38 1 37 31
M  V30 39 1 27 10
M  V30 40 1 26 12
M  V30 41 1 24 19
M  V30 42 1 3 38
M  V30 43 1 5 39
M  V30 44 1 6 40
M  V30 45 1 8 41
M  V30 46 1 8 42
M  V30 47 1 9 43
M  V30 48 1 13 44
M  V30 49 1 14 45
M  V30 50 1 17 46
M  V30 51 1 17 47
M  V30 52 1 18 48
M  V30 53 1 18 49
M  V30 54 1 20 50
M  V30 55 1 20 51
M  V30 56 1 21 52
M  V30 57 1 21 53
M  V30 58 1 23 54
M  V30 59 1 23 55
M  V30 60 1 24 56
M  V30 61 1 24 57
M  V30 62 1 25 58
M  V30 63 1 28 59
M  V30 64 1 29 60
M  V30 65 1 30 61
M  V30 66 1 32 62
M  V30 67 1 33 63
M  V30 68 1 34 64
M  V30 69 1 37 65
M  V30 END BOND
M  V30 END CTAB
M  END
>  <Dataset>  (542) 
ChEMBL_Kinases

>  <Ligand_Instance>  (542) 
nan

>  <PDB_ID>  (542) 
nan

>  <Standardized_SMILES>  (542) 
O=C(Nc1ccc(CNc2nc3ccc(OCCN4CCOCC4)cc3s2)cc1)Nc1cccc(Cl)c1

>  <Name>  (542) 
nan

>  <Pocket>  (542) 
nan

>  <ATP_Site>  (542) 
nan

>  <Peripheral>  (542) 
nan

>  <Num_H_Atoms_ProtBoundConf>  (542) 
nan

>  <Num_Resolved_Atoms>  (542) 
nan

>  <Num_Not_Resolved_Atoms>  (542) 
nan

$$$$
CHEMBL4072455
     RDKit          3D

  0  0  0  0  0  0  0  0  0  0999 V3000
M  V30 BEGIN CTAB
M  V30 COUNTS 46 49 0 0 0
M  V30 BEGIN ATOM
M  V30 1 C 1.701131 -4.228983 1.003630 0
M  V30 2 N 0.412134 -3.595515 0.867868 0
M  V30 3 C 0.319602 -2.263230 0.897915 0
M  V30 4 N 1.424879 -1.397052 1.053978 0
M  V30 5 C 2.221510 -1.379948 -0.165636 0
M  V30 6 C 3.649487 -1.041871 0.266338 0
M  V30 7 N 3.680013 0.357309 0.587262 0
M  V30 8 C 2.677798 0.642521 1.591396 0
M  V30 9 C 1.844926 1.786521 1.161119 0
M  V30 10 C 0.637754 1.731349 0.516213 0
M  V30 11 C -0.107150 2.826695 0.144504 0
M  V30 12 C 0.345762 4.086948 0.415539 0
M  V30 13 Cl -0.610735 5.470745 -0.061751 0
M  V30 14 C 1.548241 4.218996 1.059455 0
M  V30 15 Cl 2.126320 5.835414 1.407627 0
M  V30 16 C 2.268084 3.099459 1.416927 0
M  V30 17 C 1.930340 -0.539385 2.090057 0
M  V30 18 N -0.885569 -1.694095 0.774268 0
M  V30 19 C -2.032135 -2.365407 0.619841 0
M  V30 20 C -3.270370 -1.596651 0.512660 0
M  V30 21 C -3.195969 -0.220668 0.583299 0
M  V30 22 C -4.312784 0.563183 0.490341 0
M  V30 23 N -5.485240 -0.047825 0.326812 0
M  V30 24 C -5.610724 -1.372028 0.252257 0
M  V30 25 N -4.485669 -2.122074 0.348114 0
M  V30 26 C -1.929993 -3.721045 0.590157 0
M  V30 27 C -0.700731 -4.343536 0.714864 0
M  V30 28 O -0.645344 -5.613161 0.683214 0
M  V30 29 H 2.447494 -3.568960 1.486981 0
M  V30 30 H 1.549412 -5.086961 1.720257 0
M  V30 31 H 2.080874 -4.652571 0.066935 0
M  V30 32 H 2.238924 -2.356949 -0.695351 0
M  V30 33 H 1.809346 -0.640238 -0.879007 0
M  V30 34 H 4.391969 -1.311654 -0.510802 0
M  V30 35 H 3.896517 -1.619976 1.160085 0
M  V30 36 H 3.497206 0.917895 -0.293574 0
M  V30 37 H 3.282748 1.022266 2.477846 0
M  V30 38 H 0.251782 0.769491 0.284282 0
M  V30 39 H -1.062439 2.672837 -0.370164 0
M  V30 40 H 3.227493 3.224127 1.929459 0
M  V30 41 H 2.564947 -1.100173 2.827948 0
M  V30 42 H 1.055929 -0.132234 2.683394 0
M  V30 43 H -2.253119 0.322896 0.713323 0
M  V30 44 H -4.244456 1.652195 0.550430 0
M  V30 45 H -6.509921 -1.938962 0.124219 0
M  V30 46 H -2.851978 -4.296169 0.463370 0
M  V30 END ATOM
M  V30 BEGIN BOND
M  V30 1 1 1 2
M  V30 2 1 2 3
M  V30 3 1 3 4
M  V30 4 1 4 5
M  V30 5 1 5 6
M  V30 6 1 6 7
M  V30 7 1 7 8
M  V30 8 1 8 9
M  V30 9 2 9 10
M  V30 10 1 10 11
M  V30 11 2 11 12
M  V30 12 1 12 13
M  V30 13 1 12 14
M  V30 14 1 14 15
M  V30 15 2 14 16
M  V30 16 1 8 17
M  V30 17 2 3 18
M  V30 18 1 18 19
M  V30 19 1 19 20
M  V30 20 2 20 21
M  V30 21 1 21 22
M  V30 22 2 22 23
M  V30 23 1 23 24
M  V30 24 2 24 25
M  V30 25 2 19 26
M  V30 26 1 26 27
M  V30 27 2 27 28
M  V30 28 1 27 2
M  V30 29 1 17 4
M  V30 30 1 25 20
M  V30 31 1 16 9
M  V30 32 1 1 29
M  V30 33 1 1 30
M  V30 34 1 1 31
M  V30 35 1 5 32
M  V30 36 1 5 33
M  V30 37 1 6 34
M  V30 38 1 6 35
M  V30 39 1 7 36
M  V30 40 1 8 37
M  V30 41 1 10 38
M  V30 42 1 11 39
M  V30 43 1 16 40
M  V30 44 1 17 41
M  V30 45 1 17 42
M  V30 46 1 21 43
M  V30 47 1 22 44
M  V30 48 1 24 45
M  V30 49 1 26 46
M  V30 END BOND
M  V30 END CTAB
M  END
>  <Dataset>  (543) 
ChEMBL_Kinases

>  <Ligand_Instance>  (543) 
nan

>  <PDB_ID>  (543) 
nan

>  <Standardized_SMILES>  (543) 
Cn1c(N2CCNC(c3ccc(Cl)c(Cl)c3)C2)nc(-c2ccncn2)cc1=O

>  <Name>  (543) 
nan

>  <Pocket>  (543) 
nan

>  <ATP_Site>  (543) 
nan

>  <Peripheral>  (543) 
nan

>  <Num_H_Atoms_ProtBoundConf>  (543) 
nan

>  <Num_Resolved_Atoms>  (543) 
nan

>  <Num_Not_Resolved_Atoms>  (543) 
nan

$$$$
CHEMBL4072438
     RDKit          3D

  0  0  0  0  0  0  0  0  0  0999 V3000
M  V30 BEGIN CTAB
M  V30 COUNTS 30 32 0 0 0
M  V30 BEGIN ATOM
M  V30 1 O -2.787164 -0.134727 2.716322 0
M  V30 2 C -1.746432 -0.574815 2.393872 0
M  V30 3 C -0.547548 0.005330 1.840121 0
M  V30 4 C -0.477392 1.325177 1.561333 0
M  V30 5 C 0.772954 1.767630 0.997712 0
M  V30 6 C 1.948851 2.168219 0.420371 0
M  V30 7 C 2.877549 2.336659 -0.718609 0
M  V30 8 C 1.952525 1.774957 -1.540151 0
M  V30 9 O 2.868602 1.950926 -2.695725 0
M  V30 10 C 0.784593 1.238667 -1.743805 0
M  V30 11 O 0.389953 0.827449 -2.994047 0
M  V30 12 C 0.304330 1.304665 -0.382780 0
M  V30 13 O 0.344804 -0.986717 1.674806 0
M  V30 14 C -0.197246 -2.335634 2.092549 0
M  V30 15 C 1.016277 -2.857342 1.712500 0
M  V30 16 C 0.416507 -4.165784 2.040639 0
M  V30 17 C -0.952975 -4.374245 2.547188 0
M  V30 18 O -1.510949 -5.696448 2.853816 0
M  V30 19 C -1.802178 -3.251183 2.748754 0
M  V30 20 C -1.350467 -1.920943 2.463183 0
M  V30 21 H -1.228604 2.040462 1.667736 0
M  V30 22 H 2.231434 2.479573 1.518520 0
M  V30 23 H 3.674974 2.783953 -0.217679 0
M  V30 24 H 3.185529 1.084982 -3.143735 0
M  V30 25 H -0.581373 0.500186 -3.051743 0
M  V30 26 H -0.711965 0.826842 -0.711085 0
M  V30 27 H 1.894181 -3.314681 1.438626 0
M  V30 28 H 0.798306 -5.267560 2.032299 0
M  V30 29 H -1.540394 -6.274874 1.960155 0
M  V30 30 H -2.823806 -3.277862 3.101759 0
M  V30 END ATOM
M  V30 BEGIN BOND
M  V30 1 2 1 2
M  V30 2 1 2 3
M  V30 3 2 3 4
M  V30 4 1 4 5
M  V30 5 2 5 6
M  V30 6 1 6 7
M  V30 7 2 7 8
M  V30 8 1 8 9
M  V30 9 1 8 10
M  V30 10 1 10 11
M  V30 11 2 10 12
M  V30 12 1 3 13
M  V30 13 1 13 14
M  V30 14 2 14 15
M  V30 15 1 15 16
M  V30 16 2 16 17
M  V30 17 1 17 18
M  V30 18 1 17 19
M  V30 19 2 19 20
M  V30 20 1 20 2
M  V30 21 1 12 5
M  V30 22 1 20 14
M  V30 23 1 4 21
M  V30 24 1 6 22
M  V30 25 1 7 23
M  V30 26 1 9 24
M  V30 27 1 11 25
M  V30 28 1 12 26
M  V30 29 1 15 27
M  V30 30 1 16 28
M  V30 31 1 18 29
M  V30 32 1 19 30
M  V30 END BOND
M  V30 END CTAB
M  END
>  <Dataset>  (544) 
ChEMBL_Kinases

>  <Ligand_Instance>  (544) 
nan

>  <PDB_ID>  (544) 
nan

>  <Standardized_SMILES>  (544) 
O=C1/C(=C/c2ccc(O)c(O)c2)Oc2ccc(O)cc21

>  <Name>  (544) 
nan

>  <Pocket>  (544) 
nan

>  <ATP_Site>  (544) 
nan

>  <Peripheral>  (544) 
nan

>  <Num_H_Atoms_ProtBoundConf>  (544) 
nan

>  <Num_Resolved_Atoms>  (544) 
nan

>  <Num_Not_Resolved_Atoms>  (544) 
nan

$$$$
CHEMBL4072429
     RDKit          3D

  0  0  0  0  0  0  0  0  0  0999 V3000
M  V30 BEGIN CTAB
M  V30 COUNTS 26 28 0 0 0
M  V30 BEGIN ATOM
M  V30 1 O -0.406553 -2.473882 3.272271 0
M  V30 2 C -0.400075 -1.487135 2.506391 0
M  V30 3 C 0.348420 -1.310578 1.254299 0
M  V30 4 C 1.163773 -2.157319 0.681944 0
M  V30 5 C 1.816399 -1.790561 -0.580768 0
M  V30 6 C 0.947502 -1.241813 -1.510521 0
M  V30 7 C 1.434889 -0.842654 -2.727904 0
M  V30 8 C 2.813688 -1.004130 -3.001901 0
M  V30 9 N 3.591834 -1.542395 -2.041925 0
M  V30 10 C 3.155179 -1.944855 -0.839989 0
M  V30 11 O 0.019635 -0.041989 0.770283 0
M  V30 12 C -0.887476 0.553285 1.674288 0
M  V30 13 C -1.422848 1.826438 1.493599 0
M  V30 14 C -2.310551 2.246839 2.497729 0
M  V30 15 C -2.595115 1.412059 3.564594 0
M  V30 16 C -2.043920 0.150132 3.708399 0
M  V30 17 C -1.170371 -0.272549 2.728382 0
M  V30 18 H 1.287121 -3.089324 1.198504 0
M  V30 19 H -0.127665 -1.084891 -1.396765 0
M  V30 20 H 0.942355 -0.403034 -3.602754 0
M  V30 21 H 3.389186 -0.755659 -3.909562 0
M  V30 22 H 3.772989 -2.372695 -0.060093 0
M  V30 23 H -1.219072 2.487420 0.676836 0
M  V30 24 H -2.801264 3.224107 2.480589 0
M  V30 25 H -3.268925 1.693758 4.351138 0
M  V30 26 H -2.253177 -0.515504 4.531080 0
M  V30 END ATOM
M  V30 BEGIN BOND
M  V30 1 2 1 2
M  V30 2 1 2 3
M  V30 3 2 3 4
M  V30 4 1 4 5
M  V30 5 2 5 6
M  V30 6 1 6 7
M  V30 7 2 7 8
M  V30 8 1 8 9
M  V30 9 2 9 10
M  V30 10 1 3 11
M  V30 11 1 11 12
M  V30 12 2 12 13
M  V30 13 1 13 14
M  V30 14 2 14 15
M  V30 15 1 15 16
M  V30 16 2 16 17
M  V30 17 1 17 2
M  V30 18 1 10 5
M  V30 19 1 17 12
M  V30 20 1 4 18
M  V30 21 1 6 19
M  V30 22 1 7 20
M  V30 23 1 8 21
M  V30 24 1 10 22
M  V30 25 1 13 23
M  V30 26 1 14 24
M  V30 27 1 15 25
M  V30 28 1 16 26
M  V30 END BOND
M  V30 END CTAB
M  END
>  <Dataset>  (545) 
ChEMBL_Kinases

>  <Ligand_Instance>  (545) 
nan

>  <PDB_ID>  (545) 
nan

>  <Standardized_SMILES>  (545) 
O=C1/C(=C/c2cccnc2)Oc2ccccc21

>  <Name>  (545) 
nan

>  <Pocket>  (545) 
nan

>  <ATP_Site>  (545) 
nan

>  <Peripheral>  (545) 
nan

>  <Num_H_Atoms_ProtBoundConf>  (545) 
nan

>  <Num_Resolved_Atoms>  (545) 
nan

>  <Num_Not_Resolved_Atoms>  (545) 
nan

$$$$
CHEMBL4072372
     RDKit          3D

  0  0  0  0  0  0  0  0  0  0999 V3000
M  V30 BEGIN CTAB
M  V30 COUNTS 36 39 0 0 0
M  V30 BEGIN ATOM
M  V30 1 C 0.618683 -5.884477 0.762236 0
M  V30 2 C 1.304082 -4.651428 1.212983 0
M  V30 3 C 1.849978 -4.571281 2.498904 0
M  V30 4 N 2.487967 -3.484336 2.980836 0
M  V30 5 C 2.632527 -2.386658 2.214955 0
M  V30 6 C 2.099971 -2.426109 0.920636 0
M  V30 7 O 2.231523 -1.348280 0.138177 0
M  V30 8 C 1.533830 -0.237467 -0.113290 0
M  V30 9 S 2.319003 0.868581 -1.350435 0
M  V30 10 C 1.065692 2.113751 -1.317968 0
M  V30 11 C 1.194800 3.300705 -2.170042 0
M  V30 12 N 0.165699 4.281814 -2.116936 0
M  V30 13 O 2.194223 3.398824 -2.899816 0
M  V30 14 C 0.161976 1.659505 -0.422125 0
M  V30 15 C 0.426239 0.454572 0.178725 0
M  V30 16 C -0.594653 -0.056276 1.177730 0
M  V30 17 S -0.691923 -1.436297 2.140471 0
M  V30 18 N -2.323717 -1.008844 2.941505 0
M  V30 19 C -2.562044 0.172435 2.329907 0
M  V30 20 C -1.681896 0.679063 1.417755 0
M  V30 21 C -2.025941 1.976209 0.793016 0
M  V30 22 C -1.031392 2.493503 -0.155822 0
M  V30 23 C 1.439348 -3.524736 0.393980 0
M  V30 24 H -0.461195 -5.798180 1.031948 0
M  V30 25 H 1.080693 -6.746972 1.323416 0
M  V30 26 H 0.769233 -6.110117 -0.301994 0
M  V30 27 H 1.750164 -5.446291 3.148099 0
M  V30 28 H 3.133512 -1.481490 2.540325 0
M  V30 29 H -0.591695 4.068881 -2.833126 0
M  V30 30 H -0.309121 5.141358 -1.764088 0
M  V30 31 H -3.505142 0.423718 2.790171 0
M  V30 32 H -3.038652 1.936570 0.309634 0
M  V30 33 H -2.164996 2.779386 1.588885 0
M  V30 34 H -0.714651 3.553061 0.131286 0
M  V30 35 H -1.588449 2.705942 -1.129028 0
M  V30 36 H 1.039992 -3.535512 -0.595927 0
M  V30 END ATOM
M  V30 BEGIN BOND
M  V30 1 1 1 2
M  V30 2 2 2 3
M  V30 3 1 3 4
M  V30 4 2 4 5
M  V30 5 1 5 6
M  V30 6 1 6 7
M  V30 7 1 7 8
M  V30 8 1 8 9
M  V30 9 1 9 10
M  V30 10 1 10 11
M  V30 11 1 11 12
M  V30 12 2 11 13
M  V30 13 2 10 14
M  V30 14 1 14 15
M  V30 15 1 15 16
M  V30 16 1 16 17
M  V30 17 1 17 18
M  V30 18 2 18 19
M  V30 19 1 19 20
M  V30 20 1 20 21
M  V30 21 1 21 22
M  V30 22 2 6 23
M  V30 23 1 23 2
M  V30 24 2 15 8
M  V30 25 2 20 16
M  V30 26 1 22 14
M  V30 27 1 1 24
M  V30 28 1 1 25
M  V30 29 1 1 26
M  V30 30 1 3 27
M  V30 31 1 5 28
M  V30 32 1 12 29
M  V30 33 1 12 30
M  V30 34 1 19 31
M  V30 35 1 21 32
M  V30 36 1 21 33
M  V30 37 1 22 34
M  V30 38 1 22 35
M  V30 39 1 23 36
M  V30 END BOND
M  V30 END CTAB
M  END
>  <Dataset>  (546) 
ChEMBL_Kinases

>  <Ligand_Instance>  (546) 
nan

>  <PDB_ID>  (546) 
nan

>  <Standardized_SMILES>  (546) 
Cc1cncc(Oc2sc(C(N)=O)c3c2-c2sncc2CC3)c1

>  <Name>  (546) 
nan

>  <Pocket>  (546) 
nan

>  <ATP_Site>  (546) 
nan

>  <Peripheral>  (546) 
nan

>  <Num_H_Atoms_ProtBoundConf>  (546) 
nan

>  <Num_Resolved_Atoms>  (546) 
nan

>  <Num_Not_Resolved_Atoms>  (546) 
nan

$$$$
CHEMBL4859570
     RDKit          3D

  0  0  0  0  0  0  0  0  0  0999 V3000
M  V30 BEGIN CTAB
M  V30 COUNTS 40 43 0 0 0
M  V30 BEGIN ATOM
M  V30 1 C -1.020842 -3.843026 1.243644 0
M  V30 2 C 0.469389 -3.584561 1.141199 0
M  V30 3 C 1.170121 -4.355300 2.231308 0
M  V30 4 C 0.977492 -4.046809 -0.190683 0
M  V30 5 C 1.927581 -2.951726 -0.626398 0
M  V30 6 N 1.313433 -1.763528 -0.074858 0
M  V30 7 C 1.260649 -0.487338 -0.705544 0
M  V30 8 N 1.832185 -0.356985 -1.932410 0
M  V30 9 C 1.765483 0.860640 -2.501292 0
M  V30 10 C 1.148083 1.932628 -1.876464 0
M  V30 11 C 0.575837 1.773331 -0.631445 0
M  V30 12 C -0.078627 2.893373 0.040256 0
M  V30 13 C -0.227937 4.189964 -0.407782 0
M  V30 14 N -0.899382 4.860641 0.557625 0
M  V30 15 N -1.173731 4.044792 1.581559 0
M  V30 16 N -1.815654 4.324521 2.713282 0
M  V30 17 C -1.990033 3.352277 3.626132 0
M  V30 18 C -1.523983 2.058632 3.434336 0
M  V30 19 C -0.866896 1.829901 2.242615 0
M  V30 20 C -0.674133 2.819303 1.282811 0
M  V30 21 N 0.649419 0.535687 -0.064864 0
M  V30 22 C 0.772357 -2.116242 1.219337 0
M  V30 23 H -1.424233 -4.091344 0.231224 0
M  V30 24 H -1.517295 -2.934660 1.641675 0
M  V30 25 H -1.258394 -4.703854 1.887963 0
M  V30 26 H 0.911053 -5.414184 2.102287 0
M  V30 27 H 2.260521 -4.180984 2.164135 0
M  V30 28 H 0.841744 -4.047243 3.235933 0
M  V30 29 H 0.150854 -4.098332 -0.955019 0
M  V30 30 H 1.495624 -5.033373 -0.124650 0
M  V30 31 H 2.926004 -3.149414 -0.158050 0
M  V30 32 H 2.019597 -2.901300 -1.729693 0
M  V30 33 H 2.190649 1.073254 -3.480750 0
M  V30 34 H 1.095983 2.897623 -2.328857 0
M  V30 35 H 0.150690 4.505809 -1.353036 0
M  V30 36 H -2.518693 3.610864 4.541883 0
M  V30 37 H -1.669445 1.281833 4.176035 0
M  V30 38 H -0.482706 0.831857 2.045036 0
M  V30 39 H 1.549060 -1.948096 1.991305 0
M  V30 40 H -0.108345 -1.517076 1.516042 0
M  V30 END ATOM
M  V30 BEGIN BOND
M  V30 1 1 1 2
M  V30 2 1 2 3
M  V30 3 1 2 4
M  V30 4 1 4 5
M  V30 5 1 5 6
M  V30 6 1 6 7
M  V30 7 2 7 8
M  V30 8 1 8 9
M  V30 9 2 9 10
M  V30 10 1 10 11
M  V30 11 1 11 12
M  V30 12 1 12 13
M  V30 13 2 13 14
M  V30 14 1 14 15
M  V30 15 1 15 16
M  V30 16 2 16 17
M  V30 17 1 17 18
M  V30 18 2 18 19
M  V30 19 1 19 20
M  V30 20 2 11 21
M  V30 21 1 6 22
M  V30 22 1 22 2
M  V30 23 1 21 7
M  V30 24 2 20 12
M  V30 25 1 20 15
M  V30 26 1 1 23
M  V30 27 1 1 24
M  V30 28 1 1 25
M  V30 29 1 3 26
M  V30 30 1 3 27
M  V30 31 1 3 28
M  V30 32 1 4 29
M  V30 33 1 4 30
M  V30 34 1 5 31
M  V30 35 1 5 32
M  V30 36 1 9 33
M  V30 37 1 10 34
M  V30 38 1 13 35
M  V30 39 1 17 36
M  V30 40 1 18 37
M  V30 41 1 19 38
M  V30 42 1 22 39
M  V30 43 1 22 40
M  V30 END BOND
M  V30 END CTAB
M  END
>  <Dataset>  (547) 
ChEMBL_Kinases

>  <Ligand_Instance>  (547) 
nan

>  <PDB_ID>  (547) 
nan

>  <Standardized_SMILES>  (547) 
CC1(C)CCN(c2nccc(-c3cnn4ncccc34)n2)C1

>  <Name>  (547) 
nan

>  <Pocket>  (547) 
nan

>  <ATP_Site>  (547) 
nan

>  <Peripheral>  (547) 
nan

>  <Num_H_Atoms_ProtBoundConf>  (547) 
nan

>  <Num_Resolved_Atoms>  (547) 
nan

>  <Num_Not_Resolved_Atoms>  (547) 
nan

$$$$
CHEMBL4072325
     RDKit          3D

  0  0  0  0  0  0  0  0  0  0999 V3000
M  V30 BEGIN CTAB
M  V30 COUNTS 45 48 0 0 0
M  V30 BEGIN ATOM
M  V30 1 C -3.797904 -2.872790 -0.291401 0
M  V30 2 C -2.327893 -2.660594 -0.332207 0
M  V30 3 C -1.442425 -3.708254 -0.443490 0
M  V30 4 N -0.108375 -3.540145 -0.482109 0
M  V30 5 C 0.479171 -2.334700 -0.415525 0
M  V30 6 C 1.921050 -2.269045 -0.465722 0
M  V30 7 C 2.613156 -3.457183 -0.580465 0
M  V30 8 C 3.987006 -3.515683 -0.637206 0
M  V30 9 Cl 4.820534 -5.046985 -0.782859 0
M  V30 10 C 4.751124 -2.370100 -0.581164 0
M  V30 11 C 4.102305 -1.159641 -0.466416 0
M  V30 12 C 2.727264 -1.161028 -0.414077 0
M  V30 13 F 2.146580 0.047134 -0.302001 0
M  V30 14 C -0.413708 -1.302243 -0.305100 0
M  V30 15 C -1.781972 -1.400937 -0.260046 0
M  V30 16 N -2.643528 -0.289464 -0.146157 0
M  V30 17 C -2.644545 1.112452 -0.094567 0
M  V30 18 C -3.008352 1.692776 1.135246 0
M  V30 19 C -3.097763 3.051404 1.393417 0
M  V30 20 N -2.804208 3.836275 0.352373 0
M  V30 21 C -2.452888 3.358864 -0.844833 0
M  V30 22 C -2.147403 3.974133 -2.040895 0
M  V30 23 N -1.906987 3.000462 -2.904240 0
M  V30 24 N -2.037934 1.787154 -2.336888 0
M  V30 25 C -1.807908 0.618595 -3.106942 0
M  V30 26 C -0.383363 0.218352 -3.180682 0
M  V30 27 N -0.210080 -0.973681 -3.975034 0
M  V30 28 O 0.852801 0.136568 -3.062274 0
M  V30 29 C -2.371976 2.006299 -1.072346 0
M  V30 30 H -4.328542 -2.515520 -1.186759 0
M  V30 31 H -4.255739 -2.346365 0.589984 0
M  V30 32 H -4.053717 -3.934859 -0.146972 0
M  V30 33 H -1.849998 -4.711962 -0.502048 0
M  V30 34 H 2.110198 -4.412965 -0.632356 0
M  V30 35 H 5.830067 -2.375390 -0.622710 0
M  V30 36 H 4.670511 -0.260421 -0.421220 0
M  V30 37 H -0.031743 -0.300547 -0.245736 0
M  V30 38 H -3.687067 -0.505456 -0.076896 0
M  V30 39 H -3.248651 1.033061 1.985396 0
M  V30 40 H -3.386849 3.391142 2.377569 0
M  V30 41 H -2.114062 5.041343 -2.224902 0
M  V30 42 H -2.111819 0.779220 -4.183768 0
M  V30 43 H -2.388620 -0.266698 -2.800300 0
M  V30 44 H -0.033139 -1.405684 -4.930503 0
M  V30 45 H -0.155188 -2.008974 -4.105803 0
M  V30 END ATOM
M  V30 BEGIN BOND
M  V30 1 1 1 2
M  V30 2 2 2 3
M  V30 3 1 3 4
M  V30 4 2 4 5
M  V30 5 1 5 6
M  V30 6 2 6 7
M  V30 7 1 7 8
M  V30 8 1 8 9
M  V30 9 2 8 10
M  V30 10 1 10 11
M  V30 11 2 11 12
M  V30 12 1 12 13
M  V30 13 1 5 14
M  V30 14 2 14 15
M  V30 15 1 15 16
M  V30 16 1 16 17
M  V30 17 2 17 18
M  V30 18 1 18 19
M  V30 19 2 19 20
M  V30 20 1 20 21
M  V30 21 1 21 22
M  V30 22 2 22 23
M  V30 23 1 23 24
M  V30 24 1 24 25
M  V30 25 1 25 26
M  V30 26 1 26 27
M  V30 27 2 26 28
M  V30 28 1 24 29
M  V30 29 1 15 2
M  V30 30 1 29 17
M  V30 31 1 12 6
M  V30 32 2 29 21
M  V30 33 1 1 30
M  V30 34 1 1 31
M  V30 35 1 1 32
M  V30 36 1 3 33
M  V30 37 1 7 34
M  V30 38 1 10 35
M  V30 39 1 11 36
M  V30 40 1 14 37
M  V30 41 1 16 38
M  V30 42 1 18 39
M  V30 43 1 19 40
M  V30 44 1 22 41
M  V30 45 1 25 42
M  V30 46 1 25 43
M  V30 47 1 27 44
M  V30 48 1 27 45
M  V30 END BOND
M  V30 END CTAB
M  END
>  <Dataset>  (548) 
ChEMBL_Kinases

>  <Ligand_Instance>  (548) 
nan

>  <PDB_ID>  (548) 
nan

>  <Standardized_SMILES>  (548) 
Cc1cnc(-c2cc(Cl)ccc2F)cc1Nc1ccnc2cnn(CC(N)=O)c12

>  <Name>  (548) 
nan

>  <Pocket>  (548) 
nan

>  <ATP_Site>  (548) 
nan

>  <Peripheral>  (548) 
nan

>  <Num_H_Atoms_ProtBoundConf>  (548) 
nan

>  <Num_Resolved_Atoms>  (548) 
nan

>  <Num_Not_Resolved_Atoms>  (548) 
nan

$$$$
CHEMBL4859617
     RDKit          3D

  0  0  0  0  0  0  0  0  0  0999 V3000
M  V30 BEGIN CTAB
M  V30 COUNTS 53 57 0 0 0
M  V30 BEGIN ATOM
M  V30 1 O -0.687724 -5.284760 2.295485 0
M  V30 2 C -0.656656 -4.473502 1.340969 0
M  V30 3 C 0.257159 -3.480236 0.763156 0
M  V30 4 C 1.107544 -3.625484 -0.298821 0
M  V30 5 C 1.828689 -2.515387 -0.675114 0
M  V30 6 C 1.729815 -1.286393 -0.032560 0
M  V30 7 C 2.497342 -0.099884 -0.487983 0
M  V30 8 C 3.312400 -0.127826 -1.584978 0
M  V30 9 C 3.920298 1.096601 -1.890129 0
M  V30 10 C 3.676088 2.196138 -1.113838 0
M  V30 11 N 4.244168 3.377205 -1.410109 0
M  V30 12 C 4.009184 4.488085 -0.659770 0
M  V30 13 N 3.198579 4.454876 0.412015 0
M  V30 14 C 2.578688 3.310851 0.791339 0
M  V30 15 N 1.698504 2.998324 1.839265 0
M  V30 16 C 0.350201 2.714739 2.142560 0
M  V30 17 C 0.122766 2.478460 3.490637 0
M  V30 18 C -1.139533 2.159779 3.929304 0
M  V30 19 C -2.141168 2.089213 2.983902 0
M  V30 20 C -1.907800 2.325018 1.644522 0
M  V30 21 F -2.965728 2.231021 0.770396 0
M  V30 22 C -0.644816 2.645033 1.203485 0
M  V30 23 C 2.849595 2.193637 -0.011325 0
M  V30 24 N 2.283069 0.994242 0.249135 0
M  V30 25 C 0.858338 -1.181985 1.042492 0
M  V30 26 C 0.109499 -2.299041 1.446048 0
M  V30 27 N -1.883387 -4.508575 0.558600 0
M  V30 28 C -3.083167 -5.297340 0.715347 0
M  V30 29 C -4.357784 -4.543360 0.741820 0
M  V30 30 N -4.448283 -3.399418 -0.125809 0
M  V30 31 C -3.195669 -2.687489 -0.281803 0
M  V30 32 C -2.143717 -3.703898 -0.619496 0
M  V30 33 H 1.135806 -4.599022 -0.757081 0
M  V30 34 H 2.498856 -2.644039 -1.514230 0
M  V30 35 H 3.475087 -1.008112 -2.160174 0
M  V30 36 H 4.575436 1.205543 -2.712919 0
M  V30 37 H 4.448878 5.480348 -0.858147 0
M  V30 38 H 2.472072 3.026569 2.550850 0
M  V30 39 H 0.896961 2.533362 4.257801 0
M  V30 40 H -1.326883 1.968795 4.990448 0
M  V30 41 H -3.126567 1.838954 3.353838 0
M  V30 42 H -0.430232 2.836246 0.158478 0
M  V30 43 H 0.766421 -0.226655 1.564861 0
M  V30 44 H -0.528405 -2.079631 2.294159 0
M  V30 45 H -2.980286 -5.916482 1.621488 0
M  V30 46 H -3.046963 -6.042264 -0.134255 0
M  V30 47 H -4.594736 -4.225737 1.765741 0
M  V30 48 H -5.186487 -5.234010 0.417584 0
M  V30 49 H -4.892289 -3.615089 -1.050455 0
M  V30 50 H -2.976022 -2.142529 0.655970 0
M  V30 51 H -3.297324 -1.960205 -1.091893 0
M  V30 52 H -2.478168 -4.277077 -1.498261 0
M  V30 53 H -1.195583 -3.171593 -0.954942 0
M  V30 END ATOM
M  V30 BEGIN BOND
M  V30 1 2 1 2
M  V30 2 1 2 3
M  V30 3 2 3 4
M  V30 4 1 4 5
M  V30 5 2 5 6
M  V30 6 1 6 7
M  V30 7 2 7 8
M  V30 8 1 8 9
M  V30 9 2 9 10
M  V30 10 1 10 11
M  V30 11 2 11 12
M  V30 12 1 12 13
M  V30 13 2 13 14
M  V30 14 1 14 15
M  V30 15 1 15 16
M  V30 16 2 16 17
M  V30 17 1 17 18
M  V30 18 2 18 19
M  V30 19 1 19 20
M  V30 20 1 20 21
M  V30 21 2 20 22
M  V30 22 1 14 23
M  V30 23 2 23 24
M  V30 24 1 6 25
M  V30 25 2 25 26
M  V30 26 1 2 27
M  V30 27 1 27 28
M  V30 28 1 28 29
M  V30 29 1 29 30
M  V30 30 1 30 31
M  V30 31 1 31 32
M  V30 32 1 26 3
M  V30 33 1 32 27
M  V30 34 1 24 7
M  V30 35 1 23 10
M  V30 36 1 22 16
M  V30 37 1 4 33
M  V30 38 1 5 34
M  V30 39 1 8 35
M  V30 40 1 9 36
M  V30 41 1 12 37
M  V30 42 1 15 38
M  V30 43 1 17 39
M  V30 44 1 18 40
M  V30 45 1 19 41
M  V30 46 1 22 42
M  V30 47 1 25 43
M  V30 48 1 26 44
M  V30 49 1 28 45
M  V30 50 1 28 46
M  V30 51 1 29 47
M  V30 52 1 29 48
M  V30 53 1 30 49
M  V30 54 1 31 50
M  V30 55 1 31 51
M  V30 56 1 32 52
M  V30 57 1 32 53
M  V30 END BOND
M  V30 END CTAB
M  END
>  <Dataset>  (549) 
ChEMBL_Kinases

>  <Ligand_Instance>  (549) 
nan

>  <PDB_ID>  (549) 
nan

>  <Standardized_SMILES>  (549) 
O=C(c1ccc(-c2ccc3ncnc(Nc4cccc(F)c4)c3n2)cc1)N1CCNCC1

>  <Name>  (549) 
nan

>  <Pocket>  (549) 
nan

>  <ATP_Site>  (549) 
nan

>  <Peripheral>  (549) 
nan

>  <Num_H_Atoms_ProtBoundConf>  (549) 
nan

>  <Num_Resolved_Atoms>  (549) 
nan

>  <Num_Not_Resolved_Atoms>  (549) 
nan

$$$$
CHEMBL4072278
     RDKit          3D

  0  0  0  0  0  0  0  0  0  0999 V3000
M  V30 BEGIN CTAB
M  V30 COUNTS 25 27 0 0 0
M  V30 BEGIN ATOM
M  V30 1 O -1.502814 -4.863325 0.031902 0
M  V30 2 C -0.382350 -4.279104 0.241465 0
M  V30 3 N 0.810939 -5.039023 0.430866 0
M  V30 4 C 2.025914 -4.285395 0.660246 0
M  V30 5 S 3.387389 -4.672213 1.469569 0
M  V30 6 S 1.577941 -2.752403 -0.218510 0
M  V30 7 C -0.160290 -2.822289 0.314712 0
M  V30 8 C -1.063395 -1.915520 0.706690 0
M  V30 9 C -0.527686 -0.545124 0.665845 0
M  V30 10 C 0.244347 -0.097669 -0.386080 0
M  V30 11 C 0.745324 1.191615 -0.373842 0
M  V30 12 C 0.458675 2.001039 0.694602 0
M  V30 13 C 0.919077 3.319509 0.813917 0
M  V30 14 C 0.623254 4.127722 1.910841 0
M  V30 15 C -0.154856 3.595037 2.913702 0
M  V30 16 N -0.626061 2.313125 2.839354 0
M  V30 17 C -0.315963 1.551891 1.748550 0
M  V30 18 N -0.786797 0.293463 1.703981 0
M  V30 19 H 0.851865 -6.107884 0.415704 0
M  V30 20 H -2.025152 -2.279279 0.990686 0
M  V30 21 H 0.471251 -0.730110 -1.239524 0
M  V30 22 H 1.355494 1.628969 -1.149823 0
M  V30 23 H 1.524429 3.634865 -0.027270 0
M  V30 24 H 1.029889 5.130623 1.905963 0
M  V30 25 H -0.394978 4.196845 3.766418 0
M  V30 END ATOM
M  V30 BEGIN BOND
M  V30 1 2 1 2
M  V30 2 1 2 3
M  V30 3 1 3 4
M  V30 4 2 4 5
M  V30 5 1 4 6
M  V30 6 1 6 7
M  V30 7 2 7 8
M  V30 8 1 8 9
M  V30 9 2 9 10
M  V30 10 1 10 11
M  V30 11 2 11 12
M  V30 12 1 12 13
M  V30 13 2 13 14
M  V30 14 1 14 15
M  V30 15 2 15 16
M  V30 16 1 16 17
M  V30 17 2 17 18
M  V30 18 1 7 2
M  V30 19 1 18 9
M  V30 20 1 17 12
M  V30 21 1 3 19
M  V30 22 1 8 20
M  V30 23 1 10 21
M  V30 24 1 11 22
M  V30 25 1 13 23
M  V30 26 1 14 24
M  V30 27 1 15 25
M  V30 END BOND
M  V30 END CTAB
M  END
>  <Dataset>  (550) 
ChEMBL_Kinases

>  <Ligand_Instance>  (550) 
nan

>  <PDB_ID>  (550) 
nan

>  <Standardized_SMILES>  (550) 
O=C1NC(=S)S/C1=C\c1ccc2cccnc2n1

>  <Name>  (550) 
nan

>  <Pocket>  (550) 
nan

>  <ATP_Site>  (550) 
nan

>  <Peripheral>  (550) 
nan

>  <Num_H_Atoms_ProtBoundConf>  (550) 
nan

>  <Num_Resolved_Atoms>  (550) 
nan

>  <Num_Not_Resolved_Atoms>  (550) 
nan

$$$$
CHEMBL4072264
     RDKit          3D

  0  0  0  0  0  0  0  0  0  0999 V3000
M  V30 BEGIN CTAB
M  V30 COUNTS 35 37 0 0 0
M  V30 BEGIN ATOM
M  V30 1 C 0.272477 -5.658841 1.774790 0
M  V30 2 C -0.396951 -4.860862 2.831895 0
M  V30 3 O -1.377984 -3.973210 2.440419 0
M  V30 4 C -1.191280 -2.901227 1.619587 0
M  V30 5 C -0.119984 -2.361143 0.965592 0
M  V30 6 C -0.196967 -1.241203 0.169900 0
M  V30 7 C 1.004670 -0.750375 -0.487969 0
M  V30 8 C 1.241488 0.534586 -0.541740 0
M  V30 9 O 0.365151 1.452994 0.021279 0
M  V30 10 C 0.823838 2.757836 -0.158640 0
M  V30 11 C 0.166896 3.901166 0.294148 0
M  V30 12 C 0.864588 5.068476 -0.032375 0
M  V30 13 C 2.051909 5.097133 -0.714885 0
M  V30 14 F 2.681797 6.255476 -1.003015 0
M  V30 15 C 2.637062 3.913120 -1.128784 0
M  V30 16 C 2.009018 2.724635 -0.843014 0
M  V30 17 C 2.320713 1.320478 -1.112271 0
M  V30 18 O 3.291130 0.837346 -1.700394 0
M  V30 19 C -1.429365 -0.613904 0.015605 0
M  V30 20 C -2.562563 -1.097140 0.644774 0
M  V30 21 C -2.409628 -2.226621 1.428220 0
M  V30 22 O -3.637293 -2.615352 2.010822 0
M  V30 23 H 1.241084 -6.043399 2.166178 0
M  V30 24 H 0.473930 -5.150397 0.817865 0
M  V30 25 H -0.362672 -6.548922 1.526189 0
M  V30 26 H -0.901920 -5.601022 3.528863 0
M  V30 27 H 0.373059 -4.311444 3.418858 0
M  V30 28 H 0.805089 -2.878723 1.134136 0
M  V30 29 H 1.741105 -1.406088 -0.953980 0
M  V30 30 H -0.766009 3.864260 0.828791 0
M  V30 31 H 0.423873 6.021541 0.284684 0
M  V30 32 H 3.565744 3.842178 -1.667851 0
M  V30 33 H -1.521519 0.280725 -0.614453 0
M  V30 34 H -3.471236 -0.571759 0.485182 0
M  V30 35 H -4.115088 -1.931772 2.580884 0
M  V30 END ATOM
M  V30 BEGIN BOND
M  V30 1 1 1 2
M  V30 2 1 2 3
M  V30 3 1 3 4
M  V30 4 2 4 5
M  V30 5 1 5 6
M  V30 6 1 6 7
M  V30 7 2 7 8
M  V30 8 1 8 9
M  V30 9 1 9 10
M  V30 10 2 10 11
M  V30 11 1 11 12
M  V30 12 2 12 13
M  V30 13 1 13 14
M  V30 14 1 13 15
M  V30 15 2 15 16
M  V30 16 1 16 17
M  V30 17 2 17 18
M  V30 18 2 6 19
M  V30 19 1 19 20
M  V30 20 2 20 21
M  V30 21 1 21 22
M  V30 22 1 21 4
M  V30 23 1 17 8
M  V30 24 1 16 10
M  V30 25 1 1 23
M  V30 26 1 1 24
M  V30 27 1 1 25
M  V30 28 1 2 26
M  V30 29 1 2 27
M  V30 30 1 5 28
M  V30 31 1 7 29
M  V30 32 1 11 30
M  V30 33 1 12 31
M  V30 34 1 15 32
M  V30 35 1 19 33
M  V30 36 1 20 34
M  V30 37 1 22 35
M  V30 END BOND
M  V30 END CTAB
M  END
>  <Dataset>  (551) 
ChEMBL_Kinases

>  <Ligand_Instance>  (551) 
nan

>  <PDB_ID>  (551) 
nan

>  <Standardized_SMILES>  (551) 
CCOc1cc(/C=C2\Oc3ccc(F)cc3C2=O)ccc1O

>  <Name>  (551) 
nan

>  <Pocket>  (551) 
nan

>  <ATP_Site>  (551) 
nan

>  <Peripheral>  (551) 
nan

>  <Num_H_Atoms_ProtBoundConf>  (551) 
nan

>  <Num_Resolved_Atoms>  (551) 
nan

>  <Num_Not_Resolved_Atoms>  (551) 
nan

$$$$
CHEMBL4850810
     RDKit          3D

  0  0  0  0  0  0  0  0  0  0999 V3000
M  V30 BEGIN CTAB
M  V30 COUNTS 33 35 0 0 0
M  V30 BEGIN ATOM
M  V30 1 C -3.019750 -0.775141 2.208578 0
M  V30 2 C -1.744658 -1.415717 1.819816 0
M  V30 3 C -1.404385 -2.749656 1.858301 0
M  V30 4 N -0.211502 -3.237796 1.480163 0
M  V30 5 C 0.751915 -2.382876 1.022180 0
M  V30 6 N 2.036342 -2.829939 0.603949 0
M  V30 7 C 2.206391 -4.283974 0.701552 0
M  V30 8 C 2.969285 -1.806788 0.155597 0
M  V30 9 N 0.399690 -1.100237 0.994727 0
M  V30 10 C -0.766767 -0.561272 1.356070 0
M  V30 11 C -0.831025 0.906537 1.193114 0
M  V30 12 C -1.132450 2.017714 1.956857 0
M  V30 13 N -1.001074 3.112259 1.226307 0
M  V30 14 N -0.621357 2.805327 -0.011181 0
M  V30 15 N -0.376159 3.578610 -1.052152 0
M  V30 16 C 0.004676 3.099886 -2.245749 0
M  V30 17 C 0.140479 1.714894 -2.365876 0
M  V30 18 C -0.122960 0.909788 -1.254792 0
M  V30 19 C -0.511038 1.457246 -0.053339 0
M  V30 20 H -3.598327 -0.432777 1.312519 0
M  V30 21 H -2.923604 0.002599 2.987334 0
M  V30 22 H -3.708465 -1.537104 2.681035 0
M  V30 23 H -2.207623 -3.403888 2.232233 0
M  V30 24 H 1.317825 -4.802076 0.290548 0
M  V30 25 H 2.346031 -4.618446 1.748991 0
M  V30 26 H 3.128717 -4.602657 0.159736 0
M  V30 27 H 3.013972 -1.075676 1.011887 0
M  V30 28 H 2.559905 -1.295599 -0.734365 0
M  V30 29 H 3.981634 -2.198555 0.020801 0
M  V30 30 H -1.412939 1.839411 2.985405 0
M  V30 31 H 0.234460 3.616737 -3.163821 0
M  V30 32 H 0.447440 1.222885 -3.300399 0
M  V30 33 H -0.003699 -0.155789 -1.390917 0
M  V30 END ATOM
M  V30 BEGIN BOND
M  V30 1 1 1 2
M  V30 2 2 2 3
M  V30 3 1 3 4
M  V30 4 2 4 5
M  V30 5 1 5 6
M  V30 6 1 6 7
M  V30 7 1 6 8
M  V30 8 1 5 9
M  V30 9 2 9 10
M  V30 10 1 10 11
M  V30 11 1 11 12
M  V30 12 2 12 13
M  V30 13 1 13 14
M  V30 14 1 14 15
M  V30 15 2 15 16
M  V30 16 1 16 17
M  V30 17 2 17 18
M  V30 18 1 18 19
M  V30 19 1 10 2
M  V30 20 2 19 11
M  V30 21 1 19 14
M  V30 22 1 1 20
M  V30 23 1 1 21
M  V30 24 1 1 22
M  V30 25 1 3 23
M  V30 26 1 7 24
M  V30 27 1 7 25
M  V30 28 1 7 26
M  V30 29 1 8 27
M  V30 30 1 8 28
M  V30 31 1 8 29
M  V30 32 1 12 30
M  V30 33 1 16 31
M  V30 34 1 17 32
M  V30 35 1 18 33
M  V30 END BOND
M  V30 END CTAB
M  END
>  <Dataset>  (552) 
ChEMBL_Kinases

>  <Ligand_Instance>  (552) 
nan

>  <PDB_ID>  (552) 
nan

>  <Standardized_SMILES>  (552) 
Cc1cnc(N(C)C)nc1-c1cnn2ncccc12

>  <Name>  (552) 
nan

>  <Pocket>  (552) 
nan

>  <ATP_Site>  (552) 
nan

>  <Peripheral>  (552) 
nan

>  <Num_H_Atoms_ProtBoundConf>  (552) 
nan

>  <Num_Resolved_Atoms>  (552) 
nan

>  <Num_Not_Resolved_Atoms>  (552) 
nan

$$$$
CHEMBL4072224
     RDKit          3D

  0  0  0  0  0  0  0  0  0  0999 V3000
M  V30 BEGIN CTAB
M  V30 COUNTS 54 57 0 0 0
M  V30 BEGIN ATOM
M  V30 1 O 0.319911 -2.250949 0.550954 0
M  V30 2 C -0.037154 -1.767104 1.676444 0
M  V30 3 C 0.501994 -1.541867 3.055393 0
M  V30 4 N 1.859328 -2.049498 3.057291 0
M  V30 5 C 2.926266 -1.583741 2.279935 0
M  V30 6 C 4.199990 -2.125286 2.320568 0
M  V30 7 C 5.184615 -1.566522 1.496094 0
M  V30 8 C 4.865342 -0.493756 0.665574 0
M  V30 9 C 3.572052 0.066356 0.615732 0
M  V30 10 O 3.640876 1.073237 -0.289751 0
M  V30 11 C 2.646687 1.931899 -0.692988 0
M  V30 12 C 2.056162 2.791185 0.339730 0
M  V30 13 C 2.847022 3.929000 0.523918 0
M  V30 14 C 2.516540 4.933434 1.437352 0
M  V30 15 C 1.367056 4.796996 2.185240 0
M  V30 16 C 0.570191 3.684899 2.022233 0
M  V30 17 C 0.923100 2.712193 1.113282 0
M  V30 18 C 2.661999 -0.533835 1.450787 0
M  V30 19 N -1.394375 -1.319807 1.472631 0
M  V30 20 N -1.839496 -1.564425 0.145585 0
M  V30 21 C -2.942706 -2.197657 -0.070769 0
M  V30 22 C -3.931270 -2.774880 0.876554 0
M  V30 23 C -4.257170 -4.186924 0.522601 0
M  V30 24 C -4.601349 -4.437156 -0.903051 0
M  V30 25 C -4.080457 -3.464855 -1.868039 0
M  V30 26 C -4.424775 -3.678112 -3.189711 0
M  V30 27 N -3.985636 -2.826502 -4.151344 0
M  V30 28 C -3.213014 -1.770852 -3.821066 0
M  V30 29 C -2.856752 -1.541004 -2.495236 0
M  V30 30 C -3.280854 -2.381033 -1.486532 0
M  V30 31 H 0.536738 -0.461899 3.299814 0
M  V30 32 H -0.122819 -2.042712 3.792969 0
M  V30 33 H 2.071359 -2.846373 3.703410 0
M  V30 34 H 4.342977 -2.944049 2.988880 0
M  V30 35 H 6.113597 -2.072127 1.622629 0
M  V30 36 H 5.775071 -0.239210 0.132881 0
M  V30 37 H 1.794678 1.347482 -1.150109 0
M  V30 38 H 3.038966 2.518222 -1.561901 0
M  V30 39 H 3.783347 4.184473 0.011194 0
M  V30 40 H 3.090540 5.822684 1.613500 0
M  V30 41 H 1.008798 5.511325 2.925137 0
M  V30 42 H -0.353161 3.464180 2.548413 0
M  V30 43 H 0.363456 1.812544 0.904423 0
M  V30 44 H 1.722880 -0.039950 1.334576 0
M  V30 45 H -2.041086 -0.856953 2.179414 0
M  V30 46 H -4.870411 -2.163128 0.773247 0
M  V30 47 H -3.610617 -2.746058 1.924406 0
M  V30 48 H -5.168673 -4.466804 1.127328 0
M  V30 49 H -3.464158 -4.885996 0.916810 0
M  V30 50 H -4.129152 -5.426771 -1.173470 0
M  V30 51 H -5.702533 -4.602487 -1.084293 0
M  V30 52 H -5.043438 -4.511984 -3.506541 0
M  V30 53 H -2.825102 -1.048011 -4.535988 0
M  V30 54 H -2.234419 -0.693283 -2.217443 0
M  V30 END ATOM
M  V30 BEGIN BOND
M  V30 1 2 1 2
M  V30 2 1 2 3
M  V30 3 1 3 4
M  V30 4 1 4 5
M  V30 5 2 5 6
M  V30 6 1 6 7
M  V30 7 2 7 8
M  V30 8 1 8 9
M  V30 9 1 9 10
M  V30 10 1 10 11
M  V30 11 1 11 12
M  V30 12 2 12 13
M  V30 13 1 13 14
M  V30 14 2 14 15
M  V30 15 1 15 16
M  V30 16 2 16 17
M  V30 17 2 9 18
M  V30 18 1 2 19
M  V30 19 1 19 20
M  V30 20 2 20 21
M  V30 21 1 21 22
M  V30 22 1 22 23
M  V30 23 1 23 24
M  V30 24 1 24 25
M  V30 25 2 25 26
M  V30 26 1 26 27
M  V30 27 2 27 28
M  V30 28 1 28 29
M  V30 29 2 29 30
M  V30 30 1 18 5
M  V30 31 1 30 21
M  V30 32 1 17 12
M  V30 33 1 30 25
M  V30 34 1 3 31
M  V30 35 1 3 32
M  V30 36 1 4 33
M  V30 37 1 6 34
M  V30 38 1 7 35
M  V30 39 1 8 36
M  V30 40 1 11 37
M  V30 41 1 11 38
M  V30 42 1 13 39
M  V30 43 1 14 40
M  V30 44 1 15 41
M  V30 45 1 16 42
M  V30 46 1 17 43
M  V30 47 1 18 44
M  V30 48 1 19 45
M  V30 49 1 22 46
M  V30 50 1 22 47
M  V30 51 1 23 48
M  V30 52 1 23 49
M  V30 53 1 24 50
M  V30 54 1 24 51
M  V30 55 1 26 52
M  V30 56 1 28 53
M  V30 57 1 29 54
M  V30 END BOND
M  V30 END CTAB
M  END
>  <Dataset>  (553) 
ChEMBL_Kinases

>  <Ligand_Instance>  (553) 
nan

>  <PDB_ID>  (553) 
nan

>  <Standardized_SMILES>  (553) 
O=C(CNc1cccc(OCc2ccccc2)c1)N/N=C1\CCCc2cnccc21

>  <Name>  (553) 
nan

>  <Pocket>  (553) 
nan

>  <ATP_Site>  (553) 
nan

>  <Peripheral>  (553) 
nan

>  <Num_H_Atoms_ProtBoundConf>  (553) 
nan

>  <Num_Resolved_Atoms>  (553) 
nan

>  <Num_Not_Resolved_Atoms>  (553) 
nan

$$$$
CHEMBL4072220
     RDKit          3D

  0  0  0  0  0  0  0  0  0  0999 V3000
M  V30 BEGIN CTAB
M  V30 COUNTS 49 53 0 0 0
M  V30 BEGIN ATOM
M  V30 1 C -0.155547 -7.333096 -1.094463 0
M  V30 2 O -0.901506 -6.284198 -0.504873 0
M  V30 3 C -0.238581 -5.087351 -0.269658 0
M  V30 4 C -1.002139 -4.079924 0.310357 0
M  V30 5 C -0.414677 -2.861385 0.574948 0
M  V30 6 C 0.877970 -2.543512 0.314335 0
M  V30 7 C 1.532566 -1.263976 0.566785 0
M  V30 8 C 2.897881 -1.352200 0.882295 0
M  V30 9 C 3.712253 -0.274849 1.147429 0
M  V30 10 C 3.110678 0.959429 1.089659 0
M  V30 11 N 3.928219 2.022142 1.354397 0
M  V30 12 C 3.427896 3.269295 1.320598 0
M  V30 13 C 2.092334 3.368277 1.011790 0
M  V30 14 N 1.327186 4.467546 0.901297 0
M  V30 15 N 0.122877 4.086808 0.588732 0
M  V30 16 N -0.005937 2.743883 0.469852 0
M  V30 17 C -1.257710 2.123850 0.124236 0 CFG=1
M  V30 18 C -1.403758 1.525321 -1.223922 0
M  V30 19 C -2.000224 1.508083 1.248073 0
M  V30 20 C -2.139837 2.307870 2.394505 0
M  V30 21 C -2.806596 1.906704 3.514182 0
M  V30 22 C -3.395462 0.663585 3.585558 0
M  V30 23 F -4.077047 0.153160 4.626713 0
M  V30 24 C -3.276473 -0.140590 2.481602 0
M  V30 25 C -2.600478 0.279300 1.359787 0
M  V30 26 C 1.216536 2.336444 0.735464 0
M  V30 27 C 1.794959 1.100389 0.789177 0
M  V30 28 C 1.006112 0.013692 0.529880 0
M  V30 29 C 1.626765 -3.573801 -0.269484 0
M  V30 30 C 1.081460 -4.805998 -0.551064 0
M  V30 31 H 0.540963 -7.731737 -0.313298 0
M  V30 32 H 0.445030 -6.962791 -1.942896 0
M  V30 33 H -0.846332 -8.138599 -1.439080 0
M  V30 34 H -2.049560 -4.239670 0.556651 0
M  V30 35 H -1.024058 -2.114028 1.021880 0
M  V30 36 H 3.393969 -2.313956 0.935350 0
M  V30 37 H 4.758022 -0.378599 1.386709 0
M  V30 38 H 4.009185 4.160909 1.518196 0
M  V30 39 H -1.947906 3.042536 -0.008783 0
M  V30 40 H -1.740597 0.462176 -1.256060 0
M  V30 41 H -2.117618 2.014525 -1.917123 0
M  V30 42 H -0.425874 1.641340 -1.780965 0
M  V30 43 H -1.704897 3.306229 2.424314 0
M  V30 44 H -2.904926 2.536088 4.390027 0
M  V30 45 H -3.703096 -1.121942 2.449677 0
M  V30 46 H -2.485764 -0.321050 0.465547 0
M  V30 47 H 0.003497 -0.079111 0.291848 0
M  V30 48 H 2.669412 -3.493381 -0.544074 0
M  V30 49 H 1.643728 -5.611288 -1.000503 0
M  V30 END ATOM
M  V30 BEGIN BOND
M  V30 1 1 1 2
M  V30 2 1 2 3
M  V30 3 2 3 4
M  V30 4 1 4 5
M  V30 5 2 5 6
M  V30 6 1 6 7
M  V30 7 2 7 8
M  V30 8 1 8 9
M  V30 9 2 9 10
M  V30 10 1 10 11
M  V30 11 2 11 12
M  V30 12 1 12 13
M  V30 13 1 13 14
M  V30 14 2 14 15
M  V30 15 1 15 16
M  V30 16 1 16 17
M  V30 17 1 17 18
M  V30 18 1 17 19
M  V30 19 2 19 20
M  V30 20 1 20 21
M  V30 21 2 21 22
M  V30 22 1 22 23
M  V30 23 1 22 24
M  V30 24 2 24 25
M  V30 25 1 16 26
M  V30 26 1 26 27
M  V30 27 2 27 28
M  V30 28 1 6 29
M  V30 29 2 29 30
M  V30 30 1 30 3
M  V30 31 1 28 7
M  V30 32 1 27 10
M  V30 33 2 26 13
M  V30 34 1 25 19
M  V30 35 1 1 31
M  V30 36 1 1 32
M  V30 37 1 1 33
M  V30 38 1 4 34
M  V30 39 1 5 35
M  V30 40 1 8 36
M  V30 41 1 9 37
M  V30 42 1 12 38
M  V30 43 1 17 39 CFG=3
M  V30 44 1 18 40
M  V30 45 1 18 41
M  V30 46 1 18 42
M  V30 47 1 20 43
M  V30 48 1 21 44
M  V30 49 1 24 45
M  V30 50 1 25 46
M  V30 51 1 28 47
M  V30 52 1 29 48
M  V30 53 1 30 49
M  V30 END BOND
M  V30 END CTAB
M  END
>  <Dataset>  (554) 
ChEMBL_Kinases

>  <Ligand_Instance>  (554) 
nan

>  <PDB_ID>  (554) 
nan

>  <Standardized_SMILES>  (554) 
COc1ccc(-c2ccc3ncc4nnn([C@@H](C)c5ccc(F)cc5)c4c3c2)cc1

>  <Name>  (554) 
nan

>  <Pocket>  (554) 
nan

>  <ATP_Site>  (554) 
nan

>  <Peripheral>  (554) 
nan

>  <Num_H_Atoms_ProtBoundConf>  (554) 
nan

>  <Num_Resolved_Atoms>  (554) 
nan

>  <Num_Not_Resolved_Atoms>  (554) 
nan

$$$$
CHEMBL4859773
     RDKit          3D

  0  0  0  0  0  0  0  0  0  0999 V3000
M  V30 BEGIN CTAB
M  V30 COUNTS 58 61 0 0 0
M  V30 BEGIN ATOM
M  V30 1 C 2.671774 -2.888702 4.664890 0
M  V30 2 O 2.158508 -1.982965 3.733863 0
M  V30 3 C 2.162984 -2.144071 2.360073 0
M  V30 4 C 2.694685 -3.277578 1.754900 0
M  V30 5 C 2.708271 -3.463239 0.374261 0
M  V30 6 C 2.172256 -2.485352 -0.454348 0
M  V30 7 C 1.645904 -1.362433 0.147398 0
M  V30 8 C 1.645424 -1.204368 1.514809 0
M  V30 9 N 1.102775 -0.032789 2.105013 0
M  V30 10 C 0.497303 1.138637 1.571223 0
M  V30 11 N 1.263177 2.194273 1.240794 0
M  V30 12 C 0.761410 3.349438 0.726696 0
M  V30 13 C -0.606382 3.290976 0.594294 0
M  V30 14 C -1.241531 4.477482 0.049477 0
M  V30 15 N -0.681942 5.704264 -0.380838 0
M  V30 16 O -2.238933 5.124491 -0.319248 0
M  V30 17 C -1.464108 2.261916 0.903742 0
M  V30 18 N -2.861803 2.363673 0.704132 0
M  V30 19 C -3.655266 1.245077 1.053605 0
M  V30 20 C -4.129289 1.184116 2.351920 0
M  V30 21 F -3.850464 2.153459 3.271945 0
M  V30 22 C -4.912495 0.141236 2.798951 0
M  V30 23 C -5.202638 -0.853179 1.868741 0
M  V30 24 C -4.730371 -0.801969 0.558030 0
M  V30 25 C -3.952238 0.247892 0.138421 0
M  V30 26 C -3.402892 0.396166 -1.234281 0
M  V30 27 O -2.056169 0.090776 -1.295572 0
M  V30 28 N -0.861869 1.168799 1.404798 0
M  V30 29 C 2.190350 -2.692490 -1.918043 0
M  V30 30 N 1.859861 -4.101527 -2.105292 0
M  V30 31 C 1.677507 -4.341991 -3.504365 0
M  V30 32 C 3.001736 -4.841011 -1.639314 0
M  V30 33 C 3.294991 -4.703309 -0.184019 0
M  V30 34 H 1.853828 -3.569249 5.040499 0
M  V30 35 H 3.528557 -3.426324 4.259923 0
M  V30 36 H 3.055408 -2.282878 5.528561 0
M  V30 37 H 3.128328 -4.075377 2.361562 0
M  V30 38 H 1.242409 -0.632693 -0.539339 0
M  V30 39 H 1.078137 0.133021 3.133911 0
M  V30 40 H 1.323596 4.216801 0.447536 0
M  V30 41 H -0.015774 6.293232 -0.900682 0
M  V30 42 H 0.146175 5.855154 -1.031429 0
M  V30 43 H -3.346974 3.196287 0.321513 0
M  V30 44 H -5.310606 0.042340 3.802861 0
M  V30 45 H -5.814283 -1.690183 2.178300 0
M  V30 46 H -4.970483 -1.588687 -0.144678 0
M  V30 47 H -3.637722 1.398682 -1.651119 0
M  V30 48 H -3.952269 -0.335410 -1.859732 0
M  V30 49 H -1.832511 -0.602990 -0.618291 0
M  V30 50 H 3.206428 -2.491836 -2.300095 0
M  V30 51 H 1.468153 -2.025616 -2.421034 0
M  V30 52 H 1.160429 -5.300078 -3.689001 0
M  V30 53 H 1.041810 -3.566800 -3.978079 0
M  V30 54 H 2.651493 -4.278129 -4.049107 0
M  V30 55 H 3.872431 -4.507324 -2.250915 0
M  V30 56 H 2.829299 -5.907830 -1.954323 0
M  V30 57 H 2.983877 -5.603501 0.391508 0
M  V30 58 H 4.394348 -4.644160 -0.047740 0
M  V30 END ATOM
M  V30 BEGIN BOND
M  V30 1 1 1 2
M  V30 2 1 2 3
M  V30 3 2 3 4
M  V30 4 1 4 5
M  V30 5 2 5 6
M  V30 6 1 6 7
M  V30 7 2 7 8
M  V30 8 1 8 9
M  V30 9 1 9 10
M  V30 10 2 10 11
M  V30 11 1 11 12
M  V30 12 2 12 13
M  V30 13 1 13 14
M  V30 14 1 14 15
M  V30 15 2 14 16
M  V30 16 1 13 17
M  V30 17 1 17 18
M  V30 18 1 18 19
M  V30 19 2 19 20
M  V30 20 1 20 21
M  V30 21 1 20 22
M  V30 22 2 22 23
M  V30 23 1 23 24
M  V30 24 2 24 25
M  V30 25 1 25 26
M  V30 26 1 26 27
M  V30 27 2 17 28
M  V30 28 1 6 29
M  V30 29 1 29 30
M  V30 30 1 30 31
M  V30 31 1 30 32
M  V30 32 1 32 33
M  V30 33 1 8 3
M  V30 34 1 28 10
M  V30 35 1 33 5
M  V30 36 1 25 19
M  V30 37 1 1 34
M  V30 38 1 1 35
M  V30 39 1 1 36
M  V30 40 1 4 37
M  V30 41 1 7 38
M  V30 42 1 9 39
M  V30 43 1 12 40
M  V30 44 1 15 41
M  V30 45 1 15 42
M  V30 46 1 18 43
M  V30 47 1 22 44
M  V30 48 1 23 45
M  V30 49 1 24 46
M  V30 50 1 26 47
M  V30 51 1 26 48
M  V30 52 1 27 49
M  V30 53 1 29 50
M  V30 54 1 29 51
M  V30 55 1 31 52
M  V30 56 1 31 53
M  V30 57 1 31 54
M  V30 58 1 32 55
M  V30 59 1 32 56
M  V30 60 1 33 57
M  V30 61 1 33 58
M  V30 END BOND
M  V30 END CTAB
M  END
>  <Dataset>  (555) 
ChEMBL_Kinases

>  <Ligand_Instance>  (555) 
nan

>  <PDB_ID>  (555) 
nan

>  <Standardized_SMILES>  (555) 
COc1cc2c(cc1Nc1ncc(C(N)=O)c(Nc3c(F)cccc3CO)n1)CN(C)CC2

>  <Name>  (555) 
nan

>  <Pocket>  (555) 
nan

>  <ATP_Site>  (555) 
nan

>  <Peripheral>  (555) 
nan

>  <Num_H_Atoms_ProtBoundConf>  (555) 
nan

>  <Num_Resolved_Atoms>  (555) 
nan

>  <Num_Not_Resolved_Atoms>  (555) 
nan

$$$$
CHEMBL4072195
     RDKit          3D

  0  0  0  0  0  0  0  0  0  0999 V3000
M  V30 BEGIN CTAB
M  V30 COUNTS 46 49 0 0 0
M  V30 BEGIN ATOM
M  V30 1 O 0.952430 -0.098540 -1.012277 0
M  V30 2 C 1.165438 0.821427 -0.133731 0
M  V30 3 N 1.479058 2.067732 -0.624263 0
M  V30 4 C 1.532875 2.161914 -2.041310 0
M  V30 5 C 0.404563 2.465130 -2.764528 0
M  V30 6 C 0.414860 2.566074 -4.134265 0
M  V30 7 C 1.650970 2.337172 -4.704101 0
M  V30 8 N 2.760916 2.040969 -4.005335 0
M  V30 9 C 2.735013 1.945181 -2.664464 0
M  V30 10 C 0.872695 -0.329632 0.630504 0
M  V30 11 C 1.129459 0.613720 1.791722 0
M  V30 12 C 1.076354 0.356634 3.215975 0
M  V30 13 C 1.309895 1.244564 4.367786 0
M  V30 14 C 0.987471 2.588339 4.321603 0
M  V30 15 N 1.389928 3.032426 5.523504 0
M  V30 16 N 1.907209 2.029944 6.219754 0
M  V30 17 C 1.887892 0.859248 5.543198 0
M  V30 18 C 0.741659 -0.941453 3.618278 0
M  V30 19 C 0.495433 -1.850413 2.653334 0
M  V30 20 C 0.596614 -1.414970 1.393713 0
M  V30 21 O 0.413384 -2.061024 0.153639 0
M  V30 22 C 0.066118 -3.349471 -0.138990 0
M  V30 23 C -1.229938 -3.852136 0.309916 0
M  V30 24 C -1.681579 -4.577991 1.371845 0
M  V30 25 C -2.963946 -4.965616 1.665696 0
M  V30 26 C -3.958127 -4.574739 0.766679 0
M  V30 27 F -5.223219 -4.937824 1.026254 0
M  V30 28 C -3.581272 -3.844478 -0.323416 0
M  V30 29 C -2.258107 -3.474187 -0.576592 0
M  V30 30 H 1.569183 2.523243 0.305353 0
M  V30 31 H -0.507132 2.625447 -2.191038 0
M  V30 32 H -0.478730 2.803914 -4.691119 0
M  V30 33 H 1.731191 2.401550 -5.785692 0
M  V30 34 H 3.616409 1.705145 -2.068000 0
M  V30 35 H 1.414111 1.693684 2.008102 0
M  V30 36 H 0.520325 3.122220 3.497041 0
M  V30 37 H 2.309488 2.048018 7.185495 0
M  V30 38 H 2.232340 -0.118117 5.840944 0
M  V30 39 H 0.629720 -1.404869 4.573152 0
M  V30 40 H 0.235620 -2.874299 2.611565 0
M  V30 41 H 0.150116 -3.559703 -1.243749 0
M  V30 42 H 0.896026 -4.011579 0.285092 0
M  V30 43 H -0.862850 -4.863017 2.031398 0
M  V30 44 H -3.113694 -5.543116 2.563596 0
M  V30 45 H -4.387477 -3.559007 -0.997093 0
M  V30 46 H -2.140394 -2.893982 -1.487274 0
M  V30 END ATOM
M  V30 BEGIN BOND
M  V30 1 2 1 2
M  V30 2 1 2 3
M  V30 3 1 3 4
M  V30 4 2 4 5
M  V30 5 1 5 6
M  V30 6 2 6 7
M  V30 7 1 7 8
M  V30 8 2 8 9
M  V30 9 1 2 10
M  V30 10 2 10 11
M  V30 11 1 11 12
M  V30 12 1 12 13
M  V30 13 1 13 14
M  V30 14 2 14 15
M  V30 15 1 15 16
M  V30 16 1 16 17
M  V30 17 2 12 18
M  V30 18 1 18 19
M  V30 19 2 19 20
M  V30 20 1 20 21
M  V30 21 1 21 22
M  V30 22 1 22 23
M  V30 23 2 23 24
M  V30 24 1 24 25
M  V30 25 2 25 26
M  V30 26 1 26 27
M  V30 27 1 26 28
M  V30 28 2 28 29
M  V30 29 1 9 4
M  V30 30 1 20 10
M  V30 31 1 29 23
M  V30 32 2 17 13
M  V30 33 1 3 30
M  V30 34 1 5 31
M  V30 35 1 6 32
M  V30 36 1 7 33
M  V30 37 1 9 34
M  V30 38 1 11 35
M  V30 39 1 14 36
M  V30 40 1 16 37
M  V30 41 1 17 38
M  V30 42 1 18 39
M  V30 43 1 19 40
M  V30 44 1 22 41
M  V30 45 1 22 42
M  V30 46 1 24 43
M  V30 47 1 25 44
M  V30 48 1 28 45
M  V30 49 1 29 46
M  V30 END BOND
M  V30 END CTAB
M  END
>  <Dataset>  (556) 
ChEMBL_Kinases

>  <Ligand_Instance>  (556) 
nan

>  <PDB_ID>  (556) 
nan

>  <Standardized_SMILES>  (556) 
O=C(Nc1cccnc1)c1cc(-c2cn[nH]c2)ccc1OCc1ccc(F)cc1

>  <Name>  (556) 
nan

>  <Pocket>  (556) 
nan

>  <ATP_Site>  (556) 
nan

>  <Peripheral>  (556) 
nan

>  <Num_H_Atoms_ProtBoundConf>  (556) 
nan

>  <Num_Resolved_Atoms>  (556) 
nan

>  <Num_Not_Resolved_Atoms>  (556) 
nan

$$$$
CHEMBL4859892
     RDKit          3D

  0  0  0  0  0  0  0  0  0  0999 V3000
M  V30 BEGIN CTAB
M  V30 COUNTS 67 73 0 0 0
M  V30 BEGIN ATOM
M  V30 1 C 1.272423 1.508246 3.337669 0
M  V30 2 C 2.035159 0.983411 4.499157 0
M  V30 3 C 1.093319 0.025576 5.246798 0
M  V30 4 N 3.226082 0.247464 4.193597 0
M  V30 5 C 3.803007 -0.521237 5.166530 0
M  V30 6 N 4.888296 -1.097398 4.634717 0
M  V30 7 N 4.990674 -0.705293 3.371513 0
M  V30 8 C 3.961050 0.131572 3.088195 0
M  V30 9 C 3.715068 0.776309 1.812152 0
M  V30 10 C 4.507380 1.924337 1.692189 0
M  V30 11 C 4.457048 2.722680 0.544530 0
M  V30 12 C 3.610751 2.367305 -0.481641 0
M  V30 13 N 3.273190 2.834173 -1.698231 0
M  V30 14 N 2.373090 2.085816 -2.298990 0
M  V30 15 C 2.042025 1.035434 -1.491592 0
M  V30 16 C 1.086753 -0.035727 -1.761897 0
M  V30 17 C 1.017110 -0.718698 -2.959349 0
M  V30 18 C 0.108472 -1.728809 -3.206427 0
M  V30 19 C -0.785091 -2.091380 -2.221976 0
M  V30 20 N -1.756054 -3.131405 -2.411850 0
M  V30 21 C -3.215699 -3.006482 -2.337771 0
M  V30 22 C -3.743232 -3.378814 -3.713787 0
M  V30 23 O -3.455013 -4.749298 -3.856460 0
M  V30 24 C -2.088446 -4.945075 -3.938871 0
M  V30 25 C -1.333985 -4.489812 -2.714293 0
M  V30 26 C -0.766208 -1.438805 -0.987625 0
M  V30 27 N -1.688526 -1.812157 0.031681 0
M  V30 28 C -2.049111 -2.960875 0.623865 0
M  V30 29 N -3.008640 -2.693756 1.557930 0
M  V30 30 C -3.262511 -1.372326 1.563658 0
M  V30 31 C -4.248131 -0.671269 2.440358 0
M  V30 32 C -4.002509 0.758518 2.709774 0
M  V30 33 C -5.076918 0.440355 1.745897 0
M  V30 34 C -2.432654 -0.820280 0.604609 0
M  V30 35 C 0.163227 -0.449812 -0.821186 0
M  V30 36 C 2.831143 1.235907 -0.360869 0
M  V30 37 C 2.870977 0.440911 0.763476 0
M  V30 38 H 0.772015 0.735919 2.720767 0
M  V30 39 H 0.408667 2.101161 3.768028 0
M  V30 40 H 1.843233 2.260790 2.763058 0
M  V30 41 H 2.245157 1.832802 5.184617 0
M  V30 42 H 1.518377 -0.151184 6.263091 0
M  V30 43 H 1.072965 -0.943869 4.705456 0
M  V30 44 H 0.110852 0.513767 5.345452 0
M  V30 45 H 3.528240 -0.712571 6.215680 0
M  V30 46 H 5.214146 2.321110 2.417345 0
M  V30 47 H 5.037190 3.607447 0.398361 0
M  V30 48 H 3.690467 3.712528 -2.124833 0
M  V30 49 H 1.717913 -0.439002 -3.740571 0
M  V30 50 H 0.070604 -2.251464 -4.149686 0
M  V30 51 H -3.618625 -3.803474 -1.662412 0
M  V30 52 H -3.530398 -2.008775 -2.001915 0
M  V30 53 H -4.855176 -3.313300 -3.641205 0
M  V30 54 H -3.311543 -2.764781 -4.523163 0
M  V30 55 H -1.719995 -4.319118 -4.789036 0
M  V30 56 H -1.910062 -6.010643 -4.148832 0
M  V30 57 H -0.261759 -4.540946 -2.961287 0
M  V30 58 H -1.570893 -5.203442 -1.889300 0
M  V30 59 H -1.568400 -3.888079 0.308514 0
M  V30 60 H -4.797242 -1.335136 3.123784 0
M  V30 61 H -3.087412 1.207089 2.270286 0
M  V30 62 H -4.355724 1.260352 3.643333 0
M  V30 63 H -6.147750 0.527328 2.024271 0
M  V30 64 H -4.887983 0.579509 0.651755 0
M  V30 65 H -2.461471 0.261785 0.424928 0
M  V30 66 H 0.127787 0.021661 0.158824 0
M  V30 67 H 2.324065 -0.456984 0.983988 0
M  V30 END ATOM
M  V30 BEGIN BOND
M  V30 1 1 1 2
M  V30 2 1 2 3
M  V30 3 1 2 4
M  V30 4 1 4 5
M  V30 5 2 5 6
M  V30 6 1 6 7
M  V30 7 2 7 8
M  V30 8 1 8 9
M  V30 9 2 9 10
M  V30 10 1 10 11
M  V30 11 2 11 12
M  V30 12 1 12 13
M  V30 13 1 13 14
M  V30 14 2 14 15
M  V30 15 1 15 16
M  V30 16 2 16 17
M  V30 17 1 17 18
M  V30 18 2 18 19
M  V30 19 1 19 20
M  V30 20 1 20 21
M  V30 21 1 21 22
M  V30 22 1 22 23
M  V30 23 1 23 24
M  V30 24 1 24 25
M  V30 25 1 19 26
M  V30 26 1 26 27
M  V30 27 1 27 28
M  V30 28 2 28 29
M  V30 29 1 29 30
M  V30 30 1 30 31
M  V30 31 1 31 32
M  V30 32 1 32 33
M  V30 33 2 30 34
M  V30 34 2 26 35
M  V30 35 1 15 36
M  V30 36 2 36 37
M  V30 37 1 8 4
M  V30 38 1 37 9
M  V30 39 1 36 12
M  V30 40 1 35 16
M  V30 41 1 25 20
M  V30 42 1 34 27
M  V30 43 1 33 31
M  V30 44 1 1 38
M  V30 45 1 1 39
M  V30 46 1 1 40
M  V30 47 1 2 41
M  V30 48 1 3 42
M  V30 49 1 3 43
M  V30 50 1 3 44
M  V30 51 1 5 45
M  V30 52 1 10 46
M  V30 53 1 11 47
M  V30 54 1 13 48
M  V30 55 1 17 49
M  V30 56 1 18 50
M  V30 57 1 21 51
M  V30 58 1 21 52
M  V30 59 1 22 53
M  V30 60 1 22 54
M  V30 61 1 24 55
M  V30 62 1 24 56
M  V30 63 1 25 57
M  V30 64 1 25 58
M  V30 65 1 28 59
M  V30 66 1 31 60
M  V30 67 1 32 61
M  V30 68 1 32 62
M  V30 69 1 33 63
M  V30 70 1 33 64
M  V30 71 1 34 65
M  V30 72 1 35 66
M  V30 73 1 37 67
M  V30 END BOND
M  V30 END CTAB
M  END
>  <Dataset>  (557) 
ChEMBL_Kinases

>  <Ligand_Instance>  (557) 
nan

>  <PDB_ID>  (557) 
nan

>  <Standardized_SMILES>  (557) 
CC(C)n1cnnc1-c1ccc2[nH]nc(-c3ccc(N4CCOCC4)c(-n4cnc(C5CC5)c4)c3)c2c1

>  <Name>  (557) 
nan

>  <Pocket>  (557) 
nan

>  <ATP_Site>  (557) 
nan

>  <Peripheral>  (557) 
nan

>  <Num_H_Atoms_ProtBoundConf>  (557) 
nan

>  <Num_Resolved_Atoms>  (557) 
nan

>  <Num_Not_Resolved_Atoms>  (557) 
nan

$$$$
CHEMBL4072106
     RDKit          3D

  0  0  0  0  0  0  0  0  0  0999 V3000
M  V30 BEGIN CTAB
M  V30 COUNTS 61 65 0 0 0
M  V30 BEGIN ATOM
M  V30 1 C 4.956492 -0.110900 2.079628 0
M  V30 2 N 4.363460 0.583824 3.197231 0
M  V30 3 C 4.533920 0.158092 4.468142 0
M  V30 4 N 3.861781 1.013718 5.248774 0
M  V30 5 C 3.289936 1.947537 4.464030 0
M  V30 6 C 2.502471 3.041705 4.736665 0
M  V30 7 C 2.023717 3.871171 3.748834 0
M  V30 8 C 2.331859 3.615920 2.428803 0
M  V30 9 C 2.020046 4.351847 1.214218 0
M  V30 10 C 2.653587 5.572048 1.140990 0
M  V30 11 C 2.482638 6.281013 -0.024361 0
M  V30 12 N 1.730559 5.777375 -1.016336 0
M  V30 13 C 1.136984 4.585129 -0.887768 0
M  V30 14 C 1.240904 3.793276 0.237519 0
M  V30 15 C 0.481923 2.588107 0.286751 0
M  V30 16 C 0.117565 1.702631 1.170708 0
M  V30 17 C -0.666559 0.501708 1.075917 0
M  V30 18 O -0.861146 -0.182153 2.139541 0
M  V30 19 N -1.260607 -0.024208 -0.077623 0
M  V30 20 C -2.045346 -1.179292 -0.309025 0
M  V30 21 C -2.419856 -2.111256 0.619301 0
M  V30 22 C -3.184556 -3.225885 0.359076 0
M  V30 23 C -3.615323 -3.436415 -0.929506 0
M  V30 24 C -4.442997 -4.586388 -1.375943 0
M  V30 25 N -3.601594 -5.644736 -1.800926 0
M  V30 26 C -4.219011 -6.838548 -2.251222 0
M  V30 27 C -3.217985 -7.950004 -2.381856 0
M  V30 28 O -1.979266 -7.544291 -2.793862 0
M  V30 29 C -1.404913 -6.510907 -2.103867 0
M  V30 30 C -2.346728 -5.789545 -1.156190 0
M  V30 31 C -3.262547 -2.523849 -1.899593 0
M  V30 32 C -2.496261 -1.426705 -1.584359 0
M  V30 33 C 3.136217 2.501551 2.128070 0
M  V30 34 C 3.599360 1.688803 3.154920 0
M  V30 35 H 4.778756 -1.218775 2.196902 0
M  V30 36 H 4.426968 0.202428 1.159875 0
M  V30 37 H 6.049122 0.036438 2.005561 0
M  V30 38 H 5.047463 -0.646935 4.938708 0
M  V30 39 H 2.207615 3.324333 5.730680 0
M  V30 40 H 1.405263 4.748044 3.842498 0
M  V30 41 H 3.258015 5.993140 1.919842 0
M  V30 42 H 2.928692 7.236870 -0.185985 0
M  V30 43 H 0.546958 4.273648 -1.762979 0
M  V30 44 H 0.049094 2.231599 -0.662546 0
M  V30 45 H 0.480702 1.991328 2.170358 0
M  V30 46 H -1.056235 0.592237 -0.906478 0
M  V30 47 H -2.116184 -2.002621 1.637927 0
M  V30 48 H -3.462883 -3.943452 1.114412 0
M  V30 49 H -5.116660 -4.901163 -0.542529 0
M  V30 50 H -5.135184 -4.227262 -2.183460 0
M  V30 51 H -4.654229 -6.642305 -3.268175 0
M  V30 52 H -5.043426 -7.217986 -1.619748 0
M  V30 53 H -3.605153 -8.640574 -3.183712 0
M  V30 54 H -3.222666 -8.542185 -1.458468 0
M  V30 55 H -0.458175 -6.765675 -1.569123 0
M  V30 56 H -1.126354 -5.746344 -2.888315 0
M  V30 57 H -2.379897 -6.271971 -0.159339 0
M  V30 58 H -1.886182 -4.792924 -0.996374 0
M  V30 59 H -3.586049 -2.658628 -2.931201 0
M  V30 60 H -2.253801 -0.742636 -2.405426 0
M  V30 61 H 3.457891 2.180379 1.135843 0
M  V30 END ATOM
M  V30 BEGIN BOND
M  V30 1 1 1 2
M  V30 2 1 2 3
M  V30 3 2 3 4
M  V30 4 1 4 5
M  V30 5 2 5 6
M  V30 6 1 6 7
M  V30 7 2 7 8
M  V30 8 1 8 9
M  V30 9 2 9 10
M  V30 10 1 10 11
M  V30 11 2 11 12
M  V30 12 1 12 13
M  V30 13 2 13 14
M  V30 14 1 14 15
M  V30 15 2 15 16
M  V30 16 1 16 17
M  V30 17 2 17 18
M  V30 18 1 17 19
M  V30 19 1 19 20
M  V30 20 2 20 21
M  V30 21 1 21 22
M  V30 22 2 22 23
M  V30 23 1 23 24
M  V30 24 1 24 25
M  V30 25 1 25 26
M  V30 26 1 26 27
M  V30 27 1 27 28
M  V30 28 1 28 29
M  V30 29 1 29 30
M  V30 30 1 23 31
M  V30 31 2 31 32
M  V30 32 1 8 33
M  V30 33 2 33 34
M  V30 34 1 34 2
M  V30 35 1 34 5
M  V30 36 1 14 9
M  V30 37 1 32 20
M  V30 38 1 30 25
M  V30 39 1 1 35
M  V30 40 1 1 36
M  V30 41 1 1 37
M  V30 42 1 3 38
M  V30 43 1 6 39
M  V30 44 1 7 40
M  V30 45 1 10 41
M  V30 46 1 11 42
M  V30 47 1 13 43
M  V30 48 1 15 44
M  V30 49 1 16 45
M  V30 50 1 19 46
M  V30 51 1 21 47
M  V30 52 1 22 48
M  V30 53 1 24 49
M  V30 54 1 24 50
M  V30 55 1 26 51
M  V30 56 1 26 52
M  V30 57 1 27 53
M  V30 58 1 27 54
M  V30 59 1 29 55
M  V30 60 1 29 56
M  V30 61 1 30 57
M  V30 62 1 30 58
M  V30 63 1 31 59
M  V30 64 1 32 60
M  V30 65 1 33 61
M  V30 END BOND
M  V30 END CTAB
M  END
>  <Dataset>  (558) 
ChEMBL_Kinases

>  <Ligand_Instance>  (558) 
nan

>  <PDB_ID>  (558) 
nan

>  <Standardized_SMILES>  (558) 
Cn1cnc2ccc(-c3ccncc3/C=C/C(=O)Nc3ccc(CN4CCOCC4)cc3)cc21

>  <Name>  (558) 
nan

>  <Pocket>  (558) 
nan

>  <ATP_Site>  (558) 
nan

>  <Peripheral>  (558) 
nan

>  <Num_H_Atoms_ProtBoundConf>  (558) 
nan

>  <Num_Resolved_Atoms>  (558) 
nan

>  <Num_Not_Resolved_Atoms>  (558) 
nan

$$$$
CHEMBL4071952
     RDKit          3D

  0  0  0  0  0  0  0  0  0  0999 V3000
M  V30 BEGIN CTAB
M  V30 COUNTS 55 59 0 0 0
M  V30 BEGIN ATOM
M  V30 1 N -1.389756 -1.736541 6.202358 0
M  V30 2 C -0.103212 -1.160124 6.375211 0
M  V30 3 O 0.473183 -1.039386 7.474711 0
M  V30 4 C 0.633755 -0.661402 5.221377 0
M  V30 5 C 1.873133 -0.098599 5.332453 0
M  V30 6 N 2.406974 0.304758 4.188746 0
M  V30 7 C 1.898134 0.233880 2.957865 0
M  V30 8 N 2.712118 0.746993 1.911550 0
M  V30 9 C 2.657492 0.953609 0.502433 0 CFG=1
M  V30 10 C 1.644761 2.023154 0.080929 0
M  V30 11 C 2.356221 3.324460 -0.103198 0
M  V30 12 C 3.485656 3.522409 0.876578 0
M  V30 13 N 4.510218 2.549132 0.605810 0
M  V30 14 C 3.967846 1.388860 -0.093625 0
M  V30 15 C 0.650858 -0.323151 2.770635 0
M  V30 16 C -0.099342 -0.530892 1.657100 0
M  V30 17 C -1.287787 -1.096574 1.697496 0
M  V30 18 C -2.331110 -1.461561 0.733611 0
M  V30 19 C -3.526599 -2.067710 1.055683 0
M  V30 20 N -4.154898 -2.204807 -0.150479 0
M  V30 21 N -3.381994 -1.714289 -1.106697 0
M  V30 22 C -3.731812 -1.690902 -2.534700 0
M  V30 23 C -3.246502 -2.960968 -3.182449 0
M  V30 24 C -3.970038 -4.119162 -3.289945 0
M  V30 25 C -3.377453 -5.215077 -3.920932 0
M  V30 26 C -2.096882 -5.150445 -4.428829 0
M  V30 27 C -1.347781 -3.986920 -4.330079 0
M  V30 28 C -1.966650 -2.927901 -3.701164 0
M  V30 29 C -2.205450 -1.223772 -0.620126 0
M  V30 30 S -1.528736 -1.439320 3.439046 0
M  V30 31 C 0.069190 -0.753304 3.949353 0
M  V30 32 H -1.392379 -2.771432 6.169541 0
M  V30 33 H -2.333690 -1.270741 6.103414 0
M  V30 34 H 2.359952 0.000014 6.282504 0
M  V30 35 H 3.672589 1.106991 2.201753 0
M  V30 36 H 2.401327 -0.004079 -0.050258 0
M  V30 37 H 1.239316 1.721776 -0.912286 0
M  V30 38 H 0.781554 2.083716 0.765924 0
M  V30 39 H 2.780367 3.411583 -1.124523 0
M  V30 40 H 1.610097 4.152643 -0.015788 0
M  V30 41 H 3.853554 4.573738 0.744268 0
M  V30 42 H 3.180007 3.438087 1.924692 0
M  V30 43 H 5.211143 3.034797 -0.028206 0
M  V30 44 H 3.773574 1.631074 -1.156170 0
M  V30 45 H 4.730422 0.584869 -0.089670 0
M  V30 46 H 0.172221 -0.278715 0.643883 0
M  V30 47 H -3.925839 -2.379579 1.992158 0
M  V30 48 H -3.239819 -0.827032 -2.997073 0
M  V30 49 H -4.818273 -1.677299 -2.608068 0
M  V30 50 H -4.966828 -4.117286 -2.876239 0
M  V30 51 H -3.947041 -6.116697 -4.002061 0
M  V30 52 H -1.677327 -6.021178 -4.909021 0
M  V30 53 H -0.346346 -3.908276 -4.717448 0
M  V30 54 H -1.361877 -2.018791 -3.631952 0
M  V30 55 H -1.405160 -0.773568 -1.172847 0
M  V30 END ATOM
M  V30 BEGIN BOND
M  V30 1 1 1 2
M  V30 2 2 2 3
M  V30 3 1 2 4
M  V30 4 2 4 5
M  V30 5 1 5 6
M  V30 6 2 6 7
M  V30 7 1 7 8
M  V30 8 1 8 9
M  V30 9 1 9 10
M  V30 10 1 10 11
M  V30 11 1 11 12
M  V30 12 1 12 13
M  V30 13 1 13 14
M  V30 14 1 7 15
M  V30 15 1 15 16
M  V30 16 2 16 17
M  V30 17 1 17 18
M  V30 18 1 18 19
M  V30 19 2 19 20
M  V30 20 1 20 21
M  V30 21 1 21 22
M  V30 22 1 22 23
M  V30 23 2 23 24
M  V30 24 1 24 25
M  V30 25 2 25 26
M  V30 26 1 26 27
M  V30 27 2 27 28
M  V30 28 1 21 29
M  V30 29 1 17 30
M  V30 30 1 30 31
M  V30 31 1 31 4
M  V30 32 1 14 9
M  V30 33 2 31 15
M  V30 34 2 29 18
M  V30 35 1 28 23
M  V30 36 1 1 32
M  V30 37 1 1 33
M  V30 38 1 5 34
M  V30 39 1 8 35
M  V30 40 1 9 36 CFG=3
M  V30 41 1 10 37
M  V30 42 1 10 38
M  V30 43 1 11 39
M  V30 44 1 11 40
M  V30 45 1 12 41
M  V30 46 1 12 42
M  V30 47 1 13 43
M  V30 48 1 14 44
M  V30 49 1 14 45
M  V30 50 1 16 46
M  V30 51 1 19 47
M  V30 52 1 22 48
M  V30 53 1 22 49
M  V30 54 1 24 50
M  V30 55 1 25 51
M  V30 56 1 26 52
M  V30 57 1 27 53
M  V30 58 1 28 54
M  V30 59 1 29 55
M  V30 END BOND
M  V30 END CTAB
M  END
>  <Dataset>  (559) 
ChEMBL_Kinases

>  <Ligand_Instance>  (559) 
nan

>  <PDB_ID>  (559) 
nan

>  <Standardized_SMILES>  (559) 
NC(=O)c1cnc(N[C@H]2CCCNC2)c2cc(-c3cnn(Cc4ccccc4)c3)sc12

>  <Name>  (559) 
nan

>  <Pocket>  (559) 
nan

>  <ATP_Site>  (559) 
nan

>  <Peripheral>  (559) 
nan

>  <Num_H_Atoms_ProtBoundConf>  (559) 
nan

>  <Num_Resolved_Atoms>  (559) 
nan

>  <Num_Not_Resolved_Atoms>  (559) 
nan

$$$$
CHEMBL4859898
     RDKit          3D

  0  0  0  0  0  0  0  0  0  0999 V3000
M  V30 BEGIN CTAB
M  V30 COUNTS 51 54 0 0 0
M  V30 BEGIN ATOM
M  V30 1 C 3.584967 0.940016 5.741824 0
M  V30 2 N 4.551941 1.546173 4.875284 0
M  V30 3 N 5.770977 1.963919 5.305776 0
M  V30 4 C 6.454890 2.476634 4.299412 0
M  V30 5 C 5.740437 2.438733 3.124275 0
M  V30 6 Br 6.149443 3.006952 1.350955 0
M  V30 7 C 4.580398 1.854519 3.549033 0
M  V30 8 C 3.428648 1.555788 2.708620 0
M  V30 9 C 2.817208 2.336420 1.755299 0
M  V30 10 C 1.718783 1.976611 0.997805 0
M  V30 11 F 1.328753 2.944451 0.137054 0
M  V30 12 C 1.148099 0.735619 1.178332 0
M  V30 13 C 0.001300 0.422231 0.339712 0
M  V30 14 O -0.169164 1.143787 -0.685051 0
M  V30 15 N -0.954289 -0.603443 0.541757 0
M  V30 16 C -2.058403 -0.876860 -0.315164 0 CFG=2
M  V30 17 C -3.338372 -0.204924 0.203695 0
M  V30 18 N -4.329389 -0.522360 -0.803674 0
M  V30 19 C -4.820236 -1.852554 -0.525407 0
M  V30 20 C -3.732184 -2.696648 0.023895 0
M  V30 21 C -2.336010 -2.347688 -0.465810 0 CFG=1
M  V30 22 C -2.044957 -2.907572 -1.786091 0
M  V30 23 C -2.382157 -2.377412 -3.035357 0
M  V30 24 C -2.126609 -2.872394 -4.273156 0
M  V30 25 C -1.439127 -4.059631 -4.274999 0
M  V30 26 F -1.148125 -4.589452 -5.506268 0
M  V30 27 C -1.011054 -4.751577 -3.168736 0
M  V30 28 F -0.342231 -5.916917 -3.181617 0
M  V30 29 C -1.348167 -4.118209 -1.966853 0
M  V30 30 C 1.747935 -0.049701 2.123242 0
M  V30 31 F 1.208613 -1.286137 2.318019 0
M  V30 32 C 2.833581 0.275665 2.885369 0
M  V30 33 H 3.846944 -0.118112 5.962993 0
M  V30 34 H 2.552923 1.026083 5.393526 0
M  V30 35 H 3.618212 1.455799 6.736991 0
M  V30 36 H 7.474040 2.896859 4.344897 0
M  V30 37 H 3.323997 3.314423 1.671673 0
M  V30 38 H -0.849646 -1.206212 1.383477 0
M  V30 39 H -1.917800 -0.431743 -1.316461 0
M  V30 40 H -3.683004 -0.612865 1.155910 0
M  V30 41 H -3.202581 0.900037 0.182818 0
M  V30 42 H -5.083420 0.200537 -0.834682 0
M  V30 43 H -5.364280 -2.305907 -1.378757 0
M  V30 44 H -5.579420 -1.703738 0.302716 0
M  V30 45 H -3.678924 -2.661881 1.153825 0
M  V30 46 H -3.875140 -3.773686 -0.197717 0
M  V30 47 H -1.657429 -2.907465 0.251788 0
M  V30 48 H -2.931184 -1.427908 -2.989546 0
M  V30 49 H -2.452227 -2.347217 -5.140600 0
M  V30 50 H -1.042301 -4.616672 -1.039698 0
M  V30 51 H 3.263439 -0.391080 3.610331 0
M  V30 END ATOM
M  V30 BEGIN BOND
M  V30 1 1 1 2
M  V30 2 1 2 3
M  V30 3 2 3 4
M  V30 4 1 4 5
M  V30 5 1 5 6
M  V30 6 2 5 7
M  V30 7 1 7 8
M  V30 8 2 8 9
M  V30 9 1 9 10
M  V30 10 1 10 11
M  V30 11 2 10 12
M  V30 12 1 12 13
M  V30 13 2 13 14
M  V30 14 1 13 15
M  V30 15 1 15 16
M  V30 16 1 16 17
M  V30 17 1 17 18
M  V30 18 1 18 19
M  V30 19 1 19 20
M  V30 20 1 20 21
M  V30 21 1 21 22
M  V30 22 2 22 23
M  V30 23 1 23 24
M  V30 24 2 24 25
M  V30 25 1 25 26
M  V30 26 1 25 27
M  V30 27 1 27 28
M  V30 28 2 27 29
M  V30 29 1 12 30
M  V30 30 1 30 31
M  V30 31 2 30 32
M  V30 32 1 7 2
M  V30 33 1 32 8
M  V30 34 1 21 16
M  V30 35 1 29 22
M  V30 36 1 1 33
M  V30 37 1 1 34
M  V30 38 1 1 35
M  V30 39 1 4 36
M  V30 40 1 9 37
M  V30 41 1 15 38
M  V30 42 1 16 39 CFG=3
M  V30 43 1 17 40
M  V30 44 1 17 41
M  V30 45 1 18 42
M  V30 46 1 19 43
M  V30 47 1 19 44
M  V30 48 1 20 45
M  V30 49 1 20 46
M  V30 50 1 21 47 CFG=1
M  V30 51 1 23 48
M  V30 52 1 24 49
M  V30 53 1 29 50
M  V30 54 1 32 51
M  V30 END BOND
M  V30 END CTAB
M  END
>  <Dataset>  (560) 
ChEMBL_Kinases

>  <Ligand_Instance>  (560) 
nan

>  <PDB_ID>  (560) 
nan

>  <Standardized_SMILES>  (560) 
Cn1ncc(Br)c1-c1cc(F)c(C(=O)N[C@@H]2CNCC[C@H]2c2ccc(F)c(F)c2)c(F)c1

>  <Name>  (560) 
nan

>  <Pocket>  (560) 
nan

>  <ATP_Site>  (560) 
nan

>  <Peripheral>  (560) 
nan

>  <Num_H_Atoms_ProtBoundConf>  (560) 
nan

>  <Num_Resolved_Atoms>  (560) 
nan

>  <Num_Not_Resolved_Atoms>  (560) 
nan

$$$$
CHEMBL4071886
     RDKit          3D

  0  0  0  0  0  0  0  0  0  0999 V3000
M  V30 BEGIN CTAB
M  V30 COUNTS 45 48 0 0 0
M  V30 BEGIN ATOM
M  V30 1 C 1.174741 -1.577587 0.395449 0
M  V30 2 N 0.918178 -0.215764 -0.112744 0
M  V30 3 C 2.080551 0.536314 -0.351221 0
M  V30 4 C 2.312869 1.742582 -0.949638 0
M  V30 5 C 3.456264 2.449069 -1.063077 0
M  V30 6 C 4.593071 1.910982 -0.505414 0
M  V30 7 C 4.513564 0.695078 0.132978 0
M  V30 8 S 5.990483 0.066057 0.819819 0
M  V30 9 C 6.186670 0.619105 2.499184 0
M  V30 10 O 6.018373 -1.443158 0.748375 0
M  V30 11 O 7.179061 0.538766 0.035033 0
M  V30 12 C 3.290096 0.066524 0.186164 0
M  V30 13 C -0.446514 0.124416 -0.182502 0
M  V30 14 C -1.092624 1.220938 -0.686982 0
M  V30 15 C -2.418808 1.531443 -0.666957 0
M  V30 16 C -3.258648 0.630245 -0.057575 0
M  V30 17 N -4.591270 0.670927 0.111930 0
M  V30 18 N -4.931128 -0.428708 0.759023 0
M  V30 19 C -3.838161 -1.169102 1.004585 0
M  V30 20 C -3.794223 -2.442995 1.692696 0
M  V30 21 C -3.126409 -3.598495 1.356707 0
M  V30 22 C -3.215745 -4.713369 2.159170 0
M  V30 23 N -3.953863 -4.697660 3.283112 0
M  V30 24 C -4.638524 -3.581373 3.668211 0
M  V30 25 C -4.553788 -2.448308 2.862035 0
M  V30 26 C -2.735730 -0.517746 0.491876 0
M  V30 27 C -1.376311 -0.720763 0.409174 0
M  V30 28 H 2.120367 -1.972686 -0.053292 0
M  V30 29 H 1.177982 -1.651103 1.473549 0
M  V30 30 H 0.384636 -2.241083 -0.049942 0
M  V30 31 H 1.503135 2.227833 -1.425244 0
M  V30 32 H 3.550287 3.395405 -1.552165 0
M  V30 33 H 5.533002 2.441759 -0.570563 0
M  V30 34 H 6.762202 -0.140894 3.035381 0
M  V30 35 H 6.768718 1.570852 2.566550 0
M  V30 36 H 5.186658 0.828703 2.954624 0
M  V30 37 H 3.421430 -0.866874 0.742437 0
M  V30 38 H -0.516755 1.966878 -1.182893 0
M  V30 39 H -2.832644 2.426736 -1.094477 0
M  V30 40 H -5.250247 1.417216 -0.199300 0
M  V30 41 H -2.563552 -3.522863 0.444322 0
M  V30 42 H -2.675463 -5.604599 1.861480 0
M  V30 43 H -5.209751 -3.625250 4.571421 0
M  V30 44 H -5.133220 -1.611331 3.252218 0
M  V30 45 H -1.140124 -1.659121 0.906628 0
M  V30 END ATOM
M  V30 BEGIN BOND
M  V30 1 1 1 2
M  V30 2 1 2 3
M  V30 3 2 3 4
M  V30 4 1 4 5
M  V30 5 2 5 6
M  V30 6 1 6 7
M  V30 7 1 7 8
M  V30 8 1 8 9
M  V30 9 2 8 10
M  V30 10 2 8 11
M  V30 11 2 7 12
M  V30 12 1 2 13
M  V30 13 2 13 14
M  V30 14 1 14 15
M  V30 15 2 15 16
M  V30 16 1 16 17
M  V30 17 1 17 18
M  V30 18 2 18 19
M  V30 19 1 19 20
M  V30 20 2 20 21
M  V30 21 1 21 22
M  V30 22 2 22 23
M  V30 23 1 23 24
M  V30 24 2 24 25
M  V30 25 1 19 26
M  V30 26 2 26 27
M  V30 27 1 12 3
M  V30 28 1 27 13
M  V30 29 1 26 16
M  V30 30 1 25 20
M  V30 31 1 1 28
M  V30 32 1 1 29
M  V30 33 1 1 30
M  V30 34 1 4 31
M  V30 35 1 5 32
M  V30 36 1 6 33
M  V30 37 1 9 34
M  V30 38 1 9 35
M  V30 39 1 9 36
M  V30 40 1 12 37
M  V30 41 1 14 38
M  V30 42 1 15 39
M  V30 43 1 17 40
M  V30 44 1 21 41
M  V30 45 1 22 42
M  V30 46 1 24 43
M  V30 47 1 25 44
M  V30 48 1 27 45
M  V30 END BOND
M  V30 END CTAB
M  END
>  <Dataset>  (561) 
ChEMBL_Kinases

>  <Ligand_Instance>  (561) 
nan

>  <PDB_ID>  (561) 
nan

>  <Standardized_SMILES>  (561) 
CN(c1cccc(S(C)(=O)=O)c1)c1ccc2[nH]nc(-c3ccncc3)c2c1

>  <Name>  (561) 
nan

>  <Pocket>  (561) 
nan

>  <ATP_Site>  (561) 
nan

>  <Peripheral>  (561) 
nan

>  <Num_H_Atoms_ProtBoundConf>  (561) 
nan

>  <Num_Resolved_Atoms>  (561) 
nan

>  <Num_Not_Resolved_Atoms>  (561) 
nan

$$$$
CHEMBL4071874
     RDKit          3D

  0  0  0  0  0  0  0  0  0  0999 V3000
M  V30 BEGIN CTAB
M  V30 COUNTS 41 44 0 0 0
M  V30 BEGIN ATOM
M  V30 1 O 1.592986 -2.291763 4.826303 0
M  V30 2 C 1.778467 -2.933528 3.766163 0
M  V30 3 N 2.000424 -4.215780 3.426123 0
M  V30 4 C 2.127723 -4.319672 2.091068 0
M  V30 5 N 2.356939 -5.439246 1.371375 0
M  V30 6 C 2.447427 -5.297071 0.033523 0
M  V30 7 C 2.311618 -4.058852 -0.577464 0
M  V30 8 C 2.078797 -2.942389 0.190810 0
M  V30 9 C 1.977123 -3.032380 1.568329 0
M  V30 10 N 1.762479 -2.193896 2.621884 0
M  V30 11 C 1.577995 -0.805121 2.319851 0
M  V30 12 N 0.393453 -0.414705 1.816840 0
M  V30 13 C 0.165800 0.875532 1.515498 0
M  V30 14 N -1.080145 1.306325 0.983383 0
M  V30 15 C -1.387880 2.657114 0.635670 0
M  V30 16 C -2.168620 2.678522 -0.681456 0
M  V30 17 C -1.329289 1.982301 -1.730236 0
M  V30 18 N -1.119329 0.585920 -1.448900 0
M  V30 19 C -2.171148 -0.019589 -0.675204 0
M  V30 20 C -2.052944 0.230497 0.814027 0
M  V30 21 C 1.212941 1.731069 1.757924 0
M  V30 22 C 2.437491 1.356006 2.273120 0
M  V30 23 C 2.637278 0.021187 2.571685 0
M  V30 24 F 3.820483 -0.421428 3.083018 0
M  V30 25 H 2.045280 -4.941667 4.200013 0
M  V30 26 H 2.628117 -6.098455 -0.679537 0
M  V30 27 H 2.376072 -3.894016 -1.644881 0
M  V30 28 H 1.968972 -1.975341 -0.241372 0
M  V30 29 H -2.092871 3.033187 1.433909 0
M  V30 30 H -0.574960 3.368118 0.598962 0
M  V30 31 H -3.121061 2.139014 -0.505210 0
M  V30 32 H -2.323083 3.714524 -1.011406 0
M  V30 33 H -0.319639 2.483280 -1.717650 0
M  V30 34 H -1.749336 2.189570 -2.734061 0
M  V30 35 H -0.996942 0.085993 -2.345038 0
M  V30 36 H -3.189369 0.174846 -1.074813 0
M  V30 37 H -2.032270 -1.132421 -0.810784 0
M  V30 38 H -1.731296 -0.668292 1.375304 0
M  V30 39 H -3.064048 0.524643 1.164345 0
M  V30 40 H 1.124963 2.787986 1.547629 0
M  V30 41 H 3.234239 2.073925 2.446342 0
M  V30 END ATOM
M  V30 BEGIN BOND
M  V30 1 2 1 2
M  V30 2 1 2 3
M  V30 3 1 3 4
M  V30 4 2 4 5
M  V30 5 1 5 6
M  V30 6 2 6 7
M  V30 7 1 7 8
M  V30 8 2 8 9
M  V30 9 1 9 10
M  V30 10 1 10 11
M  V30 11 2 11 12
M  V30 12 1 12 13
M  V30 13 1 13 14
M  V30 14 1 14 15
M  V30 15 1 15 16
M  V30 16 1 16 17
M  V30 17 1 17 18
M  V30 18 1 18 19
M  V30 19 1 19 20
M  V30 20 2 13 21
M  V30 21 1 21 22
M  V30 22 2 22 23
M  V30 23 1 23 24
M  V30 24 1 10 2
M  V30 25 1 23 11
M  V30 26 1 9 4
M  V30 27 1 20 14
M  V30 28 1 3 25
M  V30 29 1 6 26
M  V30 30 1 7 27
M  V30 31 1 8 28
M  V30 32 1 15 29
M  V30 33 1 15 30
M  V30 34 1 16 31
M  V30 35 1 16 32
M  V30 36 1 17 33
M  V30 37 1 17 34
M  V30 38 1 18 35
M  V30 39 1 19 36
M  V30 40 1 19 37
M  V30 41 1 20 38
M  V30 42 1 20 39
M  V30 43 1 21 40
M  V30 44 1 22 41
M  V30 END BOND
M  V30 END CTAB
M  END
>  <Dataset>  (562) 
ChEMBL_Kinases

>  <Ligand_Instance>  (562) 
nan

>  <PDB_ID>  (562) 
nan

>  <Standardized_SMILES>  (562) 
O=c1[nH]c2ncccc2n1-c1nc(N2CCCNCC2)ccc1F

>  <Name>  (562) 
nan

>  <Pocket>  (562) 
nan

>  <ATP_Site>  (562) 
nan

>  <Peripheral>  (562) 
nan

>  <Num_H_Atoms_ProtBoundConf>  (562) 
nan

>  <Num_Resolved_Atoms>  (562) 
nan

>  <Num_Not_Resolved_Atoms>  (562) 
nan

$$$$
CHEMBL4071852
     RDKit          3D

  0  0  0  0  0  0  0  0  0  0999 V3000
M  V30 BEGIN CTAB
M  V30 COUNTS 32 34 0 0 0
M  V30 BEGIN ATOM
M  V30 1 C -0.535748 -5.554128 2.386635 0
M  V30 2 O -1.444970 -4.952401 1.487034 0
M  V30 3 C -1.100046 -3.794656 0.795851 0
M  V30 4 C 0.128923 -3.185221 0.949473 0
M  V30 5 C 0.390173 -2.028197 0.216100 0
M  V30 6 C -0.569092 -1.521911 -0.635828 0
M  V30 7 C -0.346870 -0.280677 -1.416113 0
M  V30 8 C 0.217731 0.646631 -0.649678 0
M  V30 9 O 0.606395 0.615052 0.706861 0
M  V30 10 C 1.152578 1.863852 1.020988 0
M  V30 11 C 1.603325 2.048503 2.333574 0
M  V30 12 C 2.138763 3.315136 2.601133 0
M  V30 13 C 2.167813 4.232811 1.567361 0
M  V30 14 C 1.704360 4.005991 0.264335 0
M  V30 15 C 1.177345 2.756567 0.006670 0
M  V30 16 C 0.574007 2.007296 -1.118193 0
M  V30 17 O 0.427905 2.526104 -2.259108 0
M  V30 18 C -1.817077 -2.148941 -0.785698 0
M  V30 19 C -2.075965 -3.299186 -0.055732 0
M  V30 20 O -3.305173 -3.940353 -0.183978 0
M  V30 21 H 0.323293 -6.002504 1.820687 0
M  V30 22 H -1.034821 -6.274333 3.065994 0
M  V30 23 H -0.073994 -4.788120 3.062946 0
M  V30 24 H 0.847369 -3.634697 1.637329 0
M  V30 25 H 1.354962 -1.548100 0.328025 0
M  V30 26 H -0.584995 -0.087398 -2.450231 0
M  V30 27 H 1.614853 1.398480 3.174324 0
M  V30 28 H 2.555987 3.700489 3.540307 0
M  V30 29 H 2.577506 5.248840 1.706641 0
M  V30 30 H 1.718471 4.705664 -0.552036 0
M  V30 31 H -2.554602 -1.721907 -1.467859 0
M  V30 32 H -4.140521 -3.652983 0.309561 0
M  V30 END ATOM
M  V30 BEGIN BOND
M  V30 1 1 1 2
M  V30 2 1 2 3
M  V30 3 2 3 4
M  V30 4 1 4 5
M  V30 5 2 5 6
M  V30 6 1 6 7
M  V30 7 2 7 8
M  V30 8 1 8 9
M  V30 9 1 9 10
M  V30 10 2 10 11
M  V30 11 1 11 12
M  V30 12 2 12 13
M  V30 13 1 13 14
M  V30 14 2 14 15
M  V30 15 1 15 16
M  V30 16 2 16 17
M  V30 17 1 6 18
M  V30 18 2 18 19
M  V30 19 1 19 20
M  V30 20 1 19 3
M  V30 21 1 16 8
M  V30 22 1 15 10
M  V30 23 1 1 21
M  V30 24 1 1 22
M  V30 25 1 1 23
M  V30 26 1 4 24
M  V30 27 1 5 25
M  V30 28 1 7 26
M  V30 29 1 11 27
M  V30 30 1 12 28
M  V30 31 1 13 29
M  V30 32 1 14 30
M  V30 33 1 18 31
M  V30 34 1 20 32
M  V30 END BOND
M  V30 END CTAB
M  END
>  <Dataset>  (563) 
ChEMBL_Kinases

>  <Ligand_Instance>  (563) 
nan

>  <PDB_ID>  (563) 
nan

>  <Standardized_SMILES>  (563) 
COc1ccc(/C=C2\Oc3ccccc3C2=O)cc1O

>  <Name>  (563) 
nan

>  <Pocket>  (563) 
nan

>  <ATP_Site>  (563) 
nan

>  <Peripheral>  (563) 
nan

>  <Num_H_Atoms_ProtBoundConf>  (563) 
nan

>  <Num_Resolved_Atoms>  (563) 
nan

>  <Num_Not_Resolved_Atoms>  (563) 
nan

$$$$
CHEMBL4859772
     RDKit          3D

  0  0  0  0  0  0  0  0  0  0999 V3000
M  V30 BEGIN CTAB
M  V30 COUNTS 30 32 0 0 0
M  V30 BEGIN ATOM
M  V30 1 C -1.179795 -1.814154 2.978594 0
M  V30 2 N -0.997855 -2.835937 1.993221 0
M  V30 3 C -1.526772 -4.147820 2.295502 0
M  V30 4 C -0.328099 -2.578518 0.770659 0
M  V30 5 N -0.196968 -3.608325 -0.116792 0
M  V30 6 C 0.438856 -3.362022 -1.276111 0
M  V30 7 C 0.913885 -2.087375 -1.487876 0
M  V30 8 Br 1.797950 -1.829780 -3.150594 0
M  V30 9 C 0.799331 -1.034363 -0.620578 0
M  V30 10 C 1.285858 0.314458 -0.811153 0
M  V30 11 C 1.961812 0.987798 -1.798006 0
M  V30 12 N 2.169860 2.273129 -1.453823 0
M  V30 13 N 1.637045 2.456366 -0.246831 0
M  V30 14 N 1.647893 3.597582 0.416777 0
M  V30 15 C 1.084568 3.694001 1.634493 0
M  V30 16 C 0.507860 2.543212 2.130123 0
M  V30 17 C 0.528947 1.382490 1.389043 0
M  V30 18 C 1.105178 1.287837 0.145805 0
M  V30 19 N 0.155850 -1.356784 0.508811 0
M  V30 20 H -1.763298 -2.144059 3.850628 0
M  V30 21 H -0.194450 -1.404935 3.337283 0
M  V30 22 H -1.712211 -0.953581 2.483561 0
M  V30 23 H -2.310691 -4.102981 3.051084 0
M  V30 24 H -0.707306 -4.795604 2.709496 0
M  V30 25 H -1.932117 -4.653107 1.385161 0
M  V30 26 H 0.557524 -4.156356 -1.996649 0
M  V30 27 H 2.282068 0.552621 -2.718868 0
M  V30 28 H 1.074197 4.611505 2.207321 0
M  V30 29 H 0.049390 2.600174 3.108314 0
M  V30 30 H 0.054364 0.547388 1.864309 0
M  V30 END ATOM
M  V30 BEGIN BOND
M  V30 1 1 1 2
M  V30 2 1 2 3
M  V30 3 1 2 4
M  V30 4 2 4 5
M  V30 5 1 5 6
M  V30 6 2 6 7
M  V30 7 1 7 8
M  V30 8 1 7 9
M  V30 9 1 9 10
M  V30 10 1 10 11
M  V30 11 2 11 12
M  V30 12 1 12 13
M  V30 13 1 13 14
M  V30 14 2 14 15
M  V30 15 1 15 16
M  V30 16 2 16 17
M  V30 17 1 17 18
M  V30 18 2 9 19
M  V30 19 1 19 4
M  V30 20 2 18 10
M  V30 21 1 18 13
M  V30 22 1 1 20
M  V30 23 1 1 21
M  V30 24 1 1 22
M  V30 25 1 3 23
M  V30 26 1 3 24
M  V30 27 1 3 25
M  V30 28 1 6 26
M  V30 29 1 11 27
M  V30 30 1 15 28
M  V30 31 1 16 29
M  V30 32 1 17 30
M  V30 END BOND
M  V30 END CTAB
M  END
>  <Dataset>  (564) 
ChEMBL_Kinases

>  <Ligand_Instance>  (564) 
nan

>  <PDB_ID>  (564) 
nan

>  <Standardized_SMILES>  (564) 
CN(C)c1ncc(Br)c(-c2cnn3ncccc23)n1

>  <Name>  (564) 
nan

>  <Pocket>  (564) 
nan

>  <ATP_Site>  (564) 
nan

>  <Peripheral>  (564) 
nan

>  <Num_H_Atoms_ProtBoundConf>  (564) 
nan

>  <Num_Resolved_Atoms>  (564) 
nan

>  <Num_Not_Resolved_Atoms>  (564) 
nan

$$$$
CHEMBL4858598
     RDKit          3D

  0  0  0  0  0  0  0  0  0  0999 V3000
M  V30 BEGIN CTAB
M  V30 COUNTS 60 62 0 0 0
M  V30 BEGIN ATOM
M  V30 1 C 1.332178 -5.780864 5.280981 0
M  V30 2 N 0.275574 -5.464429 4.341318 0
M  V30 3 C 0.449645 -4.470743 3.340386 0
M  V30 4 N 1.634311 -3.834455 3.303748 0
M  V30 5 C 1.955946 -2.870909 2.423436 0
M  V30 6 C 0.979039 -2.535938 1.507371 0
M  V30 7 C 1.322346 -1.487662 0.553916 0
M  V30 8 C 1.930148 -0.355833 1.110922 0
M  V30 9 C 2.319480 0.736248 0.364583 0
M  V30 10 C 2.106658 0.728622 -0.998909 0
M  V30 11 N 2.437803 1.752019 -1.908119 0
M  V30 12 C 1.347348 2.658278 -2.035221 0
M  V30 13 O 0.243593 2.563523 -1.425052 0
M  V30 14 C 1.293958 3.869942 -2.893813 0 CFG=2
M  V30 15 O 2.491417 4.026060 -3.586303 0
M  V30 16 C 0.969328 5.084806 -2.126721 0
M  V30 17 C 1.967965 5.688365 -1.390614 0
M  V30 18 C 1.685880 6.824952 -0.667363 0
M  V30 19 F 2.668192 7.431890 0.066969 0
M  V30 20 C 0.454934 7.436366 -0.609093 0
M  V30 21 C -0.558394 6.825574 -1.354867 0
M  V30 22 F -1.842273 7.278095 -1.426214 0
M  V30 23 C -0.276347 5.687290 -2.079336 0
M  V30 24 C 1.508619 -0.380272 -1.563049 0
M  V30 25 C 1.123938 -1.466740 -0.803599 0
M  V30 26 C 0.489360 -2.658810 -1.377897 0
M  V30 27 C -0.254703 -3.150353 1.492313 0
M  V30 28 C -0.515236 -4.126459 2.420683 0
M  V30 29 C -1.808907 -4.781982 2.417105 0
M  V30 30 O -2.305440 -5.684731 3.130289 0
M  V30 31 N -2.796403 -4.437945 1.487711 0
M  V30 32 C -4.114792 -5.037714 1.409578 0
M  V30 33 C -4.275384 -5.592134 0.001855 0
M  V30 34 C -5.147000 -3.932090 1.608091 0
M  V30 35 H 2.297350 -5.453095 4.797888 0
M  V30 36 H 1.250930 -5.135537 6.193710 0
M  V30 37 H 1.389152 -6.848102 5.523774 0
M  V30 38 H -0.544493 -6.057783 4.541944 0
M  V30 39 H 2.936616 -2.392598 2.446266 0
M  V30 40 H 2.131713 -0.277423 2.189449 0
M  V30 41 H 2.785961 1.610068 0.775152 0
M  V30 42 H 3.280095 1.972656 -2.483496 0
M  V30 43 H 0.513285 3.650067 -3.670833 0
M  V30 44 H 3.257443 4.089547 -2.938378 0
M  V30 45 H 2.989551 5.325710 -1.335933 0
M  V30 46 H 0.206212 8.313379 -0.060607 0
M  V30 47 H -1.046611 5.185240 -2.673544 0
M  V30 48 H 1.303804 -0.465551 -2.641089 0
M  V30 49 H 0.715711 -3.581139 -0.828603 0
M  V30 50 H 0.985249 -2.805462 -2.383941 0
M  V30 51 H -0.582715 -2.541250 -1.627600 0
M  V30 52 H -0.925127 -2.795018 0.728078 0
M  V30 53 H -2.704067 -3.700823 0.729822 0
M  V30 54 H -4.295450 -5.817170 2.168431 0
M  V30 55 H -4.351515 -4.729716 -0.703577 0
M  V30 56 H -3.382940 -6.167124 -0.320138 0
M  V30 57 H -5.139365 -6.288184 -0.081731 0
M  V30 58 H -4.716808 -3.079544 2.175329 0
M  V30 59 H -6.049837 -4.358604 2.127269 0
M  V30 60 H -5.440252 -3.539475 0.602143 0
M  V30 END ATOM
M  V30 BEGIN BOND
M  V30 1 1 1 2
M  V30 2 1 2 3
M  V30 3 2 3 4
M  V30 4 1 4 5
M  V30 5 2 5 6
M  V30 6 1 6 7
M  V30 7 2 7 8
M  V30 8 1 8 9
M  V30 9 2 9 10
M  V30 10 1 10 11
M  V30 11 1 11 12
M  V30 12 2 12 13
M  V30 13 1 12 14
M  V30 14 1 14 15
M  V30 15 1 14 16
M  V30 16 2 16 17
M  V30 17 1 17 18
M  V30 18 1 18 19
M  V30 19 2 18 20
M  V30 20 1 20 21
M  V30 21 1 21 22
M  V30 22 2 21 23
M  V30 23 1 10 24
M  V30 24 2 24 25
M  V30 25 1 25 26
M  V30 26 1 6 27
M  V30 27 2 27 28
M  V30 28 1 28 29
M  V30 29 2 29 30
M  V30 30 1 29 31
M  V30 31 1 31 32
M  V30 32 1 32 33
M  V30 33 1 32 34
M  V30 34 1 28 3
M  V30 35 1 25 7
M  V30 36 1 23 16
M  V30 37 1 1 35
M  V30 38 1 1 36
M  V30 39 1 1 37
M  V30 40 1 2 38
M  V30 41 1 5 39
M  V30 42 1 8 40
M  V30 43 1 9 41
M  V30 44 1 11 42
M  V30 45 1 14 43 CFG=3
M  V30 46 1 15 44
M  V30 47 1 17 45
M  V30 48 1 20 46
M  V30 49 1 23 47
M  V30 50 1 24 48
M  V30 51 1 26 49
M  V30 52 1 26 50
M  V30 53 1 26 51
M  V30 54 1 27 52
M  V30 55 1 31 53
M  V30 56 1 32 54
M  V30 57 1 33 55
M  V30 58 1 33 56
M  V30 59 1 33 57
M  V30 60 1 34 58
M  V30 61 1 34 59
M  V30 62 1 34 60
M  V30 END BOND
M  V30 END CTAB
M  END
>  <Dataset>  (565) 
ChEMBL_Kinases

>  <Ligand_Instance>  (565) 
nan

>  <PDB_ID>  (565) 
nan

>  <Standardized_SMILES>  (565) 
CNc1ncc(-c2ccc(NC(=O)[C@H](O)c3cc(F)cc(F)c3)cc2C)cc1C(=O)NC(C)C

>  <Name>  (565) 
nan

>  <Pocket>  (565) 
nan

>  <ATP_Site>  (565) 
nan

>  <Peripheral>  (565) 
nan

>  <Num_H_Atoms_ProtBoundConf>  (565) 
nan

>  <Num_Resolved_Atoms>  (565) 
nan

>  <Num_Not_Resolved_Atoms>  (565) 
nan

$$$$
CHEMBL4858673
     RDKit          3D

  0  0  0  0  0  0  0  0  0  0999 V3000
M  V30 BEGIN CTAB
M  V30 COUNTS 370 375 0 0 0
M  V30 BEGIN ATOM
M  V30 1 C 4.285950 2.806530 -6.435046 0
M  V30 2 C 5.587658 3.047148 -7.154948 0
M  V30 3 C 6.724428 3.305741 -6.251415 0 CFG=2
M  V30 4 C 7.997533 3.604394 -7.063094 0
M  V30 5 C 7.047671 2.322368 -5.206179 0 CFG=2
M  V30 6 N 7.369429 1.027155 -5.505768 0
M  V30 7 C 6.946275 -0.219147 -5.195148 0
M  V30 8 O 5.976471 -0.619693 -4.449340 0
M  V30 9 C 7.128986 -1.724561 -5.324993 0 CFG=2
M  V30 10 C 6.281040 -2.158840 -6.494361 0
M  V30 11 C 6.298577 -3.544604 -6.872745 0
M  V30 12 C 6.509455 -4.664547 -6.225697 0
M  V30 13 N 6.540614 -5.885081 -6.654120 0
M  V30 14 C 6.282650 -5.552063 -8.020495 0
M  V30 15 C 6.175631 -6.367626 -9.116468 0
M  V30 16 C 5.927726 -5.639744 -10.212442 0
M  V30 17 C 5.733722 -4.313814 -10.661623 0
M  V30 18 C 5.886815 -3.579956 -9.353484 0
M  V30 19 C 6.132055 -4.156950 -8.176578 0
M  V30 20 N 6.481570 -2.230506 -4.095000 0
M  V30 21 C 7.413418 -2.804727 -3.156902 0
M  V30 22 O 8.602960 -2.819277 -3.532611 0
M  V30 23 C 7.453717 -3.427787 -1.804879 0
M  V30 24 N 6.195249 -3.408136 -1.103839 0
M  V30 25 C 5.308220 -4.104363 -1.938051 0
M  V30 26 O 5.254846 -4.693400 -3.027551 0
M  V30 27 C 3.779994 -4.320423 -1.502348 0 CFG=2
M  V30 28 C 3.810304 -5.788412 -1.269247 0
M  V30 29 C 2.597432 -6.507820 -0.884681 0
M  V30 30 C 1.554284 -6.428509 -1.966954 0
M  V30 31 C 2.037786 -6.100497 0.457979 0
M  V30 32 N 3.121503 -3.866416 -2.668240 0
M  V30 33 C 2.609553 -3.477130 -3.830479 0
M  V30 34 O 3.513039 -3.784061 -4.735192 0
M  V30 35 C 1.589974 -2.886479 -4.680629 0 CFG=2
M  V30 36 C 2.121140 -1.692193 -5.445933 0
M  V30 37 C 1.230336 -1.083026 -6.432363 0
M  V30 38 C -0.100499 -0.579233 -6.042193 0
M  V30 39 C 2.012438 0.147734 -6.992534 0
M  V30 40 N 0.640810 -2.295151 -3.668625 0
M  V30 41 C 0.615403 -1.003964 -3.099334 0
M  V30 42 O 1.436937 -0.004497 -3.314981 0
M  V30 43 C -0.247937 -0.214016 -2.088415 0 CFG=2
M  V30 44 C 0.538767 0.102121 -0.898229 0
M  V30 45 C 0.050559 0.963198 0.188829 0
M  V30 46 C -0.010652 2.404095 -0.117921 0
M  V30 47 N -0.871073 2.955347 -1.019609 0
M  V30 48 C -2.101387 3.461494 -1.548755 0
M  V30 49 N -2.392523 3.952649 -0.367955 0
M  V30 50 N -2.955354 3.605357 -2.624833 0
M  V30 51 N -1.151243 -1.400399 -1.739283 0
M  V30 52 C -2.261922 -1.680580 -2.636738 0
M  V30 53 O -2.147329 -0.781279 -3.468071 0
M  V30 54 C -3.056237 -2.849259 -2.245514 0 CFG=2
M  V30 55 C -2.410324 -4.144677 -1.968109 0
M  V30 56 S -1.279678 -4.057486 -0.574647 0
M  V30 57 N -4.165139 -3.068085 -3.224085 0
M  V30 58 C -3.772765 -3.295391 -4.687700 0
M  V30 59 O -2.607774 -3.162948 -4.224138 0
M  V30 60 C -5.125287 -3.494959 -5.495122 0 CFG=1
M  V30 61 N -6.104000 -3.460844 -4.441611 0
M  V30 62 C -6.515310 -4.688136 -3.753282 0
M  V30 63 O -5.896222 -5.569406 -4.364978 0
M  V30 64 C -7.485511 -4.419649 -2.625650 0 CFG=1
M  V30 65 N -7.866574 -3.111968 -2.363337 0
M  V30 66 C -8.380550 -1.879992 -2.681645 0
M  V30 67 O -8.746846 -1.842379 -3.937248 0
M  V30 68 C -8.772380 -0.517719 -2.416761 0 CFG=1
M  V30 69 N -8.542133 -0.137667 -0.999934 0
M  V30 70 C -9.626041 -0.048413 -0.054723 0
M  V30 71 O -10.787929 -0.332429 -0.554159 0
M  V30 72 C -9.881909 0.275468 1.341738 0 CFG=2
M  V30 73 C -11.071256 1.206711 1.484379 0
M  V30 74 C -10.454401 2.530080 1.069018 0
M  V30 75 C -8.933529 2.279981 1.207542 0
M  V30 76 N -8.842018 1.075776 2.003105 0
M  V30 77 C -7.918604 0.805893 3.096023 0
M  V30 78 O -8.268771 -0.350735 3.570807 0
M  V30 79 C -6.920921 1.892608 3.283444 0 CFG=2
M  V30 80 C -6.074986 2.072495 2.064869 0
M  V30 81 C -4.661597 1.648035 2.407212 0
M  V30 82 C -4.591462 1.888594 3.865388 0
M  V30 83 N -5.945686 1.559949 4.333615 0
M  V30 84 C -6.473447 0.911402 5.524283 0
M  V30 85 O -7.714277 0.901967 5.761585 0
M  V30 86 C -5.854978 0.162818 6.668573 0 CFG=1
M  V30 87 N -4.504169 -0.181799 6.294379 0
M  V30 88 C -4.654477 -1.140212 5.181276 0
M  V30 89 O -5.850557 -1.237462 5.004039 0
M  V30 90 C -3.632979 -1.856597 4.398065 0 CFG=2
M  V30 91 C -4.008292 -3.322863 4.313101 0
M  V30 92 C -5.312751 -3.586341 3.663940 0
M  V30 93 C -5.203065 -3.634393 2.254936 0
M  V30 94 C -6.448858 -3.892309 1.667935 0
M  V30 95 C -7.676689 -4.091047 2.202390 0
M  V30 96 C -7.691068 -4.030416 3.593263 0
M  V30 97 C -6.502324 -3.778421 4.289687 0
M  V30 98 N -2.265909 -1.663657 4.789689 0
M  V30 99 C -1.188559 -0.762476 4.435647 0
M  V30 100 O -1.515854 0.092303 3.608915 0
M  V30 101 C 0.086178 -1.031249 5.099418 0 CFG=2
M  V30 102 C 0.016762 -1.857530 6.364446 0
M  V30 103 C 1.526994 -1.855159 6.722449 0
M  V30 104 C 2.062329 -0.633196 6.021662 0
M  V30 105 N 0.877242 0.062424 5.548389 0
M  V30 106 C 0.406127 1.477345 5.529558 0
M  V30 107 O -0.556672 2.066651 4.972774 0
M  V30 108 C 1.423209 2.232628 6.446456 0 CFG=2
M  V30 109 C 1.093378 1.664448 7.785282 0
M  V30 110 C 1.782327 2.068497 9.015388 0
M  V30 111 C 1.536648 3.477329 9.438285 0
M  V30 112 C 1.561990 1.116958 10.167819 0
M  V30 113 N 1.315571 3.645314 6.271455 0
M  V30 114 C 1.677767 4.046054 4.871876 0
M  V30 115 O 1.821513 2.907854 4.508025 0
M  V30 116 C 1.628914 5.561218 4.814892 0 CFG=1
M  V30 117 N 1.586370 6.025261 3.461496 0
M  V30 118 C 2.138417 6.016397 2.170023 0
M  V30 119 O 3.094691 5.212104 2.266937 0
M  V30 120 C 1.528417 6.837489 1.125898 0 CFG=2
M  V30 121 C 0.415588 7.766173 1.574229 0
M  V30 122 O 0.301920 8.827099 0.657833 0
M  V30 123 N 1.388792 6.263857 -0.148918 0
M  V30 124 C 1.727999 6.927548 -1.318440 0
M  V30 125 O 2.187554 8.112813 -1.210816 0
M  V30 126 C 1.664999 6.546952 -2.735881 0 CFG=1
M  V30 127 N 1.084236 5.218052 -2.932811 0
M  V30 128 C 0.854358 7.521966 -3.526803 0
M  V30 129 O 0.876617 7.250366 -4.885778 0
M  V30 130 C 0.637168 6.229182 5.689507 0 CFG=1
M  V30 131 C 0.766731 7.757486 5.461516 0
M  V30 132 C -0.818206 5.957143 5.349405 0
M  V30 133 C -1.653281 6.743652 6.338155 0
M  V30 134 C -5.951083 0.898983 7.957424 0 CFG=1
M  V30 135 C -7.248895 1.498739 8.264492 0
M  V30 136 O -5.511008 0.090678 9.002015 0
M  V30 137 C -8.088029 0.502088 -3.287159 0 CFG=1
M  V30 138 C -8.644477 1.888781 -2.953354 0
M  V30 139 C -6.606632 0.480078 -2.943108 0
M  V30 140 C -5.909080 1.524877 -3.820328 0
M  V30 141 C -8.566074 -5.455904 -2.514518 0
M  V30 142 C -7.982446 -6.834712 -2.191314 0
M  V30 143 C -9.308954 -5.663402 -3.825181 0
M  V30 144 C -5.139011 -2.361498 -6.453370 0 CFG=1
M  V30 145 C -3.884712 -2.533399 -7.319543 0
M  V30 146 C -6.310216 -2.160005 -7.322852 0
M  V30 147 C -6.059438 -0.894013 -8.158161 0
M  V30 148 C 6.116469 2.585268 -4.025598 0
M  V30 149 O 5.262277 3.013735 -3.245041 0
M  V30 150 N 6.580046 1.526240 -3.018355 0
M  V30 151 C 5.890142 1.442429 -1.729255 0 CFG=1
M  V30 152 C 5.712413 0.035030 -1.241672 0
M  V30 153 S 4.787706 0.127244 0.347935 0
M  V30 154 C 6.845614 2.063079 -0.699765 0
M  V30 155 O 7.794230 2.013725 -1.565291 0
M  V30 156 N 6.746933 2.509309 0.628438 0
M  V30 157 C 8.060884 2.982773 1.077136 0 CFG=1
M  V30 158 C 7.982838 4.481365 1.009204 0
M  V30 159 C 9.294129 5.165119 1.341046 0
M  V30 160 C 10.346135 4.705484 0.345569 0
M  V30 161 C 11.677026 5.402900 0.546842 0
M  V30 162 N 12.664836 4.927904 -0.370946 0
M  V30 163 C 8.244168 2.581346 2.518034 0
M  V30 164 O 9.176351 2.806803 3.381149 0
M  V30 165 N 7.363789 1.820159 3.296758 0
M  V30 166 C 6.711495 1.092086 4.339723 0
M  V30 167 C 7.499458 -0.094376 4.831448 0
M  V30 168 O 8.690981 -0.417958 4.525078 0
M  V30 169 N 6.705513 -0.905334 5.747183 0
M  V30 170 C 7.433035 -2.107785 6.217490 0 CFG=1
M  V30 171 C 6.507890 -2.865243 7.065715 0
M  V30 172 C 6.934644 -4.189718 7.595809 0
M  V30 173 C 7.008478 -5.226967 6.494873 0
M  V30 174 O 6.327581 -4.754618 5.494396 0
M  V30 175 O 7.188443 -6.270516 5.641260 0
M  V30 176 C 8.091682 -2.748948 5.091443 0
M  V30 177 O 8.994668 -3.618203 5.412826 0
M  V30 178 O 8.657147 -3.300244 3.972662 0
M  V30 179 H 4.150717 3.658986 -5.712047 0
M  V30 180 H 3.423223 2.729967 -7.098080 0
M  V30 181 H 4.403294 1.912352 -5.792247 0
M  V30 182 H 5.460856 3.944357 -7.812267 0
M  V30 183 H 5.762787 2.204431 -7.872515 0
M  V30 184 H 6.480046 4.292349 -5.734386 0
M  V30 185 H 8.890581 3.138908 -6.577408 0
M  V30 186 H 7.900906 3.244054 -8.079533 0
M  V30 187 H 8.139522 4.716629 -7.105309 0
M  V30 188 H 8.045666 2.734920 -4.693646 0
M  V30 189 H 8.177784 0.798572 -6.140227 0
M  V30 190 H 8.150920 -1.987152 -5.433670 0
M  V30 191 H 6.571194 -1.570272 -7.434977 0
M  V30 192 H 5.253144 -1.783986 -6.261642 0
M  V30 193 H 6.723509 -4.683986 -5.117658 0
M  V30 194 H 6.675679 -6.898158 -6.425603 0
M  V30 195 H 6.280305 -7.428470 -9.062818 0
M  V30 196 H 5.807595 -6.307889 -11.119136 0
M  V30 197 H 5.539549 -3.908356 -11.584683 0
M  V30 198 H 5.755822 -2.499960 -9.506406 0
M  V30 199 H 5.534900 -2.299188 -3.687881 0
M  V30 200 H 7.854249 -4.475066 -1.883420 0
M  V30 201 H 8.181340 -2.872635 -1.172655 0
M  V30 202 H 5.852580 -3.005511 -0.202199 0
M  V30 203 H 3.733653 -3.650131 -0.622053 0
M  V30 204 H 4.193717 -6.212832 -2.282831 0
M  V30 205 H 4.707043 -5.986471 -0.620483 0
M  V30 206 H 2.860506 -7.607467 -0.807729 0
M  V30 207 H 1.082500 -5.479962 -2.152491 0
M  V30 208 H 2.071014 -6.815496 -2.912379 0
M  V30 209 H 0.778610 -7.236363 -1.829914 0
M  V30 210 H 2.467416 -5.160406 0.863653 0
M  V30 211 H 0.952680 -5.894918 0.310713 0
M  V30 212 H 2.048770 -6.959123 1.166253 0
M  V30 213 H 2.258960 -3.449675 -2.142300 0
M  V30 214 H 1.020813 -3.475991 -5.356217 0
M  V30 215 H 2.686244 -1.019786 -4.813894 0
M  V30 216 H 2.975298 -2.160197 -6.094862 0
M  V30 217 H 1.116783 -1.737164 -7.343159 0
M  V30 218 H -0.677110 -1.419816 -5.607805 0
M  V30 219 H -0.135405 0.344176 -5.466482 0
M  V30 220 H -0.653607 -0.332537 -7.015493 0
M  V30 221 H 2.993812 -0.215303 -7.308169 0
M  V30 222 H 1.482584 0.632329 -7.832063 0
M  V30 223 H 2.089165 0.931812 -6.180980 0
M  V30 224 H -0.155563 -2.756996 -3.243754 0
M  V30 225 H -0.777751 0.572421 -2.559889 0
M  V30 226 H 0.898816 -0.914066 -0.473284 0
M  V30 227 H 1.535257 0.571612 -1.262581 0
M  V30 228 H -0.997544 0.669864 0.529141 0
M  V30 229 H 0.652470 0.784770 1.109809 0
M  V30 230 H -0.210911 2.967360 0.896602 0
M  V30 231 H 1.081320 2.717070 -0.349981 0
M  V30 232 H -0.331308 3.035053 -1.962062 0
M  V30 233 H -3.291602 4.507876 -0.210792 0
M  V30 234 H -3.484284 4.494540 -2.584511 0
M  V30 235 H -2.907214 2.786169 -3.325131 0
M  V30 236 H -0.846639 -1.860422 -0.875943 0
M  V30 237 H -3.576409 -2.519013 -1.301108 0
M  V30 238 H -1.952410 -4.688455 -2.824977 0
M  V30 239 H -3.256400 -4.850182 -1.660659 0
M  V30 240 H -1.464102 -5.210076 0.217717 0
M  V30 241 H -5.086550 -2.986088 -2.676467 0
M  V30 242 H -4.939428 -4.502355 -5.904923 0
M  V30 243 H -6.342780 -2.455371 -4.338282 0
M  V30 244 H -6.764524 -4.734455 -1.737162 0
M  V30 245 H -7.723457 -2.781104 -1.335418 0
M  V30 246 H -9.875131 -0.390865 -2.509206 0
M  V30 247 H -7.685082 0.101997 -0.413876 0
M  V30 248 H -10.068191 -0.658435 1.956398 0
M  V30 249 H -11.356309 1.240712 2.528076 0
M  V30 250 H -11.878266 0.928787 0.769118 0
M  V30 251 H -10.679364 2.768067 0.014474 0
M  V30 252 H -10.780658 3.386195 1.646232 0
M  V30 253 H -8.469882 2.233963 0.239381 0
M  V30 254 H -8.489340 3.137054 1.772854 0
M  V30 255 H -7.370423 2.842971 3.642442 0
M  V30 256 H -6.454724 1.527777 1.179443 0
M  V30 257 H -6.074353 3.187222 1.848826 0
M  V30 258 H -3.945959 2.317247 1.842782 0
M  V30 259 H -4.497832 0.585207 2.137086 0
M  V30 260 H -3.793112 1.385498 4.415422 0
M  V30 261 H -4.504860 2.994430 4.029366 0
M  V30 262 H -6.495067 -0.764591 6.771205 0
M  V30 263 H -3.484935 -0.004803 6.527362 0
M  V30 264 H -3.735255 -1.482930 3.290555 0
M  V30 265 H -3.204584 -3.910845 3.805254 0
M  V30 266 H -4.041907 -3.768215 5.359229 0
M  V30 267 H -4.327572 -3.519302 1.682732 0
M  V30 268 H -6.413618 -3.932364 0.544294 0
M  V30 269 H -8.547084 -4.270505 1.579244 0
M  V30 270 H -8.624341 -4.177941 4.132974 0
M  V30 271 H -6.521538 -3.756458 5.387604 0
M  V30 272 H -2.131069 -2.391762 5.528390 0
M  V30 273 H 0.768184 -1.628579 4.413749 0
M  V30 274 H -0.366687 -2.854018 6.262464 0
M  V30 275 H -0.530076 -1.261656 7.119778 0
M  V30 276 H 1.585714 -1.688009 7.811821 0
M  V30 277 H 1.986802 -2.802422 6.364384 0
M  V30 278 H 2.770044 -0.029571 6.595362 0
M  V30 279 H 2.551758 -0.996277 5.063861 0
M  V30 280 H 2.433856 1.878133 6.126670 0
M  V30 281 H -0.060190 1.962474 7.995917 0
M  V30 282 H 0.933696 0.567864 7.809512 0
M  V30 283 H 2.911220 2.037746 8.876903 0
M  V30 284 H 1.564374 3.481361 10.596137 0
M  V30 285 H 0.466995 3.712706 9.191728 0
M  V30 286 H 2.248157 4.206041 9.056396 0
M  V30 287 H 0.494502 1.013312 10.440837 0
M  V30 288 H 1.983068 0.101350 9.959385 0
M  V30 289 H 2.102594 1.495869 11.058964 0
M  V30 290 H 1.016228 4.219872 7.080315 0
M  V30 291 H 2.674319 5.777095 5.249766 0
M  V30 292 H 0.715489 6.656415 3.485232 0
M  V30 293 H 2.374008 7.653040 0.950872 0
M  V30 294 H 0.867703 8.269150 2.487448 0
M  V30 295 H -0.497299 7.325664 1.910379 0
M  V30 296 H 0.118872 9.646131 1.144206 0
M  V30 297 H 1.018207 5.312834 -0.335820 0
M  V30 298 H 2.669107 6.542650 -3.190959 0
M  V30 299 H 0.028866 5.325946 -2.859884 0
M  V30 300 H 1.481280 4.512657 -2.305731 0
M  V30 301 H -0.185128 7.637195 -3.163860 0
M  V30 302 H 1.369927 8.531241 -3.431930 0
M  V30 303 H 1.791779 7.116923 -5.206401 0
M  V30 304 H 0.756748 6.093466 6.748382 0
M  V30 305 H 0.689082 8.318173 6.392207 0
M  V30 306 H 1.763256 7.906956 4.973318 0
M  V30 307 H 0.021895 8.106890 4.741170 0
M  V30 308 H -1.054104 6.439067 4.372082 0
M  V30 309 H -1.115549 4.914317 5.432858 0
M  V30 310 H -1.220682 7.728706 6.572025 0
M  V30 311 H -2.699975 6.878001 5.994570 0
M  V30 312 H -1.594918 6.205899 7.314421 0
M  V30 313 H -5.168301 1.728136 7.948752 0
M  V30 314 H -8.132153 0.841699 8.318636 0
M  V30 315 H -7.473158 2.411132 7.627563 0
M  V30 316 H -7.208032 1.972721 9.276237 0
M  V30 317 H -5.210189 -0.804516 8.693885 0
M  V30 318 H -8.305358 0.293271 -4.331895 0
M  V30 319 H -8.192125 2.361446 -2.098210 0
M  V30 320 H -8.543587 2.537756 -3.850578 0
M  V30 321 H -9.748939 1.725282 -2.850265 0
M  V30 322 H -6.190543 -0.472371 -3.159056 0
M  V30 323 H -6.515331 0.774956 -1.886456 0
M  V30 324 H -5.275695 0.931135 -4.529052 0
M  V30 325 H -6.660828 2.086369 -4.371708 0
M  V30 326 H -5.211553 2.104477 -3.206249 0
M  V30 327 H -9.298054 -5.220212 -1.741482 0
M  V30 328 H -8.198942 -7.082105 -1.116790 0
M  V30 329 H -6.887644 -6.872506 -2.288646 0
M  V30 330 H -8.439786 -7.611572 -2.811261 0
M  V30 331 H -9.396757 -4.720768 -4.376428 0
M  V30 332 H -8.834379 -6.456539 -4.387196 0
M  V30 333 H -10.357901 -5.994586 -3.552566 0
M  V30 334 H -4.925541 -1.393785 -5.866273 0
M  V30 335 H -3.863824 -3.591929 -7.659064 0
M  V30 336 H -2.981189 -2.366011 -6.671344 0
M  V30 337 H -3.872955 -1.839770 -8.172262 0
M  V30 338 H -6.355818 -2.983614 -8.098063 0
M  V30 339 H -7.301882 -2.145804 -6.886735 0
M  V30 340 H -5.560859 -1.152145 -9.105580 0
M  V30 341 H -5.344247 -0.243736 -7.580564 0
M  V30 342 H -7.005192 -0.314689 -8.258933 0
M  V30 343 H 7.336121 0.783386 -2.945658 0
M  V30 344 H 4.959847 2.004098 -1.738094 0
M  V30 345 H 6.698970 -0.444610 -0.924775 0
M  V30 346 H 5.231401 -0.676003 -1.892206 0
M  V30 347 H 3.592536 -0.611125 0.224238 0
M  V30 348 H 5.767978 2.373995 0.894264 0
M  V30 349 H 8.841793 2.609657 0.433697 0
M  V30 350 H 7.210165 4.914653 1.711358 0
M  V30 351 H 7.672744 4.863275 -0.003107 0
M  V30 352 H 9.095702 6.249112 1.238290 0
M  V30 353 H 9.542151 4.878361 2.375829 0
M  V30 354 H 10.031303 4.792814 -0.682490 0
M  V30 355 H 10.527046 3.612276 0.550879 0
M  V30 356 H 11.500387 6.505257 0.296415 0
M  V30 357 H 11.975220 5.354224 1.595857 0
M  V30 358 H 12.174590 4.252523 -1.039565 0
M  V30 359 H 13.070480 5.737675 -0.924469 0
M  V30 360 H 6.602247 1.566610 2.587988 0
M  V30 361 H 6.808321 1.791969 5.273450 0
M  V30 362 H 5.665127 0.916431 4.298289 0
M  V30 363 H 5.703912 -0.598490 6.016991 0
M  V30 364 H 8.305419 -1.723591 6.858485 0
M  V30 365 H 5.484031 -2.991195 6.607508 0
M  V30 366 H 6.314561 -2.225718 7.980127 0
M  V30 367 H 7.960162 -4.175526 8.086714 0
M  V30 368 H 6.242750 -4.570177 8.353122 0
M  V30 369 H 8.074781 -6.465894 5.151761 0
M  V30 370 H 8.855266 -2.810620 3.128477 0
M  V30 END ATOM
M  V30 BEGIN BOND
M  V30 1 1 1 2
M  V30 2 1 2 3
M  V30 3 1 3 4
M  V30 4 1 3 5
M  V30 5 1 5 6
M  V30 6 1 6 7
M  V30 7 2 7 8
M  V30 8 1 7 9
M  V30 9 1 9 10
M  V30 10 1 10 11
M  V30 11 2 11 12
M  V30 12 1 12 13
M  V30 13 1 13 14
M  V30 14 2 14 15
M  V30 15 1 15 16
M  V30 16 2 16 17
M  V30 17 1 17 18
M  V30 18 2 18 19
M  V30 19 1 9 20
M  V30 20 1 20 21
M  V30 21 2 21 22
M  V30 22 1 21 23
M  V30 23 1 23 24
M  V30 24 1 24 25
M  V30 25 2 25 26
M  V30 26 1 25 27
M  V30 27 1 27 28
M  V30 28 1 28 29
M  V30 29 1 29 30
M  V30 30 1 29 31
M  V30 31 1 27 32
M  V30 32 1 32 33
M  V30 33 2 33 34
M  V30 34 1 33 35
M  V30 35 1 35 36
M  V30 36 1 36 37
M  V30 37 1 37 38
M  V30 38 1 37 39
M  V30 39 1 35 40
M  V30 40 1 40 41
M  V30 41 2 41 42
M  V30 42 1 41 43
M  V30 43 1 43 44
M  V30 44 1 44 45
M  V30 45 1 45 46
M  V30 46 1 46 47
M  V30 47 1 47 48
M  V30 48 2 48 49 CFG=2
M  V30 49 1 48 50
M  V30 50 1 43 51
M  V30 51 1 51 52
M  V30 52 2 52 53
M  V30 53 1 52 54
M  V30 54 1 54 55
M  V30 55 1 55 56
M  V30 56 1 54 57
M  V30 57 1 57 58
M  V30 58 2 58 59
M  V30 59 1 58 60
M  V30 60 1 60 61
M  V30 61 1 61 62
M  V30 62 2 62 63
M  V30 63 1 62 64
M  V30 64 1 64 65
M  V30 65 1 65 66
M  V30 66 2 66 67
M  V30 67 1 66 68
M  V30 68 1 68 69
M  V30 69 1 69 70
M  V30 70 2 70 71
M  V30 71 1 70 72
M  V30 72 1 72 73
M  V30 73 1 73 74
M  V30 74 1 74 75
M  V30 75 1 75 76
M  V30 76 1 76 77
M  V30 77 2 77 78
M  V30 78 1 77 79
M  V30 79 1 79 80
M  V30 80 1 80 81
M  V30 81 1 81 82
M  V30 82 1 82 83
M  V30 83 1 83 84
M  V30 84 2 84 85
M  V30 85 1 84 86
M  V30 86 1 86 87
M  V30 87 1 87 88
M  V30 88 2 88 89
M  V30 89 1 88 90
M  V30 90 1 90 91
M  V30 91 1 91 92
M  V30 92 2 92 93
M  V30 93 1 93 94
M  V30 94 2 94 95
M  V30 95 1 95 96
M  V30 96 2 96 97
M  V30 97 1 90 98
M  V30 98 1 98 99
M  V30 99 2 99 100
M  V30 100 1 99 101
M  V30 101 1 101 102
M  V30 102 1 102 103
M  V30 103 1 103 104
M  V30 104 1 104 105
M  V30 105 1 105 106
M  V30 106 2 106 107
M  V30 107 1 106 108
M  V30 108 1 108 109
M  V30 109 1 109 110
M  V30 110 1 110 111
M  V30 111 1 110 112
M  V30 112 1 108 113
M  V30 113 1 113 114
M  V30 114 2 114 115
M  V30 115 1 114 116
M  V30 116 1 116 117
M  V30 117 1 117 118
M  V30 118 2 118 119
M  V30 119 1 118 120
M  V30 120 1 120 121
M  V30 121 1 121 122
M  V30 122 1 120 123
M  V30 123 1 123 124
M  V30 124 2 124 125
M  V30 125 1 124 126
M  V30 126 1 126 127
M  V30 127 1 126 128
M  V30 128 1 128 129
M  V30 129 1 116 130
M  V30 130 1 130 131
M  V30 131 1 130 132
M  V30 132 1 132 133
M  V30 133 1 86 134
M  V30 134 1 134 135
M  V30 135 1 134 136
M  V30 136 1 68 137
M  V30 137 1 137 138
M  V30 138 1 137 139
M  V30 139 1 139 140
M  V30 140 1 64 141
M  V30 141 1 141 142
M  V30 142 1 141 143
M  V30 143 1 60 144
M  V30 144 1 144 145
M  V30 145 1 144 146
M  V30 146 1 146 147
M  V30 147 1 5 148
M  V30 148 2 148 149
M  V30 149 1 148 150
M  V30 150 1 150 151
M  V30 151 1 151 152
M  V30 152 1 152 153
M  V30 153 1 151 154
M  V30 154 2 154 155
M  V30 155 1 154 156
M  V30 156 1 156 157
M  V30 157 1 157 158
M  V30 158 1 158 159
M  V30 159 1 159 160
M  V30 160 1 160 161
M  V30 161 1 161 162
M  V30 162 1 157 163
M  V30 163 2 163 164
M  V30 164 1 163 165
M  V30 165 1 165 166
M  V30 166 1 166 167
M  V30 167 2 167 168
M  V30 168 1 167 169
M  V30 169 1 169 170
M  V30 170 1 170 171
M  V30 171 1 171 172
M  V30 172 1 172 173
M  V30 173 2 173 174
M  V30 174 1 173 175
M  V30 175 1 170 176
M  V30 176 2 176 177
M  V30 177 1 176 178
M  V30 178 1 19 11
M  V30 179 1 76 72
M  V30 180 1 83 79
M  V30 181 1 97 92
M  V30 182 1 105 101
M  V30 183 1 19 14
M  V30 184 1 1 179
M  V30 185 1 1 180
M  V30 186 1 1 181
M  V30 187 1 2 182
M  V30 188 1 2 183
M  V30 189 1 3 184 CFG=1
M  V30 190 1 4 185
M  V30 191 1 4 186
M  V30 192 1 4 187
M  V30 193 1 5 188 CFG=1
M  V30 194 1 6 189
M  V30 195 1 9 190 CFG=3
M  V30 196 1 10 191
M  V30 197 1 10 192
M  V30 198 1 12 193
M  V30 199 1 13 194
M  V30 200 1 15 195
M  V30 201 1 16 196
M  V30 202 1 17 197
M  V30 203 1 18 198
M  V30 204 1 20 199
M  V30 205 1 23 200
M  V30 206 1 23 201
M  V30 207 1 24 202
M  V30 208 1 27 203 CFG=1
M  V30 209 1 28 204
M  V30 210 1 28 205
M  V30 211 1 29 206
M  V30 212 1 30 207
M  V30 213 1 30 208
M  V30 214 1 30 209
M  V30 215 1 31 210
M  V30 216 1 31 211
M  V30 217 1 31 212
M  V30 218 1 32 213
M  V30 219 1 35 214 CFG=3
M  V30 220 1 36 215
M  V30 221 1 36 216
M  V30 222 1 37 217
M  V30 223 1 38 218
M  V30 224 1 38 219
M  V30 225 1 38 220
M  V30 226 1 39 221
M  V30 227 1 39 222
M  V30 228 1 39 223
M  V30 229 1 40 224
M  V30 230 1 43 225 CFG=3
M  V30 231 1 44 226
M  V30 232 1 44 227
M  V30 233 1 45 228
M  V30 234 1 45 229
M  V30 235 1 46 230
M  V30 236 1 46 231
M  V30 237 1 47 232
M  V30 238 1 49 233
M  V30 239 1 50 234
M  V30 240 1 50 235
M  V30 241 1 51 236
M  V30 242 1 54 237 CFG=1
M  V30 243 1 55 238
M  V30 244 1 55 239
M  V30 245 1 56 240
M  V30 246 1 57 241
M  V30 247 1 60 242 CFG=3
M  V30 248 1 61 243
M  V30 249 1 64 244 CFG=1
M  V30 250 1 65 245
M  V30 251 1 68 246 CFG=3
M  V30 252 1 69 247
M  V30 253 1 72 248 CFG=1
M  V30 254 1 73 249
M  V30 255 1 73 250
M  V30 256 1 74 251
M  V30 257 1 74 252
M  V30 258 1 75 253
M  V30 259 1 75 254
M  V30 260 1 79 255 CFG=1
M  V30 261 1 80 256
M  V30 262 1 80 257
M  V30 263 1 81 258
M  V30 264 1 81 259
M  V30 265 1 82 260
M  V30 266 1 82 261
M  V30 267 1 86 262 CFG=1
M  V30 268 1 87 263
M  V30 269 1 90 264 CFG=3
M  V30 270 1 91 265
M  V30 271 1 91 266
M  V30 272 1 93 267
M  V30 273 1 94 268
M  V30 274 1 95 269
M  V30 275 1 96 270
M  V30 276 1 97 271
M  V30 277 1 98 272
M  V30 278 1 101 273 CFG=3
M  V30 279 1 102 274
M  V30 280 1 102 275
M  V30 281 1 103 276
M  V30 282 1 103 277
M  V30 283 1 104 278
M  V30 284 1 104 279
M  V30 285 1 108 280 CFG=3
M  V30 286 1 109 281
M  V30 287 1 109 282
M  V30 288 1 110 283
M  V30 289 1 111 284
M  V30 290 1 111 285
M  V30 291 1 111 286
M  V30 292 1 112 287
M  V30 293 1 112 288
M  V30 294 1 112 289
M  V30 295 1 113 290
M  V30 296 1 116 291 CFG=1
M  V30 297 1 117 292
M  V30 298 1 120 293 CFG=3
M  V30 299 1 121 294
M  V30 300 1 121 295
M  V30 301 1 122 296
M  V30 302 1 123 297
M  V30 303 1 126 298 CFG=3
M  V30 304 1 127 299
M  V30 305 1 127 300
M  V30 306 1 128 301
M  V30 307 1 128 302
M  V30 308 1 129 303
M  V30 309 1 130 304 CFG=1
M  V30 310 1 131 305
M  V30 311 1 131 306
M  V30 312 1 131 307
M  V30 313 1 132 308
M  V30 314 1 132 309
M  V30 315 1 133 310
M  V30 316 1 133 311
M  V30 317 1 133 312
M  V30 318 1 134 313 CFG=3
M  V30 319 1 135 314
M  V30 320 1 135 315
M  V30 321 1 135 316
M  V30 322 1 136 317
M  V30 323 1 137 318 CFG=3
M  V30 324 1 138 319
M  V30 325 1 138 320
M  V30 326 1 138 321
M  V30 327 1 139 322
M  V30 328 1 139 323
M  V30 329 1 140 324
M  V30 330 1 140 325
M  V30 331 1 140 326
M  V30 332 1 141 327
M  V30 333 1 142 328
M  V30 334 1 142 329
M  V30 335 1 142 330
M  V30 336 1 143 331
M  V30 337 1 143 332
M  V30 338 1 143 333
M  V30 339 1 144 334 CFG=1
M  V30 340 1 145 335
M  V30 341 1 145 336
M  V30 342 1 145 337
M  V30 343 1 146 338
M  V30 344 1 146 339
M  V30 345 1 147 340
M  V30 346 1 147 341
M  V30 347 1 147 342
M  V30 348 1 150 343
M  V30 349 1 151 344 CFG=3
M  V30 350 1 152 345
M  V30 351 1 152 346
M  V30 352 1 153 347
M  V30 353 1 156 348
M  V30 354 1 157 349 CFG=3
M  V30 355 1 158 350
M  V30 356 1 158 351
M  V30 357 1 159 352
M  V30 358 1 159 353
M  V30 359 1 160 354
M  V30 360 1 160 355
M  V30 361 1 161 356
M  V30 362 1 161 357
M  V30 363 1 162 358
M  V30 364 1 162 359
M  V30 365 1 165 360
M  V30 366 1 166 361
M  V30 367 1 166 362
M  V30 368 1 169 363
M  V30 369 1 170 364 CFG=1
M  V30 370 1 171 365
M  V30 371 1 171 366
M  V30 372 1 172 367
M  V30 373 1 172 368
M  V30 374 1 175 369
M  V30 375 1 178 370
M  V30 END BOND
M  V30 END CTAB
M  END
>  <Dataset>  (566) 
ChEMBL_Kinases

>  <Ligand_Instance>  (566) 
nan

>  <PDB_ID>  (566) 
nan

>  <Standardized_SMILES>  (566) 
CC[C@H](C)[C@H](NC(=O)[C@H](Cc1c[nH]c2ccccc12)NC(=O)CNC(=O)[C@H](CC(C)C)NC(=O)[C@H](CC(C)C)NC(=O)[C@H](CCCNC(=N)N)NC(=O)[C@H](CS)NC(=O)[C@@H](NC(=O)[C@@H](NC(=O)[C@@H](NC(=O)[C@@H]1CCCN1C(=O)[C@@H]1CCCN1C(=O)[C@@H](NC(=O)[C@H](Cc1ccccc1)NC(=O)[C@@H]1CCCN1C(=O)[C@H](CC(C)C)NC(=O)[C@@H](NC(=O)[C@H](CO)NC(=O)[C@@H](N)CO)[C@@H](C)CC)[C@@H](C)O)[C@@H](C)CC)C(C)C)[C@@H](C)CC)C(=O)N[C@@H](CS)C(=O)N[C@@H](CCCCN)C(=O)NCC(=O)N[C@@H](CCC(=O)O)C(=O)O

>  <Name>  (566) 
nan

>  <Pocket>  (566) 
nan

>  <ATP_Site>  (566) 
nan

>  <Peripheral>  (566) 
nan

>  <Num_H_Atoms_ProtBoundConf>  (566) 
nan

>  <Num_Resolved_Atoms>  (566) 
nan

>  <Num_Not_Resolved_Atoms>  (566) 
nan

$$$$
CHEMBL4858679
     RDKit          3D

  0  0  0  0  0  0  0  0  0  0999 V3000
M  V30 BEGIN CTAB
M  V30 COUNTS 51 54 0 0 0
M  V30 BEGIN ATOM
M  V30 1 N 2.878781 -4.466292 5.232254 0
M  V30 2 C 3.380619 -3.898702 4.357611 0
M  V30 3 C 3.995504 -3.205805 3.252006 0
M  V30 4 C 4.975639 -3.849962 2.499977 0
M  V30 5 C 5.564059 -3.187825 1.442481 0
M  V30 6 C 5.168130 -1.895095 1.149688 0
M  V30 7 N 5.734296 -1.225187 0.113179 0
M  V30 8 C 5.341567 0.048329 -0.172229 0
M  V30 9 N 4.395766 0.639797 0.570870 0
M  V30 10 C 3.791058 0.058537 1.600368 0
M  V30 11 N 2.800459 0.748715 2.345050 0
M  V30 12 C 2.436949 2.101048 1.975302 0
M  V30 13 C 1.830827 2.115782 0.600768 0
M  V30 14 C 0.614265 1.268662 0.592019 0
M  V30 15 C -0.604375 1.869444 0.918379 0
M  V30 16 C -1.834183 1.246752 0.960828 0
M  V30 17 C -1.874209 -0.097440 0.653146 0
M  V30 18 C -3.113641 -0.834362 0.670472 0
M  V30 19 O -3.044955 -1.778193 1.503914 0
M  V30 20 N -4.242124 -0.526087 -0.143545 0
M  V30 21 C -4.707544 0.418545 -1.172019 0
M  V30 22 C -4.957659 -0.565054 -2.309642 0
M  V30 23 C -5.707112 -1.665854 -1.547690 0
M  V30 24 N -5.126119 -2.946305 -1.839316 0
M  V30 25 C -5.470333 -1.321406 -0.071188 0
M  V30 26 C -0.693344 -0.729914 0.325106 0
M  V30 27 C 0.519273 -0.073148 0.293187 0
M  V30 28 C 4.208747 -1.219280 1.859625 0
M  V30 29 C 3.650713 -1.921048 2.905162 0
M  V30 30 H 5.255270 -4.869841 2.768508 0
M  V30 31 H 6.333455 -3.704267 0.858375 0
M  V30 32 H 5.801407 0.576590 -1.004933 0
M  V30 33 H 2.280681 0.375500 3.165807 0
M  V30 34 H 1.703634 2.554790 2.668000 0
M  V30 35 H 3.362119 2.730952 1.999201 0
M  V30 36 H 2.524698 1.844818 -0.202632 0
M  V30 37 H 1.513070 3.171870 0.378900 0
M  V30 38 H -0.597815 2.935730 1.166298 0
M  V30 39 H -2.714713 1.807181 1.226129 0
M  V30 40 H -3.934227 1.166897 -1.418742 0
M  V30 41 H -5.679420 0.829243 -0.881985 0
M  V30 42 H -5.571153 -0.115005 -3.111775 0
M  V30 43 H -4.024294 -0.996383 -2.677412 0
M  V30 44 H -6.784982 -1.623940 -1.792441 0
M  V30 45 H -4.280111 -2.814577 -2.434676 0
M  V30 46 H -4.815381 -3.420514 -0.952210 0
M  V30 47 H -6.296289 -0.632126 0.214237 0
M  V30 48 H -5.385828 -2.209301 0.553132 0
M  V30 49 H -0.695718 -1.793979 0.077064 0
M  V30 50 H 1.448700 -0.559258 0.035677 0
M  V30 51 H 2.893545 -1.489738 3.524376 0
M  V30 END ATOM
M  V30 BEGIN BOND
M  V30 1 3 1 2
M  V30 2 1 2 3
M  V30 3 2 3 4
M  V30 4 1 4 5
M  V30 5 2 5 6
M  V30 6 1 6 7
M  V30 7 2 7 8
M  V30 8 1 8 9
M  V30 9 2 9 10
M  V30 10 1 10 11
M  V30 11 1 11 12
M  V30 12 1 12 13
M  V30 13 1 13 14
M  V30 14 2 14 15
M  V30 15 1 15 16
M  V30 16 2 16 17
M  V30 17 1 17 18
M  V30 18 2 18 19
M  V30 19 1 18 20
M  V30 20 1 20 21
M  V30 21 1 21 22
M  V30 22 1 22 23
M  V30 23 1 23 24
M  V30 24 1 23 25
M  V30 25 1 17 26
M  V30 26 2 26 27
M  V30 27 1 10 28
M  V30 28 2 28 29
M  V30 29 1 29 3
M  V30 30 1 28 6
M  V30 31 1 27 14
M  V30 32 1 25 20
M  V30 33 1 4 30
M  V30 34 1 5 31
M  V30 35 1 8 32
M  V30 36 1 11 33
M  V30 37 1 12 34
M  V30 38 1 12 35
M  V30 39 1 13 36
M  V30 40 1 13 37
M  V30 41 1 15 38
M  V30 42 1 16 39
M  V30 43 1 21 40
M  V30 44 1 21 41
M  V30 45 1 22 42
M  V30 46 1 22 43
M  V30 47 1 23 44
M  V30 48 1 24 45
M  V30 49 1 24 46
M  V30 50 1 25 47
M  V30 51 1 25 48
M  V30 52 1 26 49
M  V30 53 1 27 50
M  V30 54 1 29 51
M  V30 END BOND
M  V30 END CTAB
M  END
>  <Dataset>  (567) 
ChEMBL_Kinases

>  <Ligand_Instance>  (567) 
nan

>  <PDB_ID>  (567) 
nan

>  <Standardized_SMILES>  (567) 
N#Cc1ccc2ncnc(NCCc3ccc(C(=O)N4CCC(N)C4)cc3)c2c1

>  <Name>  (567) 
nan

>  <Pocket>  (567) 
nan

>  <ATP_Site>  (567) 
nan

>  <Peripheral>  (567) 
nan

>  <Num_H_Atoms_ProtBoundConf>  (567) 
nan

>  <Num_Resolved_Atoms>  (567) 
nan

>  <Num_Not_Resolved_Atoms>  (567) 
nan

$$$$
CHEMBL4858759
     RDKit          3D

  0  0  0  0  0  0  0  0  0  0999 V3000
M  V30 BEGIN CTAB
M  V30 COUNTS 55 58 0 0 0
M  V30 BEGIN ATOM
M  V30 1 C 1.218098 -0.687726 4.356055 0
M  V30 2 N 2.576988 -1.227791 4.440318 0
M  V30 3 C 2.851086 -1.956931 5.676770 0
M  V30 4 C 3.664308 -1.192811 3.490782 0
M  V30 5 O 4.832145 -1.645445 3.610027 0
M  V30 6 C 3.141009 -0.508250 2.298681 0
M  V30 7 C 2.823760 0.788882 1.996045 0
M  V30 8 C 2.312069 1.094092 0.759051 0
M  V30 9 C 2.079348 0.184042 -0.241005 0
M  V30 10 N 1.522236 0.536426 -1.493956 0
M  V30 11 C 1.279573 1.956703 -1.809205 0
M  V30 12 C -0.175372 2.099518 -1.311972 0
M  V30 13 C -1.032963 1.255103 -2.185452 0
M  V30 14 N -1.208097 -0.122557 -1.685925 0
M  V30 15 C -2.316151 -0.218391 -0.817698 0
M  V30 16 C -2.715117 0.931254 -0.149381 0
M  V30 17 C -3.715043 0.957223 0.789879 0
M  V30 18 N -4.370143 -0.189991 1.103102 0
M  V30 19 C -4.055229 -1.358164 0.502671 0
M  V30 20 C -4.745926 -2.502887 0.812389 0
M  V30 21 C -4.436869 -3.705749 0.161450 0
M  V30 22 C -3.425580 -3.709688 -0.791600 0
M  V30 23 C -3.080368 -4.935834 -1.483225 0
M  V30 24 N -2.808971 -5.913439 -2.049014 0
M  V30 25 C -2.789084 -2.513210 -1.030466 0
M  V30 26 C -3.047275 -1.312377 -0.425819 0
M  V30 27 C -0.216780 -1.070900 -2.120832 0
M  V30 28 C 1.139633 -0.434783 -2.439686 0
M  V30 29 C 2.396885 -1.139223 0.048429 0
M  V30 30 C 2.920047 -1.478672 1.299124 0
M  V30 31 H 0.521673 -1.401684 4.842411 0
M  V30 32 H 0.893928 -0.637256 3.274410 0
M  V30 33 H 1.121862 0.277301 4.862114 0
M  V30 34 H 2.295067 -1.501522 6.492758 0
M  V30 35 H 3.931430 -1.915455 5.884223 0
M  V30 36 H 2.495822 -3.012652 5.531196 0
M  V30 37 H 3.033131 1.428204 2.832534 0
M  V30 38 H 2.114528 2.145005 0.679484 0
M  V30 39 H 1.877046 2.643098 -1.193597 0
M  V30 40 H 1.359629 2.171632 -2.885258 0
M  V30 41 H -0.066834 1.722190 -0.248187 0
M  V30 42 H -0.494556 3.139912 -1.243744 0
M  V30 43 H -0.619275 1.254983 -3.213988 0
M  V30 44 H -2.064946 1.706159 -2.327861 0
M  V30 45 H -2.338947 1.932912 -0.264241 0
M  V30 46 H -4.067702 1.814466 1.342605 0
M  V30 47 H -5.511749 -2.413890 1.558053 0
M  V30 48 H -4.994833 -4.600002 0.414660 0
M  V30 49 H -2.041166 -2.559099 -1.791236 0
M  V30 50 H -0.010911 -1.836595 -1.356568 0
M  V30 51 H -0.442028 -1.571486 -3.083829 0
M  V30 52 H 1.865927 -1.252160 -2.539877 0
M  V30 53 H 1.099280 0.021798 -3.464532 0
M  V30 54 H 2.251626 -1.924669 -0.691063 0
M  V30 55 H 3.118861 -2.550551 1.387245 0
M  V30 END ATOM
M  V30 BEGIN BOND
M  V30 1 1 1 2
M  V30 2 1 2 3
M  V30 3 1 2 4
M  V30 4 2 4 5
M  V30 5 1 4 6
M  V30 6 2 6 7
M  V30 7 1 7 8
M  V30 8 2 8 9
M  V30 9 1 9 10
M  V30 10 1 10 11
M  V30 11 1 11 12
M  V30 12 1 12 13
M  V30 13 1 13 14
M  V30 14 1 14 15
M  V30 15 2 15 16
M  V30 16 1 16 17
M  V30 17 2 17 18
M  V30 18 1 18 19
M  V30 19 2 19 20
M  V30 20 1 20 21
M  V30 21 2 21 22
M  V30 22 1 22 23
M  V30 23 3 23 24
M  V30 24 1 22 25
M  V30 25 2 25 26
M  V30 26 1 14 27
M  V30 27 1 27 28
M  V30 28 1 9 29
M  V30 29 2 29 30
M  V30 30 1 30 6
M  V30 31 1 28 10
M  V30 32 1 26 15
M  V30 33 1 26 19
M  V30 34 1 1 31
M  V30 35 1 1 32
M  V30 36 1 1 33
M  V30 37 1 3 34
M  V30 38 1 3 35
M  V30 39 1 3 36
M  V30 40 1 7 37
M  V30 41 1 8 38
M  V30 42 1 11 39
M  V30 43 1 11 40
M  V30 44 1 12 41
M  V30 45 1 12 42
M  V30 46 1 13 43
M  V30 47 1 13 44
M  V30 48 1 16 45
M  V30 49 1 17 46
M  V30 50 1 20 47
M  V30 51 1 21 48
M  V30 52 1 25 49
M  V30 53 1 27 50
M  V30 54 1 27 51
M  V30 55 1 28 52
M  V30 56 1 28 53
M  V30 57 1 29 54
M  V30 58 1 30 55
M  V30 END BOND
M  V30 END CTAB
M  END
>  <Dataset>  (568) 
ChEMBL_Kinases

>  <Ligand_Instance>  (568) 
nan

>  <PDB_ID>  (568) 
nan

>  <Standardized_SMILES>  (568) 
CN(C)C(=O)c1ccc(N2CCCN(c3ccnc4ccc(C#N)cc34)CC2)cc1

>  <Name>  (568) 
nan

>  <Pocket>  (568) 
nan

>  <ATP_Site>  (568) 
nan

>  <Peripheral>  (568) 
nan

>  <Num_H_Atoms_ProtBoundConf>  (568) 
nan

>  <Num_Resolved_Atoms>  (568) 
nan

>  <Num_Not_Resolved_Atoms>  (568) 
nan

$$$$
CHEMBL4858763
     RDKit          3D

  0  0  0  0  0  0  0  0  0  0999 V3000
M  V30 BEGIN CTAB
M  V30 COUNTS 36 38 0 0 0
M  V30 BEGIN ATOM
M  V30 1 C -0.381061 -3.495424 -0.224779 0
M  V30 2 N 0.706436 -2.564964 -0.490655 0
M  V30 3 C 2.046967 -2.889109 -0.022773 0
M  V30 4 C 2.040725 -2.828778 1.509735 0
M  V30 5 C 3.396569 -3.155313 2.079211 0
M  V30 6 F 3.375483 -3.097328 3.472159 0
M  V30 7 F 4.333004 -2.236018 1.657224 0
M  V30 8 F 3.806030 -4.415357 1.711511 0
M  V30 9 C 0.129159 -1.455649 -1.210982 0
M  V30 10 N -0.057882 -1.453758 -2.560864 0
M  V30 11 C -0.605598 -0.376001 -3.163604 0
M  V30 12 C -0.980249 0.737196 -2.403270 0
M  V30 13 C -0.792380 0.734666 -1.053056 0
M  V30 14 C -1.160104 1.882378 -0.228308 0
M  V30 15 C -1.760509 3.069220 -0.596062 0
M  V30 16 N -1.898997 3.839056 0.498028 0
M  V30 17 N -1.413712 3.209102 1.576865 0
M  V30 18 N -1.325472 3.557999 2.860553 0
M  V30 19 C -0.769974 2.706082 3.771680 0
M  V30 20 C -0.281919 1.465786 3.415644 0
M  V30 21 C -0.396900 1.147995 2.062697 0
M  V30 22 C -0.966750 2.022800 1.130800 0
M  V30 23 N -0.242770 -0.368335 -0.512571 0
M  V30 24 H -1.151761 -3.088305 0.438209 0
M  V30 25 H -0.806931 -3.796216 -1.211173 0
M  V30 26 H 0.043358 -4.401785 0.275930 0
M  V30 27 H 2.773953 -2.141470 -0.364275 0
M  V30 28 H 2.285399 -3.913476 -0.349779 0
M  V30 29 H 1.274525 -3.508409 1.933041 0
M  V30 30 H 1.775764 -1.784701 1.814543 0
M  V30 31 H -0.757541 -0.367619 -4.240896 0
M  V30 32 H -1.415388 1.575802 -2.927288 0
M  V30 33 H -2.070078 3.330123 -1.615412 0
M  V30 34 H -0.695160 2.991333 4.829635 0
M  V30 35 H 0.158792 0.786872 4.129453 0
M  V30 36 H -0.001363 0.154734 1.803813 0
M  V30 END ATOM
M  V30 BEGIN BOND
M  V30 1 1 1 2
M  V30 2 1 2 3
M  V30 3 1 3 4
M  V30 4 1 4 5
M  V30 5 1 5 6
M  V30 6 1 5 7
M  V30 7 1 5 8
M  V30 8 1 2 9
M  V30 9 2 9 10
M  V30 10 1 10 11
M  V30 11 2 11 12
M  V30 12 1 12 13
M  V30 13 1 13 14
M  V30 14 1 14 15
M  V30 15 2 15 16
M  V30 16 1 16 17
M  V30 17 1 17 18
M  V30 18 2 18 19
M  V30 19 1 19 20
M  V30 20 2 20 21
M  V30 21 1 21 22
M  V30 22 2 13 23
M  V30 23 1 23 9
M  V30 24 2 22 14
M  V30 25 1 22 17
M  V30 26 1 1 24
M  V30 27 1 1 25
M  V30 28 1 1 26
M  V30 29 1 3 27
M  V30 30 1 3 28
M  V30 31 1 4 29
M  V30 32 1 4 30
M  V30 33 1 11 31
M  V30 34 1 12 32
M  V30 35 1 15 33
M  V30 36 1 19 34
M  V30 37 1 20 35
M  V30 38 1 21 36
M  V30 END BOND
M  V30 END CTAB
M  END
>  <Dataset>  (569) 
ChEMBL_Kinases

>  <Ligand_Instance>  (569) 
nan

>  <PDB_ID>  (569) 
nan

>  <Standardized_SMILES>  (569) 
CN(CCC(F)(F)F)c1nccc(-c2cnn3ncccc23)n1

>  <Name>  (569) 
nan

>  <Pocket>  (569) 
nan

>  <ATP_Site>  (569) 
nan

>  <Peripheral>  (569) 
nan

>  <Num_H_Atoms_ProtBoundConf>  (569) 
nan

>  <Num_Resolved_Atoms>  (569) 
nan

>  <Num_Not_Resolved_Atoms>  (569) 
nan

$$$$
CHEMBL4858782
     RDKit          3D

  0  0  0  0  0  0  0  0  0  0999 V3000
M  V30 BEGIN CTAB
M  V30 COUNTS 51 54 0 0 0
M  V30 BEGIN ATOM
M  V30 1 C 3.532462 -4.190994 3.861606 0
M  V30 2 N 4.118555 -2.990906 4.389122 0
M  V30 3 N 4.912964 -3.086367 5.458978 0
M  V30 4 C 5.351329 -1.844173 5.782540 0
M  V30 5 C 4.790432 -0.989285 4.864918 0
M  V30 6 C 4.004548 -1.729939 3.978623 0
M  V30 7 C 3.233824 -1.257290 2.862717 0
M  V30 8 C 3.157700 -1.787895 1.590619 0
M  V30 9 C 2.364714 -1.214634 0.618008 0
M  V30 10 C 1.655794 -0.089997 0.980674 0
M  V30 11 C 0.792787 0.563782 -0.018879 0
M  V30 12 O 0.861651 1.124308 -1.122990 0
M  V30 13 N -0.581497 0.555574 0.417069 0
M  V30 14 C -1.744008 1.079121 -0.239112 0 CFG=2
M  V30 15 C -2.440395 2.151490 0.527139 0
M  V30 16 N -3.580333 2.638613 -0.164675 0
M  V30 17 C -4.387642 1.706153 -0.857767 0
M  V30 18 C -4.110626 0.273409 -0.580848 0
M  V30 19 C -2.661536 -0.104682 -0.519125 0 CFG=1
M  V30 20 C -2.211897 -0.855653 -1.714115 0
M  V30 21 C -2.257532 -0.152254 -2.900050 0
M  V30 22 C -1.860822 -0.762231 -4.063085 0
M  V30 23 C -1.415081 -2.069608 -4.073476 0
M  V30 24 F -1.019425 -2.678607 -5.232381 0
M  V30 25 C -1.362643 -2.792715 -2.888236 0
M  V30 26 F -0.930794 -4.077314 -2.861611 0
M  V30 27 C -1.765876 -2.161425 -1.729825 0
M  V30 28 C 1.679845 0.497947 2.228687 0
M  V30 29 Cl 0.735048 1.929929 2.577866 0
M  V30 30 C 2.495374 -0.113926 3.183961 0
M  V30 31 H 2.715863 -3.999006 3.139966 0
M  V30 32 H 4.317062 -4.757953 3.319613 0
M  V30 33 H 3.173225 -4.876700 4.680084 0
M  V30 34 H 6.008341 -1.491589 6.578463 0
M  V30 35 H 4.918409 0.079530 4.813849 0
M  V30 36 H 3.760588 -2.671579 1.428775 0
M  V30 37 H 2.321094 -1.647521 -0.370564 0
M  V30 38 H -0.947588 0.142732 1.326818 0
M  V30 39 H -1.378900 1.523789 -1.206174 0
M  V30 40 H -1.726724 3.016531 0.581157 0
M  V30 41 H -2.750413 1.812991 1.531606 0
M  V30 42 H -4.142358 3.198175 0.545991 0
M  V30 43 H -4.390033 1.974957 -1.954919 0
M  V30 44 H -5.462874 1.882527 -0.566348 0
M  V30 45 H -4.551626 -0.320206 -1.431254 0
M  V30 46 H -4.701933 -0.061307 0.313350 0
M  V30 47 H -2.568376 -0.792233 0.349385 0
M  V30 48 H -2.575000 0.858470 -3.058090 0
M  V30 49 H -1.863608 -0.281126 -5.047135 0
M  V30 50 H -1.750051 -2.670966 -0.765128 0
M  V30 51 H 2.485684 0.383347 4.158860 0
M  V30 END ATOM
M  V30 BEGIN BOND
M  V30 1 1 1 2
M  V30 2 1 2 3
M  V30 3 2 3 4
M  V30 4 1 4 5
M  V30 5 2 5 6
M  V30 6 1 6 7
M  V30 7 2 7 8
M  V30 8 1 8 9
M  V30 9 2 9 10
M  V30 10 1 10 11
M  V30 11 2 11 12
M  V30 12 1 11 13
M  V30 13 1 13 14
M  V30 14 1 14 15
M  V30 15 1 15 16
M  V30 16 1 16 17
M  V30 17 1 17 18
M  V30 18 1 18 19
M  V30 19 1 19 20
M  V30 20 2 20 21
M  V30 21 1 21 22
M  V30 22 2 22 23
M  V30 23 1 23 24
M  V30 24 1 23 25
M  V30 25 1 25 26
M  V30 26 2 25 27
M  V30 27 1 10 28
M  V30 28 1 28 29
M  V30 29 2 28 30
M  V30 30 1 6 2
M  V30 31 1 30 7
M  V30 32 1 19 14
M  V30 33 1 27 20
M  V30 34 1 1 31
M  V30 35 1 1 32
M  V30 36 1 1 33
M  V30 37 1 4 34
M  V30 38 1 5 35
M  V30 39 1 8 36
M  V30 40 1 9 37
M  V30 41 1 13 38
M  V30 42 1 14 39 CFG=3
M  V30 43 1 15 40
M  V30 44 1 15 41
M  V30 45 1 16 42
M  V30 46 1 17 43
M  V30 47 1 17 44
M  V30 48 1 18 45
M  V30 49 1 18 46
M  V30 50 1 19 47 CFG=1
M  V30 51 1 21 48
M  V30 52 1 22 49
M  V30 53 1 27 50
M  V30 54 1 30 51
M  V30 END BOND
M  V30 END CTAB
M  END
>  <Dataset>  (570) 
ChEMBL_Kinases

>  <Ligand_Instance>  (570) 
nan

>  <PDB_ID>  (570) 
nan

>  <Standardized_SMILES>  (570) 
Cn1nccc1-c1ccc(C(=O)N[C@@H]2CNCC[C@H]2c2ccc(F)c(F)c2)c(Cl)c1

>  <Name>  (570) 
nan

>  <Pocket>  (570) 
nan

>  <ATP_Site>  (570) 
nan

>  <Peripheral>  (570) 
nan

>  <Num_H_Atoms_ProtBoundConf>  (570) 
nan

>  <Num_Resolved_Atoms>  (570) 
nan

>  <Num_Not_Resolved_Atoms>  (570) 
nan

$$$$
CHEMBL4858809
     RDKit          3D

  0  0  0  0  0  0  0  0  0  0999 V3000
M  V30 BEGIN CTAB
M  V30 COUNTS 45 47 0 0 0
M  V30 BEGIN ATOM
M  V30 1 N 2.563932 -3.145064 5.799178 0
M  V30 2 C 2.549070 -2.568683 4.787529 0
M  V30 3 C 2.506411 -1.857813 3.550173 0
M  V30 4 C 3.637405 -1.304574 3.055849 0
M  V30 5 N 3.702012 -0.612294 1.918263 0
M  V30 6 C 2.631886 -0.406862 1.162582 0
M  V30 7 N 2.244423 0.290076 -0.027082 0
M  V30 8 C 2.488384 1.681870 -0.451472 0
M  V30 9 C 1.396078 2.140790 -1.317747 0
M  V30 10 C 1.606301 2.053648 -2.698336 0
M  V30 11 N 0.621548 2.430021 -3.518144 0
M  V30 12 C -0.556782 2.885383 -3.111255 0
M  V30 13 C -0.861704 3.007257 -1.750936 0
M  V30 14 C 0.158197 2.620227 -0.888051 0
M  V30 15 C -0.061591 2.780520 0.568622 0
M  V30 16 F 0.859789 3.674762 1.138788 0
M  V30 17 F -1.282815 3.444029 0.741045 0
M  V30 18 F -0.162671 1.615892 1.253643 0
M  V30 19 C 1.489561 -0.999869 1.715395 0
M  V30 20 C 1.300865 -1.737456 2.887035 0
M  V30 21 N 0.107279 -2.296027 3.399153 0
M  V30 22 C -1.281926 -2.363355 3.034620 0
M  V30 23 C -1.544689 -2.301564 1.580488 0 CFG=1
M  V30 24 C -0.882895 -3.405493 0.755536 0
M  V30 25 C -2.085874 -3.177574 -0.189798 0 CFG=2
M  V30 26 O -1.963765 -1.920416 -0.732217 0
M  V30 27 C -2.861420 -3.049241 1.166109 0
M  V30 28 H 4.587965 -1.385205 3.549890 0
M  V30 29 H 1.716507 -0.247189 -0.767259 0
M  V30 30 H 3.431407 1.693701 -0.996221 0
M  V30 31 H 2.524088 2.254127 0.500012 0
M  V30 32 H 2.468757 1.713743 -3.238506 0
M  V30 33 H -1.396678 3.206078 -3.729718 0
M  V30 34 H -1.794599 3.360331 -1.344806 0
M  V30 35 H 0.552358 -0.916037 1.149863 0
M  V30 36 H 0.241610 -2.798773 4.318222 0
M  V30 37 H -1.806199 -1.543590 3.558323 0
M  V30 38 H -1.736015 -3.334588 3.387967 0
M  V30 39 H -1.528547 -1.340746 1.053395 0
M  V30 40 H 0.061260 -3.172926 0.305472 0
M  V30 41 H -1.032029 -4.408979 1.237061 0
M  V30 42 H -2.377808 -4.010069 -0.803328 0
M  V30 43 H -2.784385 -1.520888 -1.086436 0
M  V30 44 H -3.716201 -2.413682 1.082416 0
M  V30 45 H -2.899670 -3.986500 1.714826 0
M  V30 END ATOM
M  V30 BEGIN BOND
M  V30 1 3 1 2
M  V30 2 1 2 3
M  V30 3 2 3 4
M  V30 4 1 4 5
M  V30 5 2 5 6
M  V30 6 1 6 7
M  V30 7 1 7 8
M  V30 8 1 8 9
M  V30 9 2 9 10
M  V30 10 1 10 11
M  V30 11 2 11 12
M  V30 12 1 12 13
M  V30 13 2 13 14
M  V30 14 1 14 15
M  V30 15 1 15 16
M  V30 16 1 15 17
M  V30 17 1 15 18
M  V30 18 1 6 19
M  V30 19 2 19 20
M  V30 20 1 20 21
M  V30 21 1 21 22
M  V30 22 1 22 23
M  V30 23 1 23 24
M  V30 24 1 24 25
M  V30 25 1 25 26
M  V30 26 1 25 27
M  V30 27 1 20 3
M  V30 28 1 27 23
M  V30 29 1 14 9
M  V30 30 1 4 28
M  V30 31 1 7 29
M  V30 32 1 8 30
M  V30 33 1 8 31
M  V30 34 1 10 32
M  V30 35 1 12 33
M  V30 36 1 13 34
M  V30 37 1 19 35
M  V30 38 1 21 36
M  V30 39 1 22 37
M  V30 40 1 22 38
M  V30 41 1 23 39 CFG=3
M  V30 42 1 24 40
M  V30 43 1 24 41
M  V30 44 1 25 42 CFG=3
M  V30 45 1 26 43
M  V30 46 1 27 44
M  V30 47 1 27 45
M  V30 END BOND
M  V30 END CTAB
M  END
>  <Dataset>  (571) 
ChEMBL_Kinases

>  <Ligand_Instance>  (571) 
nan

>  <PDB_ID>  (571) 
nan

>  <Standardized_SMILES>  (571) 
N#Cc1cnc(NCc2cnccc2C(F)(F)F)cc1NC[C@H]1C[C@H](O)C1

>  <Name>  (571) 
nan

>  <Pocket>  (571) 
nan

>  <ATP_Site>  (571) 
nan

>  <Peripheral>  (571) 
nan

>  <Num_H_Atoms_ProtBoundConf>  (571) 
nan

>  <Num_Resolved_Atoms>  (571) 
nan

>  <Num_Not_Resolved_Atoms>  (571) 
nan

$$$$
CHEMBL4858891
     RDKit          3D

  0  0  0  0  0  0  0  0  0  0999 V3000
M  V30 BEGIN CTAB
M  V30 COUNTS 35 38 0 0 0
M  V30 BEGIN ATOM
M  V30 1 O 3.743369 -3.276242 3.370573 0
M  V30 2 C 2.883167 -3.932498 2.739858 0
M  V30 3 O 2.969457 -5.314711 2.830634 0
M  V30 4 C 1.827337 -3.309723 1.938574 0
M  V30 5 C 0.911271 -4.118010 1.268964 0
M  V30 6 C -0.069995 -3.500588 0.523526 0
M  V30 7 C -0.106286 -2.131017 0.470378 0
M  V30 8 C 0.790319 -1.314930 1.125314 0
M  V30 9 C 1.791179 -1.928449 1.885318 0
M  V30 10 C 0.759276 0.062722 1.076531 0
M  V30 11 C -0.231960 0.702001 0.323656 0
M  V30 12 C -0.165792 2.154232 0.382154 0
M  V30 13 C 1.089298 2.686869 0.059616 0
M  V30 14 C 1.369822 4.037902 0.065831 0
M  V30 15 N 0.395663 4.903466 0.397473 0
M  V30 16 C -0.817821 4.427702 0.712084 0
M  V30 17 C -1.129336 3.084004 0.715401 0
M  V30 18 C -1.130156 -0.107249 -0.334004 0
M  V30 19 C -2.077710 0.564163 -1.065553 0
M  V30 20 C -2.996953 -0.212168 -1.747296 0
M  V30 21 N -2.949488 -1.560815 -1.685368 0
M  V30 22 C -2.005634 -2.203984 -0.958096 0
M  V30 23 C -1.068223 -1.479198 -0.261827 0
M  V30 24 H 3.293922 -5.779759 3.678943 0
M  V30 25 H 0.988691 -5.194425 1.347287 0
M  V30 26 H -0.744323 -4.159927 0.031917 0
M  V30 27 H 2.531874 -1.358920 2.428339 0
M  V30 28 H 1.521304 0.607740 1.636070 0
M  V30 29 H 1.932749 2.051457 -0.220285 0
M  V30 30 H 2.351489 4.414368 -0.188994 0
M  V30 31 H -1.679789 5.043540 0.996035 0
M  V30 32 H -2.086464 2.651757 0.970654 0
M  V30 33 H -2.128950 1.635249 -1.135151 0
M  V30 34 H -3.772153 0.255668 -2.343816 0
M  V30 35 H -2.094993 -3.271682 -1.005451 0
M  V30 END ATOM
M  V30 BEGIN BOND
M  V30 1 2 1 2
M  V30 2 1 2 3
M  V30 3 1 2 4
M  V30 4 2 4 5
M  V30 5 1 5 6
M  V30 6 2 6 7
M  V30 7 1 7 8
M  V30 8 2 8 9
M  V30 9 1 8 10
M  V30 10 2 10 11
M  V30 11 1 11 12
M  V30 12 2 12 13
M  V30 13 1 13 14
M  V30 14 2 14 15
M  V30 15 1 15 16
M  V30 16 2 16 17
M  V30 17 1 11 18
M  V30 18 2 18 19
M  V30 19 1 19 20
M  V30 20 2 20 21
M  V30 21 1 21 22
M  V30 22 2 22 23
M  V30 23 1 9 4
M  V30 24 1 17 12
M  V30 25 1 23 18
M  V30 26 1 23 7
M  V30 27 1 3 24
M  V30 28 1 5 25
M  V30 29 1 6 26
M  V30 30 1 9 27
M  V30 31 1 10 28
M  V30 32 1 13 29
M  V30 33 1 14 30
M  V30 34 1 16 31
M  V30 35 1 17 32
M  V30 36 1 19 33
M  V30 37 1 20 34
M  V30 38 1 22 35
M  V30 END BOND
M  V30 END CTAB
M  END
>  <Dataset>  (572) 
ChEMBL_Kinases

>  <Ligand_Instance>  (572) 
nan

>  <PDB_ID>  (572) 
nan

>  <Standardized_SMILES>  (572) 
O=C(O)c1ccc2c(c1)cc(-c1ccncc1)c1ccncc12

>  <Name>  (572) 
nan

>  <Pocket>  (572) 
nan

>  <ATP_Site>  (572) 
nan

>  <Peripheral>  (572) 
nan

>  <Num_H_Atoms_ProtBoundConf>  (572) 
nan

>  <Num_Resolved_Atoms>  (572) 
nan

>  <Num_Not_Resolved_Atoms>  (572) 
nan

$$$$
CHEMBL4858951
     RDKit          3D

  0  0  0  0  0  0  0  0  0  0999 V3000
M  V30 BEGIN CTAB
M  V30 COUNTS 38 39 0 0 0
M  V30 BEGIN ATOM
M  V30 1 C -0.469997 -3.423322 3.457675 0
M  V30 2 O -0.456601 -2.101524 3.961406 0
M  V30 3 C 0.004804 -1.102317 3.128086 0
M  V30 4 C 0.445282 -1.366377 1.835249 0
M  V30 5 C 0.916993 -0.414093 0.954912 0
M  V30 6 N 1.349139 -0.776479 -0.355082 0
M  V30 7 C 0.371234 -0.766723 -1.396456 0
M  V30 8 O -0.809362 -0.435850 -1.075941 0
M  V30 9 C 0.519304 -1.088641 -2.823267 0 CFG=2
M  V30 10 N 1.838798 -1.467524 -3.228517 0
M  V30 11 C 0.032902 0.133720 -3.610795 0 CFG=2
M  V30 12 C -0.103114 -0.199930 -5.081128 0
M  V30 13 O 0.894330 1.197049 -3.382196 0
M  V30 14 C 0.941989 0.884973 1.418005 0
M  V30 15 C 0.505703 1.148719 2.699470 0
M  V30 16 C 0.034613 0.195403 3.577668 0
M  V30 17 C -0.395154 0.616963 4.905620 0
M  V30 18 C -0.897450 -0.123519 5.952736 0
M  V30 19 N -1.166182 0.670941 7.000539 0
M  V30 20 C -0.827541 1.910633 6.597831 0
M  V30 21 O -0.379410 1.848598 5.367698 0
M  V30 22 H -0.800515 -4.162927 4.182085 0
M  V30 23 H 0.572939 -3.691653 3.155717 0
M  V30 24 H -1.047864 -3.413724 2.515252 0
M  V30 25 H 0.423639 -2.402479 1.470457 0
M  V30 26 H 2.300156 -1.059538 -0.695835 0
M  V30 27 H -0.170987 -1.923873 -3.144145 0
M  V30 28 H 2.619171 -0.978148 -2.780090 0
M  V30 29 H 1.983544 -2.518890 -3.274380 0
M  V30 30 H -0.971532 0.440033 -3.256085 0
M  V30 31 H -0.031964 -1.288865 -5.271058 0
M  V30 32 H -1.033390 0.204708 -5.493080 0
M  V30 33 H 0.721372 0.366975 -5.599349 0
M  V30 34 H 0.665610 1.689213 -2.554029 0
M  V30 35 H 1.298920 1.680920 0.782760 0
M  V30 36 H 0.544340 2.198626 3.024337 0
M  V30 37 H -1.065759 -1.170727 5.976256 0
M  V30 38 H -0.883240 2.868515 7.139856 0
M  V30 END ATOM
M  V30 BEGIN BOND
M  V30 1 1 1 2
M  V30 2 1 2 3
M  V30 3 2 3 4
M  V30 4 1 4 5
M  V30 5 1 5 6
M  V30 6 1 6 7
M  V30 7 2 7 8
M  V30 8 1 7 9
M  V30 9 1 9 10
M  V30 10 1 9 11
M  V30 11 1 11 12
M  V30 12 1 11 13
M  V30 13 2 5 14
M  V30 14 1 14 15
M  V30 15 2 15 16
M  V30 16 1 16 17
M  V30 17 2 17 18
M  V30 18 1 18 19
M  V30 19 2 19 20
M  V30 20 1 20 21
M  V30 21 1 16 3
M  V30 22 1 21 17
M  V30 23 1 1 22
M  V30 24 1 1 23
M  V30 25 1 1 24
M  V30 26 1 4 25
M  V30 27 1 6 26
M  V30 28 1 9 27 CFG=3
M  V30 29 1 10 28
M  V30 30 1 10 29
M  V30 31 1 11 30 CFG=1
M  V30 32 1 12 31
M  V30 33 1 12 32
M  V30 34 1 12 33
M  V30 35 1 13 34
M  V30 36 1 14 35
M  V30 37 1 15 36
M  V30 38 1 18 37
M  V30 39 1 20 38
M  V30 END BOND
M  V30 END CTAB
M  END
>  <Dataset>  (573) 
ChEMBL_Kinases

>  <Ligand_Instance>  (573) 
nan

>  <PDB_ID>  (573) 
nan

>  <Standardized_SMILES>  (573) 
COc1cc(NC(=O)[C@H](N)[C@H](C)O)ccc1-c1cnco1

>  <Name>  (573) 
nan

>  <Pocket>  (573) 
nan

>  <ATP_Site>  (573) 
nan

>  <Peripheral>  (573) 
nan

>  <Num_H_Atoms_ProtBoundConf>  (573) 
nan

>  <Num_Resolved_Atoms>  (573) 
nan

>  <Num_Not_Resolved_Atoms>  (573) 
nan

$$$$
CHEMBL4859036
     RDKit          3D

  0  0  0  0  0  0  0  0  0  0999 V3000
M  V30 BEGIN CTAB
M  V30 COUNTS 55 60 0 0 0
M  V30 BEGIN ATOM
M  V30 1 C 4.383538 4.563275 2.195827 0
M  V30 2 O 3.554623 3.450512 2.504874 0
M  V30 3 C 2.875259 2.826434 1.438771 0
M  V30 4 N 3.005722 3.268957 0.166585 0
M  V30 5 C 2.341131 2.652743 -0.856676 0
M  V30 6 C 1.545977 1.575339 -0.523634 0
M  V30 7 C 1.425075 1.141815 0.766524 0
M  V30 8 C 2.078303 1.738876 1.810418 0
M  V30 9 N 1.992011 1.342535 3.158133 0
M  V30 10 S 0.810606 1.146888 4.394422 0
M  V30 11 O 0.119134 2.497518 4.592495 0
M  V30 12 O 1.512657 0.908255 5.725611 0
M  V30 13 C -0.408985 -0.015418 4.053793 0
M  V30 14 C -1.623796 0.166103 4.701381 0
M  V30 15 C -2.731280 -0.647447 4.574587 0
M  V30 16 C -2.633336 -1.753427 3.722605 0
M  V30 17 C -1.433048 -1.933189 3.082122 0
M  V30 18 C -0.348465 -1.131022 3.210914 0
M  V30 19 C -1.449570 -3.094421 2.215142 0
M  V30 20 O -2.501589 -3.602398 1.764503 0
M  V30 21 N -0.672266 -4.063541 1.544342 0
M  V30 22 C -1.134269 -5.137368 0.714963 0
M  V30 23 C -1.613043 -4.740089 -0.613619 0
M  V30 24 C -1.171263 -3.603412 -1.253615 0
M  V30 25 C -1.564651 -3.142036 -2.466938 0
M  V30 26 C -2.520470 -3.998502 -3.025617 0
M  V30 27 C -3.014396 -5.147259 -2.460050 0
M  V30 28 N -2.552497 -5.529083 -1.226998 0
M  V30 29 C -1.226009 -2.009696 -3.242135 0
M  V30 30 N -1.602934 -1.898612 -4.518486 0
M  V30 31 C -1.322677 -0.842735 -5.299307 0
M  V30 32 N -0.622647 0.192065 -4.816611 0
M  V30 33 C -0.186898 0.204918 -3.556428 0
M  V30 34 C 0.514095 1.168016 -2.954070 0
M  V30 35 C 0.868627 0.940463 -1.559446 0
M  V30 36 S 0.146982 -0.746293 -1.121692 0
M  V30 37 C -0.508976 -0.944610 -2.757098 0
M  V30 38 H 4.500004 4.684964 1.077901 0
M  V30 39 H 3.946007 5.501462 2.593950 0
M  V30 40 H 5.425954 4.443967 2.570453 0
M  V30 41 H 2.431292 2.989091 -1.874359 0
M  V30 42 H 0.798029 0.301682 0.998961 0
M  V30 43 H 3.008624 1.120752 3.387219 0
M  V30 44 H -1.784184 1.000431 5.380400 0
M  V30 45 H -3.658865 -0.452040 5.112248 0
M  V30 46 H -3.516176 -2.375015 3.640818 0
M  V30 47 H 0.540271 -1.385027 2.653593 0
M  V30 48 H 0.197641 -3.669366 1.897450 0
M  V30 49 H -1.969647 -5.616862 1.253335 0
M  V30 50 H -0.363487 -5.926802 0.605635 0
M  V30 51 H -0.430350 -3.068305 -0.681724 0
M  V30 52 H -2.964119 -3.794075 -4.012808 0
M  V30 53 H -3.754048 -5.774882 -2.935335 0
M  V30 54 H -1.663127 -0.829842 -6.318954 0
M  V30 55 H 0.870586 2.104781 -3.327125 0
M  V30 END ATOM
M  V30 BEGIN BOND
M  V30 1 1 1 2
M  V30 2 1 2 3
M  V30 3 2 3 4
M  V30 4 1 4 5
M  V30 5 2 5 6
M  V30 6 1 6 7
M  V30 7 2 7 8
M  V30 8 1 8 9
M  V30 9 1 9 10
M  V30 10 2 10 11
M  V30 11 2 10 12
M  V30 12 1 10 13
M  V30 13 2 13 14
M  V30 14 1 14 15
M  V30 15 2 15 16
M  V30 16 1 16 17
M  V30 17 2 17 18
M  V30 18 1 17 19
M  V30 19 2 19 20
M  V30 20 1 19 21
M  V30 21 1 21 22
M  V30 22 1 22 23
M  V30 23 1 23 24
M  V30 24 2 24 25
M  V30 25 1 25 26
M  V30 26 2 26 27
M  V30 27 1 27 28
M  V30 28 1 25 29
M  V30 29 1 29 30
M  V30 30 2 30 31
M  V30 31 1 31 32
M  V30 32 2 32 33
M  V30 33 1 33 34
M  V30 34 2 34 35
M  V30 35 1 35 36
M  V30 36 1 36 37
M  V30 37 1 8 3
M  V30 38 1 18 13
M  V30 39 2 28 23
M  V30 40 2 37 29
M  V30 41 1 35 6
M  V30 42 1 37 33
M  V30 43 1 1 38
M  V30 44 1 1 39
M  V30 45 1 1 40
M  V30 46 1 5 41
M  V30 47 1 7 42
M  V30 48 1 9 43
M  V30 49 1 14 44
M  V30 50 1 15 45
M  V30 51 1 16 46
M  V30 52 1 18 47
M  V30 53 1 21 48
M  V30 54 1 22 49
M  V30 55 1 22 50
M  V30 56 1 24 51
M  V30 57 1 26 52
M  V30 58 1 27 53
M  V30 59 1 31 54
M  V30 60 1 34 55
M  V30 END BOND
M  V30 END CTAB
M  END
>  <Dataset>  (574) 
ChEMBL_Kinases

>  <Ligand_Instance>  (574) 
nan

>  <PDB_ID>  (574) 
nan

>  <Standardized_SMILES>  (574) 
COc1ncc2cc1NS(=O)(=O)c1cccc(c1)C(=O)NCc1cc(ccn1)-c1ncnc3cc-2sc13

>  <Name>  (574) 
nan

>  <Pocket>  (574) 
nan

>  <ATP_Site>  (574) 
nan

>  <Peripheral>  (574) 
nan

>  <Num_H_Atoms_ProtBoundConf>  (574) 
nan

>  <Num_Resolved_Atoms>  (574) 
nan

>  <Num_Not_Resolved_Atoms>  (574) 
nan

$$$$
CHEMBL4859081
     RDKit          3D

  0  0  0  0  0  0  0  0  0  0999 V3000
M  V30 BEGIN CTAB
M  V30 COUNTS 50 52 0 0 0
M  V30 BEGIN ATOM
M  V30 1 C -1.171011 -3.939955 -1.181007 0
M  V30 2 N -0.049773 -4.022360 -0.353662 0
M  V30 3 C 1.142460 -3.894653 0.402640 0
M  V30 4 N 1.603872 -2.697540 -0.066459 0
M  V30 5 C 2.784459 -2.199772 0.389002 0
M  V30 6 N 3.379305 -0.957553 -0.064739 0
M  V30 7 C 2.988239 0.396110 0.029646 0
M  V30 8 C 3.694916 1.376847 -0.623884 0
M  V30 9 N 3.270924 2.633832 -0.513955 0
M  V30 10 C 2.207967 3.027708 0.187301 0
M  V30 11 C 1.871974 4.459167 0.197996 0
M  V30 12 N 1.591986 5.569654 0.198338 0
M  V30 13 C 1.430281 2.122930 0.882306 0
M  V30 14 N 0.327974 2.506432 1.655323 0
M  V30 15 C -0.655950 1.849979 2.446083 0
M  V30 16 C -1.825191 1.264549 1.738751 0 CFG=2
M  V30 17 C -1.437398 0.242966 0.739137 0
M  V30 18 C -2.639333 -0.261267 -0.061285 0
M  V30 19 C -3.289093 0.977546 -0.642842 0
M  V30 20 N -3.849119 1.728300 0.450747 0
M  V30 21 C -2.751669 2.322576 1.193433 0
M  V30 22 C 1.891204 0.812940 0.752206 0
M  V30 23 N 3.479723 -2.877831 1.282546 0
M  V30 24 C 3.055229 -4.085314 1.785404 0
M  V30 25 C 1.878802 -4.572023 1.324672 0
M  V30 26 C 1.160430 -5.842781 1.661496 0
M  V30 27 F 1.888897 -6.566103 2.602920 0
M  V30 28 F 1.087768 -6.647833 0.540168 0
M  V30 29 F -0.090457 -5.584217 2.151002 0
M  V30 30 H -1.133838 -4.596431 -2.098193 0
M  V30 31 H -1.210334 -2.898010 -1.645845 0
M  V30 32 H -2.166366 -4.025056 -0.700316 0
M  V30 33 H -0.297418 -4.961207 -0.002795 0
M  V30 34 H 4.302915 -1.172847 -0.551579 0
M  V30 35 H 4.566747 1.100938 -1.207735 0
M  V30 36 H 0.163454 3.558355 1.658678 0
M  V30 37 H -0.161377 1.027602 3.075943 0
M  V30 38 H -1.060896 2.523250 3.257807 0
M  V30 39 H -2.423245 0.717971 2.533515 0
M  V30 40 H -0.924156 -0.589674 1.239884 0
M  V30 41 H -0.822237 0.757096 -0.052221 0
M  V30 42 H -3.325724 -0.879213 0.550643 0
M  V30 43 H -2.207746 -0.812329 -0.919152 0
M  V30 44 H -4.029898 0.757465 -1.438720 0
M  V30 45 H -2.435077 1.565985 -1.091793 0
M  V30 46 H -4.318056 1.003627 1.074460 0
M  V30 47 H -3.188446 2.855921 2.054878 0
M  V30 48 H -2.242751 3.040312 0.557249 0
M  V30 49 H 1.367027 0.015203 1.265965 0
M  V30 50 H 3.471524 -4.772730 2.505308 0
M  V30 END ATOM
M  V30 BEGIN BOND
M  V30 1 1 1 2
M  V30 2 1 2 3
M  V30 3 2 3 4
M  V30 4 1 4 5
M  V30 5 1 5 6
M  V30 6 1 6 7
M  V30 7 2 7 8
M  V30 8 1 8 9
M  V30 9 2 9 10
M  V30 10 1 10 11
M  V30 11 3 11 12
M  V30 12 1 10 13
M  V30 13 1 13 14
M  V30 14 1 14 15
M  V30 15 1 15 16
M  V30 16 1 16 17
M  V30 17 1 17 18
M  V30 18 1 18 19
M  V30 19 1 19 20
M  V30 20 1 20 21
M  V30 21 2 13 22
M  V30 22 2 5 23
M  V30 23 1 23 24
M  V30 24 2 24 25
M  V30 25 1 25 26
M  V30 26 1 26 27
M  V30 27 1 26 28
M  V30 28 1 26 29
M  V30 29 1 25 3
M  V30 30 1 22 7
M  V30 31 1 21 16
M  V30 32 1 1 30
M  V30 33 1 1 31
M  V30 34 1 1 32
M  V30 35 1 2 33
M  V30 36 1 6 34
M  V30 37 1 8 35
M  V30 38 1 14 36
M  V30 39 1 15 37
M  V30 40 1 15 38
M  V30 41 1 16 39 CFG=1
M  V30 42 1 17 40
M  V30 43 1 17 41
M  V30 44 1 18 42
M  V30 45 1 18 43
M  V30 46 1 19 44
M  V30 47 1 19 45
M  V30 48 1 20 46
M  V30 49 1 21 47
M  V30 50 1 21 48
M  V30 51 1 22 49
M  V30 52 1 24 50
M  V30 END BOND
M  V30 END CTAB
M  END
>  <Dataset>  (575) 
ChEMBL_Kinases

>  <Ligand_Instance>  (575) 
nan

>  <PDB_ID>  (575) 
nan

>  <Standardized_SMILES>  (575) 
CNc1nc(Nc2cnc(C#N)c(NC[C@@H]3CCCNC3)c2)ncc1C(F)(F)F

>  <Name>  (575) 
nan

>  <Pocket>  (575) 
nan

>  <ATP_Site>  (575) 
nan

>  <Peripheral>  (575) 
nan

>  <Num_H_Atoms_ProtBoundConf>  (575) 
nan

>  <Num_Resolved_Atoms>  (575) 
nan

>  <Num_Not_Resolved_Atoms>  (575) 
nan

$$$$
CHEMBL4859450
     RDKit          3D

  0  0  0  0  0  0  0  0  0  0999 V3000
M  V30 BEGIN CTAB
M  V30 COUNTS 35 36 0 0 0
M  V30 BEGIN ATOM
M  V30 1 C 0.278432 -1.138449 4.397206 0
M  V30 2 O -0.302118 -0.016412 3.790501 0
M  V30 3 C -0.136700 0.329970 2.473215 0
M  V30 4 C 0.656908 -0.483645 1.691350 0
M  V30 5 C 0.855792 -0.180087 0.360127 0
M  V30 6 N 1.659894 -0.967184 -0.515435 0
M  V30 7 C 0.922522 -1.989580 -1.175998 0
M  V30 8 O -0.312958 -2.083754 -0.924457 0
M  V30 9 C 1.434942 -2.976943 -2.141553 0 CFG=2
M  V30 10 N 2.832919 -2.863123 -2.420066 0
M  V30 11 C 0.587217 -2.997449 -3.415410 0
M  V30 12 O 0.922063 -4.060498 -4.227705 0
M  V30 13 C 0.249273 0.943047 -0.163901 0
M  V30 14 C -0.534815 1.723836 0.660182 0
M  V30 15 C -0.760815 1.459571 1.992416 0
M  V30 16 C -1.606338 2.347198 2.778904 0
M  V30 17 C -1.968381 2.284704 4.105710 0
M  V30 18 N -2.772407 3.316912 4.432717 0
M  V30 19 C -2.889083 4.007584 3.270190 0
M  V30 20 O -2.203557 3.423908 2.328315 0
M  V30 21 H -0.082923 -1.181823 5.453500 0
M  V30 22 H -0.083174 -2.027994 3.847687 0
M  V30 23 H 1.397460 -1.105041 4.406640 0
M  V30 24 H 1.133823 -1.369410 2.109298 0
M  V30 25 H 2.675539 -0.924715 -0.751542 0
M  V30 26 H 1.269073 -3.980395 -1.679734 0
M  V30 27 H 2.992548 -3.298222 -3.373583 0
M  V30 28 H 3.174078 -1.877613 -2.488212 0
M  V30 29 H -0.460732 -3.178561 -3.044352 0
M  V30 30 H 0.581222 -2.019156 -3.910605 0
M  V30 31 H 0.149353 -4.249656 -4.833663 0
M  V30 32 H 0.383782 1.211192 -1.204850 0
M  V30 33 H -0.989319 2.599212 0.192006 0
M  V30 34 H -1.674666 1.533911 4.822292 0
M  V30 35 H -3.484692 4.917211 3.188098 0
M  V30 END ATOM
M  V30 BEGIN BOND
M  V30 1 1 1 2
M  V30 2 1 2 3
M  V30 3 2 3 4
M  V30 4 1 4 5
M  V30 5 1 5 6
M  V30 6 1 6 7
M  V30 7 2 7 8
M  V30 8 1 7 9
M  V30 9 1 9 10
M  V30 10 1 9 11
M  V30 11 1 11 12
M  V30 12 2 5 13
M  V30 13 1 13 14
M  V30 14 2 14 15
M  V30 15 1 15 16
M  V30 16 2 16 17
M  V30 17 1 17 18
M  V30 18 2 18 19
M  V30 19 1 19 20
M  V30 20 1 15 3
M  V30 21 1 20 16
M  V30 22 1 1 21
M  V30 23 1 1 22
M  V30 24 1 1 23
M  V30 25 1 4 24
M  V30 26 1 6 25
M  V30 27 1 9 26 CFG=1
M  V30 28 1 10 27
M  V30 29 1 10 28
M  V30 30 1 11 29
M  V30 31 1 11 30
M  V30 32 1 12 31
M  V30 33 1 13 32
M  V30 34 1 14 33
M  V30 35 1 17 34
M  V30 36 1 19 35
M  V30 END BOND
M  V30 END CTAB
M  END
>  <Dataset>  (576) 
ChEMBL_Kinases

>  <Ligand_Instance>  (576) 
nan

>  <PDB_ID>  (576) 
nan

>  <Standardized_SMILES>  (576) 
COc1cc(NC(=O)[C@H](N)CO)ccc1-c1cnco1

>  <Name>  (576) 
nan

>  <Pocket>  (576) 
nan

>  <ATP_Site>  (576) 
nan

>  <Peripheral>  (576) 
nan

>  <Num_H_Atoms_ProtBoundConf>  (576) 
nan

>  <Num_Resolved_Atoms>  (576) 
nan

>  <Num_Not_Resolved_Atoms>  (576) 
nan

$$$$
CHEMBL4859154
     RDKit          3D

  0  0  0  0  0  0  0  0  0  0999 V3000
M  V30 BEGIN CTAB
M  V30 COUNTS 42 44 0 0 0
M  V30 BEGIN ATOM
M  V30 1 N 0.927981 -6.383263 4.074198 0
M  V30 2 C 1.316337 -5.528422 3.398544 0
M  V30 3 C 1.796142 -4.483628 2.541332 0
M  V30 4 C 3.084516 -4.493283 2.049522 0
M  V30 5 C 3.565943 -3.500207 1.224980 0
M  V30 6 C 2.790931 -2.428925 0.835788 0
M  V30 7 N 3.224600 -1.382976 -0.005170 0
M  V30 8 C 2.561898 -0.237860 -0.456223 0
M  V30 9 N 3.231049 0.597067 -1.272025 0
M  V30 10 C 2.729407 1.727476 -1.779967 0
M  V30 11 C 1.436454 2.056681 -1.441816 0
M  V30 12 C 0.831135 3.293271 -1.966310 0
M  V30 13 F 0.467130 4.149853 -0.922650 0
M  V30 14 F -0.250708 2.975129 -2.765454 0
M  V30 15 F 1.771260 3.966551 -2.707855 0
M  V30 16 C 0.685184 1.228881 -0.595930 0
M  V30 17 N -0.651091 1.569284 -0.254414 0
M  V30 18 C -1.534685 0.826970 0.601754 0
M  V30 19 C -1.799571 -0.584873 0.126867 0
M  V30 20 C -2.321194 -1.450574 1.227775 0
M  V30 21 N -3.024181 -0.673267 2.260334 0
M  V30 22 C -2.101013 0.221132 2.933235 0
M  V30 23 C -1.056015 0.803143 2.030484 0
M  V30 24 N 1.309394 0.141362 -0.167154 0
M  V30 25 C 1.514933 -2.467387 1.353732 0
M  V30 26 N 1.009859 -3.430321 2.168073 0
M  V30 27 H 3.777005 -5.288539 2.292897 0
M  V30 28 H 4.599543 -3.549976 0.857469 0
M  V30 29 H 4.229562 -1.540603 -0.320506 0
M  V30 30 H 3.312518 2.363626 -2.432630 0
M  V30 31 H -1.030567 2.455502 -0.674008 0
M  V30 32 H -2.538284 1.333714 0.637795 0
M  V30 33 H -0.940987 -1.053991 -0.350617 0
M  V30 34 H -2.620548 -0.552718 -0.650474 0
M  V30 35 H -1.518993 -1.961285 1.756941 0
M  V30 36 H -3.032466 -2.203999 0.828048 0
M  V30 37 H -3.383017 -1.403886 2.931594 0
M  V30 38 H -2.706225 1.032636 3.354826 0
M  V30 39 H -1.577019 -0.370429 3.718201 0
M  V30 40 H -0.920700 1.882910 2.329013 0
M  V30 41 H -0.083481 0.279173 2.102583 0
M  V30 42 H 0.782857 -1.726496 1.158934 0
M  V30 END ATOM
M  V30 BEGIN BOND
M  V30 1 3 1 2
M  V30 2 1 2 3
M  V30 3 2 3 4
M  V30 4 1 4 5
M  V30 5 2 5 6
M  V30 6 1 6 7
M  V30 7 1 7 8
M  V30 8 2 8 9
M  V30 9 1 9 10
M  V30 10 2 10 11
M  V30 11 1 11 12
M  V30 12 1 12 13
M  V30 13 1 12 14
M  V30 14 1 12 15
M  V30 15 1 11 16
M  V30 16 1 16 17
M  V30 17 1 17 18
M  V30 18 1 18 19
M  V30 19 1 19 20
M  V30 20 1 20 21
M  V30 21 1 21 22
M  V30 22 1 22 23
M  V30 23 2 16 24
M  V30 24 1 6 25
M  V30 25 2 25 26
M  V30 26 1 26 3
M  V30 27 1 24 8
M  V30 28 1 23 18
M  V30 29 1 4 27
M  V30 30 1 5 28
M  V30 31 1 7 29
M  V30 32 1 10 30
M  V30 33 1 17 31
M  V30 34 1 18 32
M  V30 35 1 19 33
M  V30 36 1 19 34
M  V30 37 1 20 35
M  V30 38 1 20 36
M  V30 39 1 21 37
M  V30 40 1 22 38
M  V30 41 1 22 39
M  V30 42 1 23 40
M  V30 43 1 23 41
M  V30 44 1 25 42
M  V30 END BOND
M  V30 END CTAB
M  END
>  <Dataset>  (577) 
ChEMBL_Kinases

>  <Ligand_Instance>  (577) 
nan

>  <PDB_ID>  (577) 
nan

>  <Standardized_SMILES>  (577) 
N#Cc1ccc(Nc2ncc(C(F)(F)F)c(NC3CCNCC3)n2)cn1

>  <Name>  (577) 
nan

>  <Pocket>  (577) 
nan

>  <ATP_Site>  (577) 
nan

>  <Peripheral>  (577) 
nan

>  <Num_H_Atoms_ProtBoundConf>  (577) 
nan

>  <Num_Resolved_Atoms>  (577) 
nan

>  <Num_Not_Resolved_Atoms>  (577) 
nan

$$$$
CHEMBL4859179
     RDKit          3D

  0  0  0  0  0  0  0  0  0  0999 V3000
M  V30 BEGIN CTAB
M  V30 COUNTS 53 56 0 0 0
M  V30 BEGIN ATOM
M  V30 1 C 6.176594 -4.055406 4.092338 0
M  V30 2 N 5.782946 -4.098186 2.692370 0
M  V30 3 C 5.486950 -2.807870 2.167144 0
M  V30 4 O 5.558443 -1.747687 2.841207 0
M  V30 5 C 5.072741 -2.708618 0.751588 0
M  V30 6 C 4.774719 -1.497730 0.187185 0
M  V30 7 C 4.387131 -1.394191 -1.133186 0
M  V30 8 O 4.082421 -0.143059 -1.705043 0
M  V30 9 C 2.728087 0.208922 -1.577690 0
M  V30 10 C 2.519312 0.911149 -0.400169 0
M  V30 11 C 1.253095 1.373486 -0.042949 0
M  V30 12 C 0.215405 1.089471 -0.934791 0
M  V30 13 N -1.097163 1.550279 -0.597430 0
M  V30 14 C -1.950050 0.670607 0.178469 0
M  V30 15 O -1.023375 -0.135795 0.167408 0
M  V30 16 C -3.230775 1.290049 0.427474 0
M  V30 17 N -3.687115 2.521353 0.039303 0
M  V30 18 C -4.929000 2.663988 0.496537 0
M  V30 19 S -5.718747 4.207921 0.101681 0
M  V30 20 C -6.602110 4.111037 -1.470506 0
M  V30 21 O -5.222446 1.574987 1.134266 0
M  V30 22 C -4.247334 0.707060 1.131902 0
M  V30 23 C -4.464455 -0.544296 1.813984 0
M  V30 24 C -5.658668 -0.806733 2.440113 0
M  V30 25 C -5.950927 -1.973475 3.114148 0
M  V30 26 C -5.028481 -2.986013 3.204570 0
M  V30 27 F -5.317456 -4.116729 3.860166 0
M  V30 28 C -3.811080 -2.778278 2.594532 0
M  V30 29 C -3.595471 -1.590343 1.942714 0
M  V30 30 C 0.424618 0.391821 -2.104000 0
M  V30 31 C 1.682727 -0.055827 -2.437955 0
M  V30 32 C 4.305302 -2.565213 -1.887345 0
M  V30 33 C 4.608650 -3.783616 -1.307224 0
M  V30 34 N 4.977240 -3.804189 -0.020528 0
M  V30 35 H 6.094103 -5.060968 4.556923 0
M  V30 36 H 7.190916 -3.621767 4.218668 0
M  V30 37 H 5.494873 -3.385604 4.673828 0
M  V30 38 H 5.695048 -4.921052 2.055402 0
M  V30 39 H 4.855165 -0.627766 0.816560 0
M  V30 40 H 3.267473 1.172290 0.343541 0
M  V30 41 H 1.046907 1.922390 0.861463 0
M  V30 42 H -1.238224 2.543212 -1.006615 0
M  V30 43 H -7.714476 4.156008 -1.345891 0
M  V30 44 H -6.407375 3.098258 -1.903839 0
M  V30 45 H -6.260959 4.879959 -2.202541 0
M  V30 46 H -6.500683 -0.096997 2.458877 0
M  V30 47 H -6.891325 -2.137089 3.586805 0
M  V30 48 H -3.073908 -3.562621 2.655087 0
M  V30 49 H -2.622561 -1.535106 1.507685 0
M  V30 50 H -0.356158 0.165848 -2.797020 0
M  V30 51 H 1.982286 -0.609161 -3.315851 0
M  V30 52 H 3.993673 -2.409178 -2.920062 0
M  V30 53 H 4.529561 -4.663514 -1.935704 0
M  V30 END ATOM
M  V30 BEGIN BOND
M  V30 1 1 1 2
M  V30 2 1 2 3
M  V30 3 2 3 4
M  V30 4 1 3 5
M  V30 5 2 5 6
M  V30 6 1 6 7
M  V30 7 1 7 8
M  V30 8 1 8 9
M  V30 9 2 9 10
M  V30 10 1 10 11
M  V30 11 2 11 12
M  V30 12 1 12 13
M  V30 13 1 13 14
M  V30 14 2 14 15
M  V30 15 1 14 16
M  V30 16 1 16 17
M  V30 17 2 17 18
M  V30 18 1 18 19
M  V30 19 1 19 20
M  V30 20 1 18 21
M  V30 21 1 21 22
M  V30 22 1 22 23
M  V30 23 2 23 24
M  V30 24 1 24 25
M  V30 25 2 25 26
M  V30 26 1 26 27
M  V30 27 1 26 28
M  V30 28 2 28 29
M  V30 29 1 12 30
M  V30 30 2 30 31
M  V30 31 2 7 32
M  V30 32 1 32 33
M  V30 33 2 33 34
M  V30 34 1 34 5
M  V30 35 1 31 9
M  V30 36 2 22 16
M  V30 37 1 29 23
M  V30 38 1 1 35
M  V30 39 1 1 36
M  V30 40 1 1 37
M  V30 41 1 2 38
M  V30 42 1 6 39
M  V30 43 1 10 40
M  V30 44 1 11 41
M  V30 45 1 13 42
M  V30 46 1 20 43
M  V30 47 1 20 44
M  V30 48 1 20 45
M  V30 49 1 24 46
M  V30 50 1 25 47
M  V30 51 1 28 48
M  V30 52 1 29 49
M  V30 53 1 30 50
M  V30 54 1 31 51
M  V30 55 1 32 52
M  V30 56 1 33 53
M  V30 END BOND
M  V30 END CTAB
M  END
>  <Dataset>  (578) 
ChEMBL_Kinases

>  <Ligand_Instance>  (578) 
nan

>  <PDB_ID>  (578) 
nan

>  <Standardized_SMILES>  (578) 
CNC(=O)c1cc(Oc2ccc(NC(=O)c3nc(SC)oc3-c3ccc(F)cc3)cc2)ccn1

>  <Name>  (578) 
nan

>  <Pocket>  (578) 
nan

>  <ATP_Site>  (578) 
nan

>  <Peripheral>  (578) 
nan

>  <Num_H_Atoms_ProtBoundConf>  (578) 
nan

>  <Num_Resolved_Atoms>  (578) 
nan

>  <Num_Not_Resolved_Atoms>  (578) 
nan

$$$$
CHEMBL4859206
     RDKit          3D

  0  0  0  0  0  0  0  0  0  0999 V3000
M  V30 BEGIN CTAB
M  V30 COUNTS 31 33 0 0 0
M  V30 BEGIN ATOM
M  V30 1 O -0.009136 -3.208887 1.934350 0
M  V30 2 C 1.199288 -3.807563 1.588309 0
M  V30 3 C 1.514834 -5.072760 2.051781 0
M  V30 4 C 2.726986 -5.645977 1.691032 0
M  V30 5 C 3.625883 -4.982076 0.879612 0
M  V30 6 C 3.308242 -3.704186 0.410918 0
M  V30 7 C 2.091169 -3.132579 0.775095 0
M  V30 8 C 1.819867 -1.794408 0.251553 0
M  V30 9 N 0.667144 -1.116321 0.528386 0
M  V30 10 C 0.721216 0.085119 -0.100612 0
M  V30 11 C -0.384833 1.032798 0.016546 0
M  V30 12 C -0.328973 1.875750 1.126893 0
M  V30 13 C -1.348688 2.795185 1.292318 0
M  V30 14 C -2.403500 2.897498 0.399851 0
M  V30 15 C -3.503633 3.887791 0.576323 0
M  V30 16 F -3.472271 4.461081 1.829459 0
M  V30 17 F -3.447794 4.791862 -0.439694 0
M  V30 18 F -4.701391 3.187945 0.477016 0
M  V30 19 C -2.450320 2.059628 -0.695388 0
M  V30 20 C -1.441525 1.126849 -0.888098 0
M  V30 21 N 1.909986 0.110172 -0.747908 0
M  V30 22 O 2.548600 -1.001914 -0.533431 0
M  V30 23 H -0.064191 -2.340623 2.436806 0
M  V30 24 H 0.776749 -5.563749 2.690999 0
M  V30 25 H 2.858308 -6.633407 2.114110 0
M  V30 26 H 4.545388 -5.511878 0.653404 0
M  V30 27 H 4.037540 -3.217189 -0.221612 0
M  V30 28 H 0.462439 1.852624 1.863695 0
M  V30 29 H -1.406992 3.496340 2.114492 0
M  V30 30 H -3.261716 2.100129 -1.429770 0
M  V30 31 H -1.434039 0.448433 -1.730972 0
M  V30 END ATOM
M  V30 BEGIN BOND
M  V30 1 1 1 2
M  V30 2 2 2 3
M  V30 3 1 3 4
M  V30 4 2 4 5
M  V30 5 1 5 6
M  V30 6 2 6 7
M  V30 7 1 7 8
M  V30 8 2 8 9
M  V30 9 1 9 10
M  V30 10 1 10 11
M  V30 11 2 11 12
M  V30 12 1 12 13
M  V30 13 2 13 14
M  V30 14 1 14 15
M  V30 15 1 15 16
M  V30 16 1 15 17
M  V30 17 1 15 18
M  V30 18 1 14 19
M  V30 19 2 19 20
M  V30 20 2 10 21
M  V30 21 1 21 22
M  V30 22 1 7 2
M  V30 23 1 22 8
M  V30 24 1 20 11
M  V30 25 1 1 23
M  V30 26 1 3 24
M  V30 27 1 4 25
M  V30 28 1 5 26
M  V30 29 1 6 27
M  V30 30 1 12 28
M  V30 31 1 13 29
M  V30 32 1 19 30
M  V30 33 1 20 31
M  V30 END BOND
M  V30 END CTAB
M  END
>  <Dataset>  (579) 
ChEMBL_Kinases

>  <Ligand_Instance>  (579) 
nan

>  <PDB_ID>  (579) 
nan

>  <Standardized_SMILES>  (579) 
Oc1ccccc1-c1nc(-c2ccc(C(F)(F)F)cc2)no1

>  <Name>  (579) 
nan

>  <Pocket>  (579) 
nan

>  <ATP_Site>  (579) 
nan

>  <Peripheral>  (579) 
nan

>  <Num_H_Atoms_ProtBoundConf>  (579) 
nan

>  <Num_Resolved_Atoms>  (579) 
nan

>  <Num_Not_Resolved_Atoms>  (579) 
nan

$$$$
CHEMBL4859226
     RDKit          3D

  0  0  0  0  0  0  0  0  0  0999 V3000
M  V30 BEGIN CTAB
M  V30 COUNTS 53 55 0 0 0
M  V30 BEGIN ATOM
M  V30 1 C 4.426261 -2.888851 4.051080 0
M  V30 2 N 3.793273 -1.632244 3.807958 0
M  V30 3 C 2.707768 -1.299690 4.669470 0
M  V30 4 C 4.654034 -0.557224 3.438591 0
M  V30 5 C 3.875241 0.721009 3.208191 0
M  V30 6 N 2.931348 0.471731 2.142568 0
M  V30 7 C 2.146166 1.603817 1.842472 0
M  V30 8 O 2.332869 2.663095 2.495064 0
M  V30 9 C 1.119041 1.614972 0.806820 0
M  V30 10 C 0.413524 2.782243 0.602262 0
M  V30 11 C -0.583301 2.925288 -0.344246 0
M  V30 12 C -0.868393 1.809671 -1.119838 0
M  V30 13 C -1.929836 1.907175 -2.151563 0
M  V30 14 C -3.284513 1.541104 -1.619337 0
M  V30 15 N -3.362075 0.184512 -1.102876 0
M  V30 16 C -3.141791 -0.910666 -1.951514 0
M  V30 17 N -2.863131 -0.716151 -3.251167 0
M  V30 18 C -2.656544 -1.764060 -4.064027 0
M  V30 19 N -2.712028 -3.062694 -3.645616 0
M  V30 20 C -2.989522 -3.317468 -2.343174 0
M  V30 21 C -3.049078 -4.610754 -1.904510 0
M  V30 22 C -3.330111 -4.872051 -0.582728 0
M  V30 23 C -3.548933 -3.801366 0.283395 0
M  V30 24 C -3.845870 -4.065112 1.678971 0
M  V30 25 N -4.083331 -4.257891 2.781997 0
M  V30 26 C -3.474267 -2.523785 -0.222710 0
M  V30 27 C -3.197903 -2.222775 -1.528243 0
M  V30 28 C -0.154712 0.634989 -0.910326 0
M  V30 29 C 0.835958 0.508046 0.037013 0
M  V30 30 H 3.671639 -3.556793 4.527507 0
M  V30 31 H 4.635009 -3.350639 3.064257 0
M  V30 32 H 5.351494 -2.817418 4.654268 0
M  V30 33 H 2.948623 -1.087949 5.709704 0
M  V30 34 H 2.151721 -0.450055 4.223144 0
M  V30 35 H 1.990591 -2.157334 4.636536 0
M  V30 36 H 5.103070 -0.836092 2.452972 0
M  V30 37 H 5.480911 -0.375970 4.148563 0
M  V30 38 H 3.431144 1.134636 4.116736 0
M  V30 39 H 4.595074 1.478719 2.820768 0
M  V30 40 H 2.799541 -0.413349 1.621343 0
M  V30 41 H 0.603416 3.687915 1.189964 0
M  V30 42 H -1.116068 3.856788 -0.477074 0
M  V30 43 H -2.010822 2.990153 -2.455284 0
M  V30 44 H -1.675220 1.309359 -3.029248 0
M  V30 45 H -3.971255 1.563405 -2.518499 0
M  V30 46 H -3.635721 2.306409 -0.902579 0
M  V30 47 H -3.585063 0.146275 -0.099019 0
M  V30 48 H -2.433548 -1.544213 -5.112351 0
M  V30 49 H -2.882178 -5.457398 -2.561533 0
M  V30 50 H -3.381500 -5.893996 -0.216469 0
M  V30 51 H -3.652754 -1.757050 0.497383 0
M  V30 52 H -0.355986 -0.247078 -1.499308 0
M  V30 53 H 1.363804 -0.407177 0.171843 0
M  V30 END ATOM
M  V30 BEGIN BOND
M  V30 1 1 1 2
M  V30 2 1 2 3
M  V30 3 1 2 4
M  V30 4 1 4 5
M  V30 5 1 5 6
M  V30 6 1 6 7
M  V30 7 2 7 8
M  V30 8 1 7 9
M  V30 9 2 9 10
M  V30 10 1 10 11
M  V30 11 2 11 12
M  V30 12 1 12 13
M  V30 13 1 13 14
M  V30 14 1 14 15
M  V30 15 1 15 16
M  V30 16 2 16 17
M  V30 17 1 17 18
M  V30 18 2 18 19
M  V30 19 1 19 20
M  V30 20 2 20 21
M  V30 21 1 21 22
M  V30 22 2 22 23
M  V30 23 1 23 24
M  V30 24 3 24 25
M  V30 25 1 23 26
M  V30 26 2 26 27
M  V30 27 1 12 28
M  V30 28 2 28 29
M  V30 29 1 29 9
M  V30 30 1 27 16
M  V30 31 1 27 20
M  V30 32 1 1 30
M  V30 33 1 1 31
M  V30 34 1 1 32
M  V30 35 1 3 33
M  V30 36 1 3 34
M  V30 37 1 3 35
M  V30 38 1 4 36
M  V30 39 1 4 37
M  V30 40 1 5 38
M  V30 41 1 5 39
M  V30 42 1 6 40
M  V30 43 1 10 41
M  V30 44 1 11 42
M  V30 45 1 13 43
M  V30 46 1 13 44
M  V30 47 1 14 45
M  V30 48 1 14 46
M  V30 49 1 15 47
M  V30 50 1 18 48
M  V30 51 1 21 49
M  V30 52 1 22 50
M  V30 53 1 26 51
M  V30 54 1 28 52
M  V30 55 1 29 53
M  V30 END BOND
M  V30 END CTAB
M  END
>  <Dataset>  (580) 
ChEMBL_Kinases

>  <Ligand_Instance>  (580) 
nan

>  <PDB_ID>  (580) 
nan

>  <Standardized_SMILES>  (580) 
CN(C)CCNC(=O)c1ccc(CCNc2ncnc3ccc(C#N)cc23)cc1

>  <Name>  (580) 
nan

>  <Pocket>  (580) 
nan

>  <ATP_Site>  (580) 
nan

>  <Peripheral>  (580) 
nan

>  <Num_H_Atoms_ProtBoundConf>  (580) 
nan

>  <Num_Resolved_Atoms>  (580) 
nan

>  <Num_Not_Resolved_Atoms>  (580) 
nan

$$$$
CHEMBL4859309
     RDKit          3D

  0  0  0  0  0  0  0  0  0  0999 V3000
M  V30 BEGIN CTAB
M  V30 COUNTS 52 54 0 0 0
M  V30 BEGIN ATOM
M  V30 1 C 4.398950 -3.302794 4.155070 0
M  V30 2 C 5.708777 -3.928247 3.737270 0 CFG=2
M  V30 3 O 6.426463 -4.186178 4.929547 0
M  V30 4 C 6.450646 -2.972032 2.865846 0
M  V30 5 N 5.817271 -2.636599 1.627962 0
M  V30 6 C 4.593940 -2.045416 1.224269 0
M  V30 7 C 4.465452 -0.667110 1.060477 0
M  V30 8 C 3.222814 -0.212777 0.662705 0
M  V30 9 O 3.031310 1.169794 0.480544 0
M  V30 10 C 1.749589 1.592099 0.076172 0
M  V30 11 C 1.449526 1.688280 -1.271386 0
M  V30 12 C 0.184228 2.104893 -1.658944 0
M  V30 13 C -0.741857 2.412444 -0.682072 0
M  V30 14 N -2.084773 2.854203 -0.972713 0
M  V30 15 C -3.037890 1.783657 -1.088649 0
M  V30 16 O -2.579931 0.619793 -0.923507 0
M  V30 17 N -4.424063 1.897551 -1.366298 0
M  V30 18 C -5.206587 0.693495 -1.440517 0
M  V30 19 C -5.332240 0.062695 -2.671302 0
M  V30 20 C -6.082692 -1.090176 -2.737219 0
M  V30 21 C -6.678594 -1.570889 -1.578260 0
M  V30 22 C -6.575776 -0.977254 -0.355437 0
M  V30 23 C -7.242710 -1.555242 0.831405 0
M  V30 24 F -6.772977 -1.001488 2.006827 0
M  V30 25 F -8.611704 -1.403309 0.708809 0
M  V30 26 F -7.009521 -2.921776 0.914927 0
M  V30 27 C -5.818723 0.175940 -0.316379 0
M  V30 28 C -0.407303 2.304960 0.655184 0
M  V30 29 C 0.843661 1.893146 1.078270 0
M  V30 30 N 2.195756 -1.059151 0.446511 0
M  V30 31 C 2.340905 -2.370105 0.608794 0
M  V30 32 N 3.527049 -2.840457 0.991878 0
M  V30 33 H 4.253454 -3.352374 5.272173 0
M  V30 34 H 4.434446 -2.230483 3.905317 0
M  V30 35 H 3.534660 -3.759369 3.631034 0
M  V30 36 H 5.573072 -4.924839 3.283424 0
M  V30 37 H 5.773545 -4.566393 5.559539 0
M  V30 38 H 6.785488 -2.066429 3.411817 0
M  V30 39 H 7.414782 -3.493799 2.590401 0
M  V30 40 H 6.232680 -2.806392 0.675971 0
M  V30 41 H 5.305293 -0.007801 1.240309 0
M  V30 42 H 2.181342 1.445230 -2.038206 0
M  V30 43 H -0.112914 2.200693 -2.691574 0
M  V30 44 H -2.488039 3.806770 -1.113509 0
M  V30 45 H -4.767268 2.890697 -1.497737 0
M  V30 46 H -4.842088 0.492701 -3.527657 0
M  V30 47 H -6.201875 -1.606749 -3.676813 0
M  V30 48 H -7.267953 -2.483763 -1.650804 0
M  V30 49 H -5.692280 0.701131 0.616021 0
M  V30 50 H -1.129612 2.544959 1.428080 0
M  V30 51 H 1.063697 1.822851 2.134632 0
M  V30 52 H 1.514916 -3.015138 0.431487 0
M  V30 END ATOM
M  V30 BEGIN BOND
M  V30 1 1 1 2
M  V30 2 1 2 3
M  V30 3 1 2 4
M  V30 4 1 4 5
M  V30 5 1 5 6
M  V30 6 2 6 7
M  V30 7 1 7 8
M  V30 8 1 8 9
M  V30 9 1 9 10
M  V30 10 2 10 11
M  V30 11 1 11 12
M  V30 12 2 12 13
M  V30 13 1 13 14
M  V30 14 1 14 15
M  V30 15 2 15 16
M  V30 16 1 15 17
M  V30 17 1 17 18
M  V30 18 2 18 19
M  V30 19 1 19 20
M  V30 20 2 20 21
M  V30 21 1 21 22
M  V30 22 1 22 23
M  V30 23 1 23 24
M  V30 24 1 23 25
M  V30 25 1 23 26
M  V30 26 2 22 27
M  V30 27 1 13 28
M  V30 28 2 28 29
M  V30 29 2 8 30
M  V30 30 1 30 31
M  V30 31 2 31 32
M  V30 32 1 32 6
M  V30 33 1 29 10
M  V30 34 1 27 18
M  V30 35 1 1 33
M  V30 36 1 1 34
M  V30 37 1 1 35
M  V30 38 1 2 36 CFG=3
M  V30 39 1 3 37
M  V30 40 1 4 38
M  V30 41 1 4 39
M  V30 42 1 5 40
M  V30 43 1 7 41
M  V30 44 1 11 42
M  V30 45 1 12 43
M  V30 46 1 14 44
M  V30 47 1 17 45
M  V30 48 1 19 46
M  V30 49 1 20 47
M  V30 50 1 21 48
M  V30 51 1 27 49
M  V30 52 1 28 50
M  V30 53 1 29 51
M  V30 54 1 31 52
M  V30 END BOND
M  V30 END CTAB
M  END
>  <Dataset>  (581) 
ChEMBL_Kinases

>  <Ligand_Instance>  (581) 
nan

>  <PDB_ID>  (581) 
nan

>  <Standardized_SMILES>  (581) 
C[C@H](O)CNc1cc(Oc2ccc(NC(=O)Nc3cccc(C(F)(F)F)c3)cc2)ncn1

>  <Name>  (581) 
nan

>  <Pocket>  (581) 
nan

>  <ATP_Site>  (581) 
nan

>  <Peripheral>  (581) 
nan

>  <Num_H_Atoms_ProtBoundConf>  (581) 
nan

>  <Num_Resolved_Atoms>  (581) 
nan

>  <Num_Not_Resolved_Atoms>  (581) 
nan

$$$$
CHEMBL4859322
     RDKit          3D

  0  0  0  0  0  0  0  0  0  0999 V3000
M  V30 BEGIN CTAB
M  V30 COUNTS 36 40 0 0 0
M  V30 BEGIN ATOM
M  V30 1 C 2.090035 -6.187339 0.674352 0
M  V30 2 C 1.682837 -6.639788 1.926132 0
M  V30 3 N 1.066972 -5.827231 2.799919 0
M  V30 4 N 0.844888 -4.574912 2.461653 0
M  V30 5 N 0.273930 -3.577742 3.105721 0
M  V30 6 C 0.273230 -2.468049 2.351609 0
M  V30 7 C 0.881458 -2.736206 1.124687 0
M  V30 8 C 1.010629 -1.711564 0.127627 0
M  V30 9 C 1.550377 -1.713422 -1.123290 0
M  V30 10 C 1.622066 -0.665238 -2.003163 0
M  V30 11 N 1.101336 0.500927 -1.588985 0
M  V30 12 C 0.553406 0.576943 -0.369584 0
M  V30 13 N -0.003249 1.803979 0.086504 0
M  V30 14 C -0.136968 3.125351 -0.502837 0
M  V30 15 C -1.265071 3.348669 0.406052 0
M  V30 16 C -2.652865 3.247330 -0.078154 0
M  V30 17 O -2.780755 4.618327 0.153618 0
M  V30 18 C -1.594343 4.698664 0.887950 0
M  V30 19 C -0.667285 2.338451 1.263208 0
M  V30 20 N 0.522829 -0.496999 0.432453 0
M  V30 21 C 1.200711 -4.054514 1.282647 0
M  V30 22 C 1.828149 -4.870815 0.384596 0
M  V30 23 H 2.587418 -6.862669 -0.018327 0
M  V30 24 H 1.848923 -7.670935 2.243533 0
M  V30 25 H -0.185466 -1.594585 2.819762 0
M  V30 26 H 1.972604 -2.620914 -1.485165 0
M  V30 27 H 2.071684 -0.776684 -2.970371 0
M  V30 28 H 0.743652 3.745894 -0.182563 0
M  V30 29 H -0.333889 3.155255 -1.587833 0
M  V30 30 H -3.321310 2.634541 0.577517 0
M  V30 31 H -2.717244 2.929331 -1.134521 0
M  V30 32 H -1.826684 4.847034 1.957043 0
M  V30 33 H -0.895750 5.507108 0.542209 0
M  V30 34 H 0.051646 2.761903 2.012346 0
M  V30 35 H -1.331085 1.631535 1.792033 0
M  V30 36 H 2.146851 -4.548510 -0.573394 0
M  V30 END ATOM
M  V30 BEGIN BOND
M  V30 1 1 1 2
M  V30 2 2 2 3
M  V30 3 1 3 4
M  V30 4 1 4 5
M  V30 5 2 5 6
M  V30 6 1 6 7
M  V30 7 1 7 8
M  V30 8 2 8 9
M  V30 9 1 9 10
M  V30 10 2 10 11
M  V30 11 1 11 12
M  V30 12 1 12 13
M  V30 13 1 13 14
M  V30 14 1 14 15
M  V30 15 1 15 16
M  V30 16 1 16 17
M  V30 17 1 17 18
M  V30 18 1 15 19
M  V30 19 2 12 20
M  V30 20 2 7 21
M  V30 21 1 21 22
M  V30 22 2 22 1
M  V30 23 1 21 4
M  V30 24 1 20 8
M  V30 25 1 19 13
M  V30 26 1 18 15
M  V30 27 1 1 23
M  V30 28 1 2 24
M  V30 29 1 6 25
M  V30 30 1 9 26
M  V30 31 1 10 27
M  V30 32 1 14 28
M  V30 33 1 14 29
M  V30 34 1 16 30
M  V30 35 1 16 31
M  V30 36 1 18 32
M  V30 37 1 18 33
M  V30 38 1 19 34
M  V30 39 1 19 35
M  V30 40 1 22 36
M  V30 END BOND
M  V30 END CTAB
M  END
>  <Dataset>  (582) 
ChEMBL_Kinases

>  <Ligand_Instance>  (582) 
nan

>  <PDB_ID>  (582) 
nan

>  <Standardized_SMILES>  (582) 
c1cnn2ncc(-c3ccnc(N4CC5(COC5)C4)n3)c2c1

>  <Name>  (582) 
nan

>  <Pocket>  (582) 
nan

>  <ATP_Site>  (582) 
nan

>  <Peripheral>  (582) 
nan

>  <Num_H_Atoms_ProtBoundConf>  (582) 
nan

>  <Num_Resolved_Atoms>  (582) 
nan

>  <Num_Not_Resolved_Atoms>  (582) 
nan

$$$$
CHEMBL4859332
     RDKit          3D

  0  0  0  0  0  0  0  0  0  0999 V3000
M  V30 BEGIN CTAB
M  V30 COUNTS 39 41 0 0 0
M  V30 BEGIN ATOM
M  V30 1 C 1.973153 -3.207862 1.345302 0
M  V30 2 S 1.523896 -3.075037 -0.394071 0
M  V30 3 C 2.277324 -1.674589 -1.173331 0
M  V30 4 C 3.522678 -1.916510 -1.685315 0
M  V30 5 C 4.169943 -0.872266 -2.316287 0
M  V30 6 C 3.544240 0.358563 -2.404754 0
M  V30 7 C 2.291164 0.531367 -1.867549 0
M  V30 8 C 1.610823 -0.489024 -1.229100 0
M  V30 9 N 0.346991 -0.205209 -0.738327 0
M  V30 10 C -0.684700 -0.860871 -0.081760 0
M  V30 11 C -1.171507 -0.723903 1.144072 0
M  V30 12 C -0.920864 0.078813 2.308951 0
M  V30 13 C 0.123933 0.016870 3.200813 0
M  V30 14 C 0.328624 0.832030 4.287333 0
M  V30 15 C -0.617092 1.812459 4.498662 0
M  V30 16 C -1.686010 1.910232 3.621709 0
M  V30 17 C -1.894891 1.075541 2.508058 0
M  V30 18 C -3.080719 1.475363 1.740918 0
M  V30 19 F -3.807194 2.518558 2.318920 0
M  V30 20 F -2.536153 2.128855 0.599404 0
M  V30 21 F -3.862843 0.519051 1.215480 0
M  V30 22 C -2.257555 -1.721650 1.319747 0
M  V30 23 O -3.070636 -2.079753 2.237576 0
M  V30 24 N -2.397965 -2.474003 0.098289 0
M  V30 25 C -1.406933 -1.937196 -0.799804 0
M  V30 26 O -1.252465 -2.369476 -1.977954 0
M  V30 27 H 2.208805 -4.295864 1.547352 0
M  V30 28 H 2.911997 -2.610068 1.517533 0
M  V30 29 H 1.166737 -2.867330 2.000861 0
M  V30 30 H 4.045896 -2.864846 -1.636339 0
M  V30 31 H 5.154618 -0.972210 -2.750498 0
M  V30 32 H 4.076582 1.161662 -2.907482 0
M  V30 33 H 1.855974 1.524123 -1.973456 0
M  V30 34 H -0.048236 0.760201 -0.838851 0
M  V30 35 H 0.850947 -0.759249 3.011022 0
M  V30 36 H 1.170543 0.702891 4.920049 0
M  V30 37 H -0.471891 2.451286 5.340804 0
M  V30 38 H -2.356973 2.734663 3.915782 0
M  V30 39 H -3.043274 -3.256416 -0.177646 0
M  V30 END ATOM
M  V30 BEGIN BOND
M  V30 1 1 1 2
M  V30 2 1 2 3
M  V30 3 2 3 4
M  V30 4 1 4 5
M  V30 5 2 5 6
M  V30 6 1 6 7
M  V30 7 2 7 8
M  V30 8 1 8 9
M  V30 9 1 9 10
M  V30 10 2 10 11
M  V30 11 1 11 12
M  V30 12 2 12 13
M  V30 13 1 13 14
M  V30 14 2 14 15
M  V30 15 1 15 16
M  V30 16 2 16 17
M  V30 17 1 17 18
M  V30 18 1 18 19
M  V30 19 1 18 20
M  V30 20 1 18 21
M  V30 21 1 11 22
M  V30 22 2 22 23
M  V30 23 1 22 24
M  V30 24 1 24 25
M  V30 25 2 25 26
M  V30 26 1 8 3
M  V30 27 1 25 10
M  V30 28 1 17 12
M  V30 29 1 1 27
M  V30 30 1 1 28
M  V30 31 1 1 29
M  V30 32 1 4 30
M  V30 33 1 5 31
M  V30 34 1 6 32
M  V30 35 1 7 33
M  V30 36 1 9 34
M  V30 37 1 13 35
M  V30 38 1 14 36
M  V30 39 1 15 37
M  V30 40 1 16 38
M  V30 41 1 24 39
M  V30 END BOND
M  V30 END CTAB
M  END
>  <Dataset>  (583) 
ChEMBL_Kinases

>  <Ligand_Instance>  (583) 
nan

>  <PDB_ID>  (583) 
nan

>  <Standardized_SMILES>  (583) 
CSc1ccccc1NC1=C(c2ccccc2C(F)(F)F)C(=O)NC1=O

>  <Name>  (583) 
nan

>  <Pocket>  (583) 
nan

>  <ATP_Site>  (583) 
nan

>  <Peripheral>  (583) 
nan

>  <Num_H_Atoms_ProtBoundConf>  (583) 
nan

>  <Num_Resolved_Atoms>  (583) 
nan

>  <Num_Not_Resolved_Atoms>  (583) 
nan

$$$$
CHEMBL4859380
     RDKit          3D

  0  0  0  0  0  0  0  0  0  0999 V3000
M  V30 BEGIN CTAB
M  V30 COUNTS 48 50 0 0 0
M  V30 BEGIN ATOM
M  V30 1 C -2.840343 -4.976631 3.300642 0
M  V30 2 N -1.420406 -5.210191 3.024369 0
M  V30 3 C -0.624446 -5.664271 1.935444 0
M  V30 4 C -0.168895 -4.697353 1.063560 0
M  V30 5 C 0.610460 -5.030720 -0.025333 0
M  V30 6 O 1.171339 -4.276897 -1.009921 0
M  V30 7 C 1.119475 -2.936906 -1.220683 0
M  V30 8 C 2.322461 -2.252550 -1.208338 0
M  V30 9 C 2.392073 -0.875196 -1.413299 0
M  V30 10 C 1.209372 -0.185254 -1.634964 0
M  V30 11 N 1.170138 1.238582 -1.857653 0
M  V30 12 C 1.028510 2.043561 -0.676717 0
M  V30 13 O 0.955214 1.412009 0.414587 0
M  V30 14 N 0.964279 3.445722 -0.616276 0
M  V30 15 C 0.820096 4.054137 0.682708 0
M  V30 16 C 1.965617 4.392439 1.406996 0
M  V30 17 C 1.845660 4.980292 2.662141 0
M  V30 18 C 0.575893 5.210439 3.151563 0
M  V30 19 C -0.544841 4.871615 2.426208 0
M  V30 20 C -1.889105 5.154164 3.027449 0
M  V30 21 F -2.073444 6.514396 3.061201 0
M  V30 22 F -1.935804 4.712037 4.346318 0
M  V30 23 F -2.883836 4.510073 2.309046 0
M  V30 24 C -0.448247 4.287707 1.179441 0
M  V30 25 C -0.025722 -0.817079 -1.658615 0
M  V30 26 C -0.012650 -2.180617 -1.447779 0
M  V30 27 C -1.320616 -2.885637 -1.473116 0
M  V30 28 N 0.912876 -6.351906 -0.206047 0
M  V30 29 C 0.458573 -7.304875 0.661262 0
M  V30 30 N -0.301640 -6.958417 1.718880 0
M  V30 31 H -3.449827 -5.319927 2.442628 0
M  V30 32 H -2.929977 -3.869964 3.487273 0
M  V30 33 H -3.165899 -5.540919 4.198569 0
M  V30 34 H -0.845816 -4.974960 3.865681 0
M  V30 35 H -0.354935 -3.655666 1.132824 0
M  V30 36 H 3.313183 -2.694541 -1.043578 0
M  V30 37 H 3.307037 -0.313781 -1.410194 0
M  V30 38 H 1.230014 1.767171 -2.754892 0
M  V30 39 H 1.027428 3.942395 -1.534832 0
M  V30 40 H 2.919010 4.182662 0.960478 0
M  V30 41 H 2.785754 5.208549 3.151067 0
M  V30 42 H 0.511557 5.670377 4.133604 0
M  V30 43 H -1.319783 4.016958 0.599790 0
M  V30 44 H -0.955824 -0.292114 -1.830228 0
M  V30 45 H -1.177369 -3.957968 -1.634637 0
M  V30 46 H -2.004206 -2.455552 -2.233286 0
M  V30 47 H -1.862979 -2.747373 -0.497585 0
M  V30 48 H 0.684616 -8.355234 0.538967 0
M  V30 END ATOM
M  V30 BEGIN BOND
M  V30 1 1 1 2
M  V30 2 1 2 3
M  V30 3 2 3 4
M  V30 4 1 4 5
M  V30 5 1 5 6
M  V30 6 1 6 7
M  V30 7 2 7 8
M  V30 8 1 8 9
M  V30 9 2 9 10
M  V30 10 1 10 11
M  V30 11 1 11 12
M  V30 12 2 12 13
M  V30 13 1 12 14
M  V30 14 1 14 15
M  V30 15 2 15 16
M  V30 16 1 16 17
M  V30 17 2 17 18
M  V30 18 1 18 19
M  V30 19 1 19 20
M  V30 20 1 20 21
M  V30 21 1 20 22
M  V30 22 1 20 23
M  V30 23 2 19 24
M  V30 24 1 10 25
M  V30 25 2 25 26
M  V30 26 1 26 27
M  V30 27 2 5 28
M  V30 28 1 28 29
M  V30 29 2 29 30
M  V30 30 1 30 3
M  V30 31 1 26 7
M  V30 32 1 24 15
M  V30 33 1 1 31
M  V30 34 1 1 32
M  V30 35 1 1 33
M  V30 36 1 2 34
M  V30 37 1 4 35
M  V30 38 1 8 36
M  V30 39 1 9 37
M  V30 40 1 11 38
M  V30 41 1 14 39
M  V30 42 1 16 40
M  V30 43 1 17 41
M  V30 44 1 18 42
M  V30 45 1 24 43
M  V30 46 1 25 44
M  V30 47 1 27 45
M  V30 48 1 27 46
M  V30 49 1 27 47
M  V30 50 1 29 48
M  V30 END BOND
M  V30 END CTAB
M  END
>  <Dataset>  (584) 
ChEMBL_Kinases

>  <Ligand_Instance>  (584) 
nan

>  <PDB_ID>  (584) 
nan

>  <Standardized_SMILES>  (584) 
CNc1cc(Oc2ccc(NC(=O)Nc3cccc(C(F)(F)F)c3)cc2C)ncn1

>  <Name>  (584) 
nan

>  <Pocket>  (584) 
nan

>  <ATP_Site>  (584) 
nan

>  <Peripheral>  (584) 
nan

>  <Num_H_Atoms_ProtBoundConf>  (584) 
nan

>  <Num_Resolved_Atoms>  (584) 
nan

>  <Num_Not_Resolved_Atoms>  (584) 
nan

$$$$
CHEMBL4859397
     RDKit          3D

  0  0  0  0  0  0  0  0  0  0999 V3000
M  V30 BEGIN CTAB
M  V30 COUNTS 31 33 0 0 0
M  V30 BEGIN ATOM
M  V30 1 C -1.753845 -2.869297 3.299730 0
M  V30 2 N -0.462133 -3.034114 2.659549 0
M  V30 3 C 0.717761 -3.463655 3.415844 0
M  V30 4 C -0.362654 -2.767130 1.266489 0
M  V30 5 N -0.596242 -3.802335 0.406388 0
M  V30 6 C -0.510405 -3.586104 -0.918575 0
M  V30 7 C -0.185174 -2.304079 -1.315455 0
M  V30 8 C 0.054739 -1.246539 -0.488278 0
M  V30 9 C 0.389120 0.051970 -1.056042 0
M  V30 10 C 0.498264 0.364441 -2.393256 0
M  V30 11 N 0.823968 1.670188 -2.504936 0
M  V30 12 N 0.934640 2.232735 -1.308082 0
M  V30 13 C 1.229957 3.468058 -0.863700 0
M  V30 14 C 1.277690 3.789036 0.476751 0
M  V30 15 C 1.014704 2.819836 1.449471 0
M  V30 16 C 0.721240 1.583343 0.914450 0
M  V30 17 C 0.667554 1.239228 -0.414494 0
M  V30 18 N -0.042991 -1.511398 0.833916 0
M  V30 19 H -2.193406 -1.876944 3.069004 0
M  V30 20 H -1.680806 -2.909755 4.404498 0
M  V30 21 H -2.458438 -3.624450 2.895625 0
M  V30 22 H 1.621978 -2.899537 3.158661 0
M  V30 23 H 0.855608 -4.578167 3.319453 0
M  V30 24 H 0.538928 -3.307029 4.506241 0
M  V30 25 H -0.681458 -4.356173 -1.670951 0
M  V30 26 H -0.118262 -2.139952 -2.400729 0
M  V30 27 H 0.359491 -0.279349 -3.256627 0
M  V30 28 H 1.443844 4.263699 -1.570291 0
M  V30 29 H 1.517832 4.794156 0.849334 0
M  V30 30 H 1.026409 2.968569 2.516726 0
M  V30 31 H 0.506724 0.786436 1.634748 0
M  V30 END ATOM
M  V30 BEGIN BOND
M  V30 1 1 1 2
M  V30 2 1 2 3
M  V30 3 1 2 4
M  V30 4 2 4 5
M  V30 5 1 5 6
M  V30 6 2 6 7
M  V30 7 1 7 8
M  V30 8 1 8 9
M  V30 9 1 9 10
M  V30 10 2 10 11
M  V30 11 1 11 12
M  V30 12 1 12 13
M  V30 13 2 13 14
M  V30 14 1 14 15
M  V30 15 2 15 16
M  V30 16 1 16 17
M  V30 17 2 8 18
M  V30 18 1 18 4
M  V30 19 2 17 9
M  V30 20 1 17 12
M  V30 21 1 1 19
M  V30 22 1 1 20
M  V30 23 1 1 21
M  V30 24 1 3 22
M  V30 25 1 3 23
M  V30 26 1 3 24
M  V30 27 1 6 25
M  V30 28 1 7 26
M  V30 29 1 10 27
M  V30 30 1 13 28
M  V30 31 1 14 29
M  V30 32 1 15 30
M  V30 33 1 16 31
M  V30 END BOND
M  V30 END CTAB
M  END
>  <Dataset>  (585) 
ChEMBL_Kinases

>  <Ligand_Instance>  (585) 
nan

>  <PDB_ID>  (585) 
nan

>  <Standardized_SMILES>  (585) 
CN(C)c1nccc(-c2cnn3ccccc23)n1

>  <Name>  (585) 
nan

>  <Pocket>  (585) 
nan

>  <ATP_Site>  (585) 
nan

>  <Peripheral>  (585) 
nan

>  <Num_H_Atoms_ProtBoundConf>  (585) 
nan

>  <Num_Resolved_Atoms>  (585) 
nan

>  <Num_Not_Resolved_Atoms>  (585) 
nan

$$$$
CHEMBL4859412
     RDKit          3D

  0  0  0  0  0  0  0  0  0  0999 V3000
M  V30 BEGIN CTAB
M  V30 COUNTS 63 67 0 0 0
M  V30 BEGIN ATOM
M  V30 1 C 4.658045 0.325817 6.184394 0
M  V30 2 C 4.176979 -0.550109 5.044863 0
M  V30 3 C 5.370386 -1.192767 4.372378 0
M  V30 4 C 3.453898 0.250598 4.022658 0
M  V30 5 C 4.144359 1.263445 3.386387 0
M  V30 6 C 3.525502 2.054678 2.416548 0
M  V30 7 C 2.200484 1.832047 2.077545 0
M  V30 8 C 1.605061 2.686956 1.058425 0
M  V30 9 C 0.317600 2.583807 0.629632 0
M  V30 10 C -0.213292 3.406049 -0.331681 0
M  V30 11 N -1.549451 3.336378 -0.809595 0
M  V30 12 C -2.609349 2.424893 -0.563160 0
M  V30 13 C -3.796623 2.879949 0.025157 0
M  V30 14 C -4.913634 2.129694 0.326932 0
M  V30 15 N -4.819804 0.827475 0.009824 0
M  V30 16 C -3.723449 0.293614 -0.558128 0
M  V30 17 C -3.696197 -1.055572 -0.862735 0
M  V30 18 C -2.565376 -1.575264 -1.447147 0
M  V30 19 C -2.619986 -3.016095 -1.737992 0
M  V30 20 C -3.825605 -3.609030 -2.063404 0
M  V30 21 C -3.977374 -4.953083 -2.352445 0
M  V30 22 C -2.820532 -5.716370 -2.300570 0
M  V30 23 S -2.972036 -7.424286 -2.661131 0
M  V30 24 C -2.743785 -7.712844 -4.416215 0
M  V30 25 O -2.004924 -8.236502 -1.859303 0
M  V30 26 O -4.354499 -7.902846 -2.325406 0
M  V30 27 C -1.586131 -5.160922 -1.977453 0
M  V30 28 C -1.487037 -3.812467 -1.696691 0
M  V30 29 C -1.458739 -0.791023 -1.738186 0
M  V30 30 C -1.490020 0.555229 -1.432385 0
M  V30 31 C -2.624577 1.074847 -0.845941 0
M  V30 32 C 0.588180 4.377493 -0.887847 0
M  V30 33 C 1.883973 4.466629 -0.442944 0
M  V30 34 N 2.387939 3.637158 0.514061 0
M  V30 35 C 1.526740 0.816767 2.722887 0
M  V30 36 C 2.136170 0.034262 3.680911 0
M  V30 37 H 4.820658 -0.361986 7.057575 0
M  V30 38 H 3.846113 1.012500 6.494977 0
M  V30 39 H 5.583975 0.832609 5.902973 0
M  V30 40 H 3.470895 -1.309427 5.400915 0
M  V30 41 H 6.229819 -0.496256 4.536790 0
M  V30 42 H 5.540003 -2.201944 4.777855 0
M  V30 43 H 5.177833 -1.284875 3.280588 0
M  V30 44 H 5.190634 1.449238 3.644857 0
M  V30 45 H 4.136758 2.825769 1.966855 0
M  V30 46 H -0.331473 1.829127 1.050884 0
M  V30 47 H -1.942889 4.016553 -1.463159 0
M  V30 48 H -3.829553 3.946376 0.266600 0
M  V30 49 H -5.761939 2.620382 0.782863 0
M  V30 50 H -4.581046 -1.641677 -0.621312 0
M  V30 51 H -4.742634 -3.028176 -2.109282 0
M  V30 52 H -4.942979 -5.368836 -2.601387 0
M  V30 53 H -2.125746 -6.888981 -4.826844 0
M  V30 54 H -2.280886 -8.672403 -4.640675 0
M  V30 55 H -3.718530 -7.656707 -4.949945 0
M  V30 56 H -0.690612 -5.796360 -1.945918 0
M  V30 57 H -0.554624 -3.368439 -1.447733 0
M  V30 58 H -0.610366 -1.269433 -2.196137 0
M  V30 59 H -0.631698 1.158510 -1.665022 0
M  V30 60 H 0.275468 5.090705 -1.661894 0
M  V30 61 H 2.569555 5.212873 -0.842107 0
M  V30 62 H 0.496944 0.629242 2.472523 0
M  V30 63 H 1.627958 -0.759556 4.193209 0
M  V30 END ATOM
M  V30 BEGIN BOND
M  V30 1 1 1 2
M  V30 2 1 2 3
M  V30 3 1 2 4
M  V30 4 2 4 5
M  V30 5 1 5 6
M  V30 6 2 6 7
M  V30 7 1 7 8
M  V30 8 2 8 9
M  V30 9 1 9 10
M  V30 10 1 10 11
M  V30 11 1 11 12
M  V30 12 2 12 13
M  V30 13 1 13 14
M  V30 14 2 14 15
M  V30 15 1 15 16
M  V30 16 2 16 17
M  V30 17 1 17 18
M  V30 18 1 18 19
M  V30 19 2 19 20
M  V30 20 1 20 21
M  V30 21 2 21 22
M  V30 22 1 22 23
M  V30 23 1 23 24
M  V30 24 2 23 25
M  V30 25 2 23 26
M  V30 26 1 22 27
M  V30 27 2 27 28
M  V30 28 2 18 29
M  V30 29 1 29 30
M  V30 30 2 30 31
M  V30 31 2 10 32
M  V30 32 1 32 33
M  V30 33 2 33 34
M  V30 34 1 7 35
M  V30 35 2 35 36
M  V30 36 1 36 4
M  V30 37 1 34 8
M  V30 38 1 31 12
M  V30 39 1 31 16
M  V30 40 1 28 19
M  V30 41 1 1 37
M  V30 42 1 1 38
M  V30 43 1 1 39
M  V30 44 1 2 40
M  V30 45 1 3 41
M  V30 46 1 3 42
M  V30 47 1 3 43
M  V30 48 1 5 44
M  V30 49 1 6 45
M  V30 50 1 9 46
M  V30 51 1 11 47
M  V30 52 1 13 48
M  V30 53 1 14 49
M  V30 54 1 17 50
M  V30 55 1 20 51
M  V30 56 1 21 52
M  V30 57 1 24 53
M  V30 58 1 24 54
M  V30 59 1 24 55
M  V30 60 1 27 56
M  V30 61 1 28 57
M  V30 62 1 29 58
M  V30 63 1 30 59
M  V30 64 1 32 60
M  V30 65 1 33 61
M  V30 66 1 35 62
M  V30 67 1 36 63
M  V30 END BOND
M  V30 END CTAB
M  END
>  <Dataset>  (586) 
ChEMBL_Kinases

>  <Ligand_Instance>  (586) 
nan

>  <PDB_ID>  (586) 
nan

>  <Standardized_SMILES>  (586) 
CC(C)c1ccc(-c2cc(Nc3ccnc4cc(-c5ccc(S(C)(=O)=O)cc5)ccc34)ccn2)cc1

>  <Name>  (586) 
nan

>  <Pocket>  (586) 
nan

>  <ATP_Site>  (586) 
nan

>  <Peripheral>  (586) 
nan

>  <Num_H_Atoms_ProtBoundConf>  (586) 
nan

>  <Num_Resolved_Atoms>  (586) 
nan

>  <Num_Not_Resolved_Atoms>  (586) 
nan

$$$$
CHEMBL4072515
     RDKit          3D

  0  0  0  0  0  0  0  0  0  0999 V3000
M  V30 BEGIN CTAB
M  V30 COUNTS 65 70 0 0 0
M  V30 BEGIN ATOM
M  V30 1 C 7.698402 2.201834 5.675719 0
M  V30 2 C 6.477949 2.086400 4.827766 0
M  V30 3 N 5.609302 1.058838 4.979222 0
M  V30 4 N 4.614323 1.191040 4.106794 0
M  V30 5 C 3.513966 0.302504 3.967378 0
M  V30 6 C 2.283867 0.376986 4.582386 0
M  V30 7 C 1.311088 -0.571017 4.345109 0
M  V30 8 C 1.595216 -1.608459 3.469852 0
M  V30 9 C 2.821971 -1.704604 2.840744 0
M  V30 10 C 3.805617 -0.742332 3.083306 0
M  V30 11 C 4.799498 2.297309 3.365580 0
M  V30 12 O 4.070425 2.870919 2.345562 0
M  V30 13 C 2.900687 2.420293 1.806478 0
M  V30 14 C 1.686564 2.830823 2.322311 0
M  V30 15 C 0.466342 2.414516 1.825385 0
M  V30 16 C 0.500837 1.542436 0.756773 0
M  V30 17 C -0.747007 1.055576 0.174581 0
M  V30 18 N -0.860276 0.206643 -0.862435 0
M  V30 19 C -2.167304 -0.022668 -1.127983 0
M  V30 20 C -2.778404 -0.808901 -2.081953 0
M  V30 21 C -4.149947 -0.898592 -2.175339 0
M  V30 22 C -4.902413 -1.700261 -3.143127 0
M  V30 23 O -6.160859 -1.704253 -3.131645 0
M  V30 24 N -4.242003 -2.492232 -4.116778 0
M  V30 25 C -4.855845 -3.329560 -5.127018 0
M  V30 26 C -5.378037 -4.614870 -4.566135 0
M  V30 27 C -4.532911 -5.717605 -4.509393 0
M  V30 28 C -4.934543 -6.938745 -4.009436 0
M  V30 29 C -6.213085 -7.080591 -3.548953 0
M  V30 30 C -7.093651 -6.011350 -3.583990 0
M  V30 31 C -6.662192 -4.789146 -4.094018 0
M  V30 32 C -4.875593 -0.144752 -1.245312 0
M  V30 33 C -4.248576 0.646777 -0.284973 0
M  V30 34 C -2.872251 0.707490 -0.226913 0
M  V30 35 N -1.992431 1.369428 0.572560 0
M  V30 36 C 1.713440 1.133497 0.242881 0
M  V30 37 C 2.933557 1.547554 0.737146 0
M  V30 38 C 5.975823 2.885310 3.802403 0
M  V30 39 N 6.650324 4.065469 3.379776 0 CHG=1 VAL=4
M  V30 40 O 6.100354 5.148936 3.732016 0
M  V30 41 O 7.807546 4.057965 2.646927 0 CHG=-1 VAL=1
M  V30 42 H 7.464548 2.635458 6.680028 0
M  V30 43 H 8.085536 1.168891 5.890705 0
M  V30 44 H 8.531419 2.730052 5.183355 0
M  V30 45 H 2.193900 1.216927 5.227239 0
M  V30 46 H 0.365008 -0.439198 4.870891 0
M  V30 47 H 0.801194 -2.335193 3.309875 0
M  V30 48 H 3.009891 -2.535693 2.157654 0
M  V30 49 H 4.731853 -0.890754 2.553158 0
M  V30 50 H 1.720085 3.520660 3.166403 0
M  V30 51 H -0.462595 2.755705 2.252910 0
M  V30 52 H -2.204294 -1.369906 -2.774454 0
M  V30 53 H -3.208819 -2.490742 -4.129141 0
M  V30 54 H -5.724614 -2.712671 -5.508333 0
M  V30 55 H -4.188829 -3.552206 -5.959789 0
M  V30 56 H -3.500722 -5.700000 -4.852497 0
M  V30 57 H -4.298818 -7.812567 -3.952799 0
M  V30 58 H -6.654567 -7.998051 -3.127537 0
M  V30 59 H -8.130124 -6.067577 -3.228124 0
M  V30 60 H -7.339250 -3.968910 -4.122706 0
M  V30 61 H -5.957201 -0.156798 -1.247601 0
M  V30 62 H -4.857130 1.215165 0.417757 0
M  V30 63 H -2.240266 2.007466 1.355458 0
M  V30 64 H 1.671890 0.452812 -0.589431 0
M  V30 65 H 3.841072 1.180723 0.278514 0
M  V30 END ATOM
M  V30 BEGIN BOND
M  V30 1 1 1 2
M  V30 2 2 2 3
M  V30 3 1 3 4
M  V30 4 1 4 5
M  V30 5 2 5 6
M  V30 6 1 6 7
M  V30 7 2 7 8
M  V30 8 1 8 9
M  V30 9 2 9 10
M  V30 10 1 4 11
M  V30 11 1 11 12
M  V30 12 1 12 13
M  V30 13 2 13 14
M  V30 14 1 14 15
M  V30 15 2 15 16
M  V30 16 1 16 17
M  V30 17 2 17 18
M  V30 18 1 18 19
M  V30 19 2 19 20
M  V30 20 1 20 21
M  V30 21 1 21 22
M  V30 22 2 22 23
M  V30 23 1 22 24
M  V30 24 1 24 25
M  V30 25 1 25 26
M  V30 26 2 26 27
M  V30 27 1 27 28
M  V30 28 2 28 29
M  V30 29 1 29 30
M  V30 30 2 30 31
M  V30 31 2 21 32
M  V30 32 1 32 33
M  V30 33 2 33 34
M  V30 34 1 34 35
M  V30 35 1 16 36
M  V30 36 2 36 37
M  V30 37 2 11 38
M  V30 38 1 38 39
M  V30 39 2 39 40
M  V30 40 1 39 41
M  V30 41 1 38 2
M  V30 42 1 10 5
M  V30 43 1 37 13
M  V30 44 1 35 17
M  V30 45 1 34 19
M  V30 46 1 31 26
M  V30 47 1 1 42
M  V30 48 1 1 43
M  V30 49 1 1 44
M  V30 50 1 6 45
M  V30 51 1 7 46
M  V30 52 1 8 47
M  V30 53 1 9 48
M  V30 54 1 10 49
M  V30 55 1 14 50
M  V30 56 1 15 51
M  V30 57 1 20 52
M  V30 58 1 24 53
M  V30 59 1 25 54
M  V30 60 1 25 55
M  V30 61 1 27 56
M  V30 62 1 28 57
M  V30 63 1 29 58
M  V30 64 1 30 59
M  V30 65 1 31 60
M  V30 66 1 32 61
M  V30 67 1 33 62
M  V30 68 1 35 63
M  V30 69 1 36 64
M  V30 70 1 37 65
M  V30 END BOND
M  V30 END CTAB
M  END
>  <Dataset>  (587) 
ChEMBL_Kinases

>  <Ligand_Instance>  (587) 
nan

>  <PDB_ID>  (587) 
nan

>  <Standardized_SMILES>  (587) 
Cc1nn(-c2ccccc2)c(Oc2ccc(-c3nc4cc(C(=O)NCc5ccccc5)ccc4[nH]3)cc2)c1[N+](=O)[O-]

>  <Name>  (587) 
nan

>  <Pocket>  (587) 
nan

>  <ATP_Site>  (587) 
nan

>  <Peripheral>  (587) 
nan

>  <Num_H_Atoms_ProtBoundConf>  (587) 
nan

>  <Num_Resolved_Atoms>  (587) 
nan

>  <Num_Not_Resolved_Atoms>  (587) 
nan

$$$$
CHEMBL4072511
     RDKit          3D

  0  0  0  0  0  0  0  0  0  0999 V3000
M  V30 BEGIN CTAB
M  V30 COUNTS 60 64 0 0 0
M  V30 BEGIN ATOM
M  V30 1 O 5.892276 3.633544 4.569883 0
M  V30 2 C 4.851508 2.934423 4.649720 0
M  V30 3 N 4.534400 2.249170 5.852337 0
M  V30 4 C 5.404017 2.348591 6.993519 0
M  V30 5 C 6.812417 1.836731 6.712422 0
M  V30 6 O 6.692446 0.479142 6.340702 0
M  V30 7 C 4.007979 2.869797 3.462362 0
M  V30 8 C 4.393856 3.576281 2.342482 0
M  V30 9 C 3.637487 3.558039 1.175867 0
M  V30 10 C 2.456296 2.823161 1.091647 0
M  V30 11 C 2.107182 2.130908 2.235482 0
M  V30 12 C 2.843159 2.133435 3.408238 0
M  V30 13 C 0.918552 1.277558 2.426535 0
M  V30 14 O 0.507162 1.070709 3.596036 0
M  V30 15 C 0.174935 0.646108 1.328962 0
M  V30 16 C -0.760988 -0.258049 1.789542 0
M  V30 17 C -1.531901 -0.926347 0.862590 0
M  V30 18 C -1.448484 -0.768990 -0.503519 0
M  V30 19 N -2.214978 -1.457199 -1.471789 0
M  V30 20 C -2.902774 -2.691850 -1.405625 0
M  V30 21 C -2.622721 -3.709495 -0.519327 0
M  V30 22 C -3.300627 -4.906380 -0.438975 0
M  V30 23 C -4.349388 -5.133990 -1.302878 0
M  V30 24 F -5.029527 -6.291518 -1.248556 0
M  V30 25 C -4.659807 -4.143905 -2.202055 0
M  V30 26 N -5.747018 -4.410111 -3.079597 0
M  V30 27 C -5.216389 -5.033241 -4.241846 0
M  V30 28 O -3.960616 -5.207338 -4.246623 0
M  V30 29 C -5.968836 -5.505462 -5.456409 0
M  V30 30 C -5.338705 -6.539055 -6.281352 0
M  V30 31 C -5.284240 -5.129607 -6.802095 0
M  V30 32 C -3.952438 -2.968670 -2.240811 0
M  V30 33 C -0.499172 0.145649 -0.920933 0
M  V30 34 C 0.296433 0.839780 -0.033687 0
M  V30 35 O 1.186530 1.710543 -0.649896 0
M  V30 36 C 1.782532 2.921550 -0.227859 0
M  V30 37 H 3.673174 1.668034 5.925802 0
M  V30 38 H 5.030850 1.779856 7.867019 0
M  V30 39 H 5.486696 3.423069 7.324935 0
M  V30 40 H 7.325486 2.368688 5.909677 0
M  V30 41 H 7.362214 1.822662 7.676697 0
M  V30 42 H 7.444801 0.206912 5.789366 0
M  V30 43 H 5.299336 4.191490 2.280095 0
M  V30 44 H 3.943676 4.114653 0.298182 0
M  V30 45 H 2.510882 1.571780 4.258446 0
M  V30 46 H -0.866206 -0.418402 2.846284 0
M  V30 47 H -2.240383 -1.599196 1.272503 0
M  V30 48 H -2.297331 -0.979135 -2.411834 0
M  V30 49 H -1.812830 -3.618742 0.182333 0
M  V30 50 H -3.049631 -5.676522 0.269631 0
M  V30 51 H -6.799191 -4.280196 -3.110029 0
M  V30 52 H -7.051850 -5.347666 -5.428665 0
M  V30 53 H -5.914250 -7.278497 -6.876060 0
M  V30 54 H -4.355551 -6.941063 -5.904190 0
M  V30 55 H -5.959782 -4.906458 -7.660208 0
M  V30 56 H -4.378658 -4.526889 -6.727512 0
M  V30 57 H -4.270966 -2.243734 -2.986638 0
M  V30 58 H -0.354124 0.344643 -1.993989 0
M  V30 59 H 2.542206 3.210194 -0.979334 0
M  V30 60 H 0.977547 3.665645 -0.122135 0
M  V30 END ATOM
M  V30 BEGIN BOND
M  V30 1 2 1 2
M  V30 2 1 2 3
M  V30 3 1 3 4
M  V30 4 1 4 5
M  V30 5 1 5 6
M  V30 6 1 2 7
M  V30 7 2 7 8
M  V30 8 1 8 9
M  V30 9 2 9 10
M  V30 10 1 10 11
M  V30 11 2 11 12
M  V30 12 1 11 13
M  V30 13 2 13 14
M  V30 14 1 13 15
M  V30 15 2 15 16
M  V30 16 1 16 17
M  V30 17 2 17 18
M  V30 18 1 18 19
M  V30 19 1 19 20
M  V30 20 2 20 21
M  V30 21 1 21 22
M  V30 22 2 22 23
M  V30 23 1 23 24
M  V30 24 1 23 25
M  V30 25 1 25 26
M  V30 26 1 26 27
M  V30 27 2 27 28
M  V30 28 1 27 29
M  V30 29 1 29 30
M  V30 30 1 30 31
M  V30 31 2 25 32
M  V30 32 1 18 33
M  V30 33 2 33 34
M  V30 34 1 34 35
M  V30 35 1 35 36
M  V30 36 1 12 7
M  V30 37 1 34 15
M  V30 38 1 36 10
M  V30 39 1 32 20
M  V30 40 1 31 29
M  V30 41 1 3 37
M  V30 42 1 4 38
M  V30 43 1 4 39
M  V30 44 1 5 40
M  V30 45 1 5 41
M  V30 46 1 6 42
M  V30 47 1 8 43
M  V30 48 1 9 44
M  V30 49 1 12 45
M  V30 50 1 16 46
M  V30 51 1 17 47
M  V30 52 1 19 48
M  V30 53 1 21 49
M  V30 54 1 22 50
M  V30 55 1 26 51
M  V30 56 1 29 52
M  V30 57 1 30 53
M  V30 58 1 30 54
M  V30 59 1 31 55
M  V30 60 1 31 56
M  V30 61 1 32 57
M  V30 62 1 33 58
M  V30 63 1 36 59
M  V30 64 1 36 60
M  V30 END BOND
M  V30 END CTAB
M  END
>  <Dataset>  (588) 
ChEMBL_Kinases

>  <Ligand_Instance>  (588) 
nan

>  <PDB_ID>  (588) 
nan

>  <Standardized_SMILES>  (588) 
O=C(NCCO)c1ccc2c(c1)C(=O)c1ccc(Nc3ccc(F)c(NC(=O)C4CC4)c3)cc1OC2

>  <Name>  (588) 
nan

>  <Pocket>  (588) 
nan

>  <ATP_Site>  (588) 
nan

>  <Peripheral>  (588) 
nan

>  <Num_H_Atoms_ProtBoundConf>  (588) 
nan

>  <Num_Resolved_Atoms>  (588) 
nan

>  <Num_Not_Resolved_Atoms>  (588) 
nan

$$$$
CHEMBL4859127
     RDKit          3D

  0  0  0  0  0  0  0  0  0  0999 V3000
M  V30 BEGIN CTAB
M  V30 COUNTS 75 79 0 0 0
M  V30 BEGIN ATOM
M  V30 1 C 2.344166 -1.099948 6.172228 0
M  V30 2 C 1.953049 -0.883810 4.744346 0
M  V30 3 C 2.987320 -0.195323 3.953962 0
M  V30 4 O 4.051576 0.081831 4.592917 0
M  V30 5 N 2.740907 0.101588 2.592321 0
M  V30 6 C 1.530769 -0.212448 1.886577 0
M  V30 7 C 1.123871 0.704025 0.806498 0
M  V30 8 C 2.078939 1.752006 0.366915 0
M  V30 9 N 1.510285 2.973030 -0.106556 0
M  V30 10 C 1.945225 4.224285 0.200570 0
M  V30 11 O 2.893093 4.463338 0.980477 0
M  V30 12 C 1.402654 5.385696 -0.304873 0
M  V30 13 C 0.346853 5.308271 -1.183800 0
M  V30 14 C -0.264841 6.554334 -1.756335 0
M  V30 15 C -0.112434 4.049568 -1.510332 0
M  V30 16 C -1.175513 4.049196 -2.407936 0
M  V30 17 N -1.609945 2.828770 -2.723924 0
M  V30 18 C -1.086788 1.696440 -2.233203 0
M  V30 19 N -1.699738 0.517895 -2.760832 0
M  V30 20 C -1.913868 -0.760268 -2.231311 0
M  V30 21 C -1.732216 -0.898226 -0.869396 0
M  V30 22 C -1.931306 -2.064118 -0.157111 0
M  V30 23 C -2.340679 -3.191838 -0.823464 0
M  V30 24 N -2.589573 -4.443336 -0.205666 0
M  V30 25 C -2.999572 -4.647068 1.191403 0
M  V30 26 C -2.132882 -5.799556 1.707130 0
M  V30 27 N -0.944483 -5.900144 0.945833 0
M  V30 28 C 0.293306 -5.661460 1.546617 0
M  V30 29 C -1.041614 -6.215864 -0.420932 0
M  V30 30 C -2.437726 -5.740224 -0.886158 0
M  V30 31 C -2.527203 -3.066305 -2.184173 0
M  V30 32 C -2.334661 -1.912058 -2.909678 0
M  V30 33 O -2.508713 -1.741716 -4.266874 0
M  V30 34 C -2.944815 -2.834242 -5.086342 0
M  V30 35 N -0.069314 1.756966 -1.375722 0
M  V30 36 C 0.472179 2.899109 -0.968616 0
M  V30 37 C 3.185845 2.036287 1.322168 0
M  V30 38 C 3.803540 0.767196 1.900480 0
M  V30 39 H 1.431860 -1.105962 6.833716 0
M  V30 40 H 3.025494 -0.345523 6.570947 0
M  V30 41 H 2.834374 -2.091402 6.347804 0
M  V30 42 H 1.000300 -0.316321 4.701222 0
M  V30 43 H 1.750206 -1.880705 4.295006 0
M  V30 44 H 1.633293 -1.284110 1.585779 0
M  V30 45 H 0.727917 -0.252152 2.680673 0
M  V30 46 H 0.151516 1.211115 1.070486 0
M  V30 47 H 0.898774 0.025522 -0.068471 0
M  V30 48 H 2.593417 1.308462 -0.560288 0
M  V30 49 H 1.752867 6.378860 -0.058859 0
M  V30 50 H 0.359413 7.434947 -1.544847 0
M  V30 51 H -1.332689 6.652274 -1.512946 0
M  V30 52 H -0.217632 6.423556 -2.878173 0
M  V30 53 H -1.598367 4.938225 -2.801731 0
M  V30 54 H -2.093462 0.529374 -3.742649 0
M  V30 55 H -1.425284 -0.054843 -0.267696 0
M  V30 56 H -1.773652 -2.111965 0.904854 0
M  V30 57 H -2.964620 -3.750454 1.796473 0
M  V30 58 H -4.075230 -5.003096 1.192808 0
M  V30 59 H -2.727173 -6.761175 1.739853 0
M  V30 60 H -1.889002 -5.551686 2.755429 0
M  V30 61 H 0.158791 -5.707463 2.665555 0
M  V30 62 H 1.148995 -6.263168 1.194346 0
M  V30 63 H 0.585656 -4.587002 1.375662 0
M  V30 64 H -0.331613 -5.533266 -0.983801 0
M  V30 65 H -0.823964 -7.246110 -0.727338 0
M  V30 66 H -2.417296 -5.643285 -1.982261 0
M  V30 67 H -3.158560 -6.494767 -0.536174 0
M  V30 68 H -2.853415 -3.867887 -2.850711 0
M  V30 69 H -2.163316 -3.584836 -5.261497 0
M  V30 70 H -3.306932 -2.404259 -6.034458 0
M  V30 71 H -3.783018 -3.366427 -4.578120 0
M  V30 72 H 4.042549 2.555343 0.851367 0
M  V30 73 H 2.888864 2.605052 2.221522 0
M  V30 74 H 4.684457 1.018556 2.516037 0
M  V30 75 H 4.156910 0.163586 1.054118 0
M  V30 END ATOM
M  V30 BEGIN BOND
M  V30 1 1 1 2
M  V30 2 1 2 3
M  V30 3 2 3 4
M  V30 4 1 3 5
M  V30 5 1 5 6
M  V30 6 1 6 7
M  V30 7 1 7 8
M  V30 8 1 8 9
M  V30 9 1 9 10
M  V30 10 2 10 11
M  V30 11 1 10 12
M  V30 12 2 12 13
M  V30 13 1 13 14
M  V30 14 1 13 15
M  V30 15 2 15 16
M  V30 16 1 16 17
M  V30 17 2 17 18
M  V30 18 1 18 19
M  V30 19 1 19 20
M  V30 20 2 20 21
M  V30 21 1 21 22
M  V30 22 2 22 23
M  V30 23 1 23 24
M  V30 24 1 24 25
M  V30 25 1 25 26
M  V30 26 1 26 27
M  V30 27 1 27 28
M  V30 28 1 27 29
M  V30 29 1 29 30
M  V30 30 1 23 31
M  V30 31 2 31 32
M  V30 32 1 32 33
M  V30 33 1 33 34
M  V30 34 1 18 35
M  V30 35 2 35 36
M  V30 36 1 8 37
M  V30 37 1 37 38
M  V30 38 1 38 5
M  V30 39 1 36 9
M  V30 40 1 36 15
M  V30 41 1 32 20
M  V30 42 1 30 24
M  V30 43 1 1 39
M  V30 44 1 1 40
M  V30 45 1 1 41
M  V30 46 1 2 42
M  V30 47 1 2 43
M  V30 48 1 6 44
M  V30 49 1 6 45
M  V30 50 1 7 46
M  V30 51 1 7 47
M  V30 52 1 8 48
M  V30 53 1 12 49
M  V30 54 1 14 50
M  V30 55 1 14 51
M  V30 56 1 14 52
M  V30 57 1 16 53
M  V30 58 1 19 54
M  V30 59 1 21 55
M  V30 60 1 22 56
M  V30 61 1 25 57
M  V30 62 1 25 58
M  V30 63 1 26 59
M  V30 64 1 26 60
M  V30 65 1 28 61
M  V30 66 1 28 62
M  V30 67 1 28 63
M  V30 68 1 29 64
M  V30 69 1 29 65
M  V30 70 1 30 66
M  V30 71 1 30 67
M  V30 72 1 31 68
M  V30 73 1 34 69
M  V30 74 1 34 70
M  V30 75 1 34 71
M  V30 76 1 37 72
M  V30 77 1 37 73
M  V30 78 1 38 74
M  V30 79 1 38 75
M  V30 END BOND
M  V30 END CTAB
M  END
>  <Dataset>  (589) 
ChEMBL_Kinases

>  <Ligand_Instance>  (589) 
nan

>  <PDB_ID>  (589) 
nan

>  <Standardized_SMILES>  (589) 
CCC(=O)N1CCC(n2c(=O)cc(C)c3cnc(Nc4ccc(N5CCN(C)CC5)cc4OC)nc32)CC1

>  <Name>  (589) 
nan

>  <Pocket>  (589) 
nan

>  <ATP_Site>  (589) 
nan

>  <Peripheral>  (589) 
nan

>  <Num_H_Atoms_ProtBoundConf>  (589) 
nan

>  <Num_Resolved_Atoms>  (589) 
nan

>  <Num_Not_Resolved_Atoms>  (589) 
nan

$$$$
CHEMBL4071095
     RDKit          3D

  0  0  0  0  0  0  0  0  0  0999 V3000
M  V30 BEGIN CTAB
M  V30 COUNTS 62 66 0 0 0
M  V30 BEGIN ATOM
M  V30 1 O 3.687923 3.038649 7.125722 0
M  V30 2 C 3.957896 2.408237 6.049266 0
M  V30 3 N 5.298590 2.058667 5.737782 0
M  V30 4 C 6.433042 2.373686 6.576865 0
M  V30 5 C 6.586380 3.873162 6.774780 0
M  V30 6 O 7.683073 4.165616 7.584750 0
M  V30 7 C 2.808569 2.094901 5.206713 0
M  V30 8 C 1.557473 2.490774 5.623022 0
M  V30 9 C 0.405850 2.229894 4.870333 0
M  V30 10 C 0.486188 1.560660 3.674567 0
M  V30 11 C 1.750977 1.169349 3.270439 0
M  V30 12 C 2.891234 1.421818 4.004838 0
M  V30 13 C 2.119601 0.450728 2.053207 0
M  V30 14 O 3.317359 0.304124 1.734503 0
M  V30 15 C 1.182230 -0.152538 1.109421 0
M  V30 16 C 1.774056 -0.529118 -0.075110 0
M  V30 17 C 1.021334 -1.111644 -1.066217 0
M  V30 18 C -0.331152 -1.362304 -0.973293 0
M  V30 19 N -1.073169 -1.948106 -2.019340 0
M  V30 20 C -2.285108 -2.646735 -2.057252 0
M  V30 21 C -2.894828 -3.296268 -1.007147 0
M  V30 22 C -4.090203 -3.967538 -1.032787 0
M  V30 23 C -4.754459 -3.994014 -2.248683 0
M  V30 24 F -5.940398 -4.636495 -2.355314 0
M  V30 25 C -4.198108 -3.363487 -3.340165 0
M  V30 26 N -4.836677 -3.356875 -4.625940 0
M  V30 27 C -4.465764 -4.447630 -5.452714 0
M  V30 28 O -3.646032 -5.244919 -4.941803 0
M  V30 29 C -5.075560 -4.511691 -6.785610 0
M  V30 30 C -4.842554 -5.473956 -7.710631 0
M  V30 31 C -5.460212 -5.441085 -8.922125 0
M  V30 32 C -6.360583 -4.306315 -9.106696 0
M  V30 33 S -6.213225 -3.383714 -7.463808 0
M  V30 34 C -2.992027 -2.706182 -3.244263 0
M  V30 35 C -0.857307 -0.961058 0.235629 0
M  V30 36 C -0.169446 -0.372310 1.274126 0
M  V30 37 C -0.998458 -0.045468 2.461824 0
M  V30 38 C -0.807404 1.349351 2.975793 0
M  V30 39 H 5.430144 1.543040 4.839691 0
M  V30 40 H 7.348597 2.007211 6.086214 0
M  V30 41 H 6.371707 1.847943 7.559947 0
M  V30 42 H 6.733417 4.353156 5.791612 0
M  V30 43 H 5.663906 4.265661 7.198871 0
M  V30 44 H 8.517646 3.922487 7.121721 0
M  V30 45 H 1.367598 3.027891 6.551994 0
M  V30 46 H -0.573430 2.537232 5.191518 0
M  V30 47 H 3.852447 1.096238 3.646297 0
M  V30 48 H 2.833050 -0.361430 -0.215601 0
M  V30 49 H 1.549490 -1.390948 -1.990902 0
M  V30 50 H -0.584841 -1.814177 -2.960194 0
M  V30 51 H -2.404031 -3.308803 -0.044790 0
M  V30 52 H -4.507039 -4.455141 -0.163376 0
M  V30 53 H -5.522904 -2.641630 -4.981958 0
M  V30 54 H -4.155160 -6.306166 -7.518610 0
M  V30 55 H -5.372767 -6.129484 -9.745492 0
M  V30 56 H -6.951952 -4.158781 -10.097620 0
M  V30 57 H -2.573904 -2.212674 -4.130847 0
M  V30 58 H -1.910202 -1.082732 0.448559 0
M  V30 59 H -0.940130 -0.803262 3.264756 0
M  V30 60 H -2.067388 -0.090482 2.107367 0
M  V30 61 H -1.637578 1.551469 3.686551 0
M  V30 62 H -0.936957 2.050973 2.123316 0
M  V30 END ATOM
M  V30 BEGIN BOND
M  V30 1 2 1 2
M  V30 2 1 2 3
M  V30 3 1 3 4
M  V30 4 1 4 5
M  V30 5 1 5 6
M  V30 6 1 2 7
M  V30 7 2 7 8
M  V30 8 1 8 9
M  V30 9 2 9 10
M  V30 10 1 10 11
M  V30 11 2 11 12
M  V30 12 1 11 13
M  V30 13 2 13 14
M  V30 14 1 13 15
M  V30 15 2 15 16
M  V30 16 1 16 17
M  V30 17 2 17 18
M  V30 18 1 18 19
M  V30 19 1 19 20
M  V30 20 2 20 21
M  V30 21 1 21 22
M  V30 22 2 22 23
M  V30 23 1 23 24
M  V30 24 1 23 25
M  V30 25 1 25 26
M  V30 26 1 26 27
M  V30 27 2 27 28
M  V30 28 1 27 29
M  V30 29 2 29 30
M  V30 30 1 30 31
M  V30 31 2 31 32
M  V30 32 1 32 33
M  V30 33 2 25 34
M  V30 34 1 18 35
M  V30 35 2 35 36
M  V30 36 1 36 37
M  V30 37 1 37 38
M  V30 38 1 12 7
M  V30 39 1 36 15
M  V30 40 1 38 10
M  V30 41 1 34 20
M  V30 42 1 33 29
M  V30 43 1 3 39
M  V30 44 1 4 40
M  V30 45 1 4 41
M  V30 46 1 5 42
M  V30 47 1 5 43
M  V30 48 1 6 44
M  V30 49 1 8 45
M  V30 50 1 9 46
M  V30 51 1 12 47
M  V30 52 1 16 48
M  V30 53 1 17 49
M  V30 54 1 19 50
M  V30 55 1 21 51
M  V30 56 1 22 52
M  V30 57 1 26 53
M  V30 58 1 30 54
M  V30 59 1 31 55
M  V30 60 1 32 56
M  V30 61 1 34 57
M  V30 62 1 35 58
M  V30 63 1 37 59
M  V30 64 1 37 60
M  V30 65 1 38 61
M  V30 66 1 38 62
M  V30 END BOND
M  V30 END CTAB
M  END
>  <Dataset>  (590) 
ChEMBL_Kinases

>  <Ligand_Instance>  (590) 
nan

>  <PDB_ID>  (590) 
nan

>  <Standardized_SMILES>  (590) 
O=C(NCCO)c1ccc2c(c1)C(=O)c1ccc(Nc3ccc(F)c(NC(=O)c4cccs4)c3)cc1CC2

>  <Name>  (590) 
nan

>  <Pocket>  (590) 
nan

>  <ATP_Site>  (590) 
nan

>  <Peripheral>  (590) 
nan

>  <Num_H_Atoms_ProtBoundConf>  (590) 
nan

>  <Num_Resolved_Atoms>  (590) 
nan

>  <Num_Not_Resolved_Atoms>  (590) 
nan

$$$$
CHEMBL4860264
     RDKit          3D

  0  0  0  0  0  0  0  0  0  0999 V3000
M  V30 BEGIN CTAB
M  V30 COUNTS 41 43 0 0 0
M  V30 BEGIN ATOM
M  V30 1 C -2.318332 -3.061902 0.974241 0
M  V30 2 O -2.440314 -2.159055 2.043115 0
M  V30 3 C -1.749902 -0.985486 2.166722 0
M  V30 4 C -0.864318 -0.669483 1.156773 0
M  V30 5 C -0.138672 0.501927 1.225710 0
M  V30 6 N 0.766586 0.794670 0.163519 0
M  V30 7 C 2.075360 0.317633 0.318151 0
M  V30 8 O 2.441048 -0.342715 1.351331 0
M  V30 9 C 3.279598 0.421784 -0.559486 0 CFG=1
M  V30 10 C 4.013790 -0.854044 -0.722506 0
M  V30 11 C 3.750709 -1.630337 -1.973813 0
M  V30 12 C 3.338289 -0.795135 -3.145905 0
M  V30 13 C 2.417868 0.339565 -2.789449 0
M  V30 14 N 3.030866 1.141569 -1.781496 0
M  V30 15 C -0.315300 1.337208 2.309715 0
M  V30 16 C -1.214058 0.974489 3.293416 0
M  V30 17 C -1.960950 -0.185172 3.267689 0
M  V30 18 C -2.885053 -0.484116 4.351839 0
M  V30 19 C -3.716110 -1.568542 4.525662 0
M  V30 20 N -4.406764 -1.451347 5.670512 0
M  V30 21 C -3.982962 -0.275898 6.193303 0
M  V30 22 O -3.092712 0.264096 5.396437 0
M  V30 23 H -2.470483 -2.550351 -0.012443 0
M  V30 24 H -1.400227 -3.652512 1.001211 0
M  V30 25 H -3.175043 -3.777679 1.040320 0
M  V30 26 H -0.730201 -1.330442 0.307403 0
M  V30 27 H 0.650260 1.300060 -0.718906 0
M  V30 28 H 3.962128 1.109324 0.027805 0
M  V30 29 H 5.109770 -0.716657 -0.610839 0
M  V30 30 H 3.739372 -1.496878 0.165418 0
M  V30 31 H 4.673062 -2.173371 -2.272946 0
M  V30 32 H 2.979504 -2.425654 -1.823660 0
M  V30 33 H 2.788683 -1.432072 -3.882751 0
M  V30 34 H 4.218811 -0.387670 -3.684577 0
M  V30 35 H 2.379845 0.984155 -3.716414 0
M  V30 36 H 1.386660 0.034603 -2.617255 0
M  V30 37 H 2.583918 2.039125 -1.581151 0
M  V30 38 H 0.245173 2.259427 2.380138 0
M  V30 39 H -1.346971 1.640204 4.145682 0
M  V30 40 H -3.833804 -2.409728 3.874816 0
M  V30 41 H -4.236290 0.260360 7.097753 0
M  V30 END ATOM
M  V30 BEGIN BOND
M  V30 1 1 1 2
M  V30 2 1 2 3
M  V30 3 2 3 4
M  V30 4 1 4 5
M  V30 5 1 5 6
M  V30 6 1 6 7
M  V30 7 2 7 8
M  V30 8 1 7 9
M  V30 9 1 9 10
M  V30 10 1 10 11
M  V30 11 1 11 12
M  V30 12 1 12 13
M  V30 13 1 13 14
M  V30 14 2 5 15
M  V30 15 1 15 16
M  V30 16 2 16 17
M  V30 17 1 17 18
M  V30 18 2 18 19
M  V30 19 1 19 20
M  V30 20 2 20 21
M  V30 21 1 21 22
M  V30 22 1 17 3
M  V30 23 1 22 18
M  V30 24 1 14 9
M  V30 25 1 1 23
M  V30 26 1 1 24
M  V30 27 1 1 25
M  V30 28 1 4 26
M  V30 29 1 6 27
M  V30 30 1 9 28 CFG=1
M  V30 31 1 10 29
M  V30 32 1 10 30
M  V30 33 1 11 31
M  V30 34 1 11 32
M  V30 35 1 12 33
M  V30 36 1 12 34
M  V30 37 1 13 35
M  V30 38 1 13 36
M  V30 39 1 14 37
M  V30 40 1 15 38
M  V30 41 1 16 39
M  V30 42 1 19 40
M  V30 43 1 21 41
M  V30 END BOND
M  V30 END CTAB
M  END
>  <Dataset>  (591) 
ChEMBL_Kinases

>  <Ligand_Instance>  (591) 
nan

>  <PDB_ID>  (591) 
nan

>  <Standardized_SMILES>  (591) 
COc1cc(NC(=O)[C@H]2CCCCN2)ccc1-c1cnco1

>  <Name>  (591) 
nan

>  <Pocket>  (591) 
nan

>  <ATP_Site>  (591) 
nan

>  <Peripheral>  (591) 
nan

>  <Num_H_Atoms_ProtBoundConf>  (591) 
nan

>  <Num_Resolved_Atoms>  (591) 
nan

>  <Num_Not_Resolved_Atoms>  (591) 
nan

$$$$
CHEMBL4860265
     RDKit          3D

  0  0  0  0  0  0  0  0  0  0999 V3000
M  V30 BEGIN CTAB
M  V30 COUNTS 45 48 0 0 0
M  V30 BEGIN ATOM
M  V30 1 C -4.084700 -4.802684 -0.434464 0
M  V30 2 C -2.644179 -4.923632 -0.117504 0
M  V30 3 N -1.980120 -6.038717 0.191575 0
M  V30 4 N -0.703966 -5.792217 0.417895 0
M  V30 5 C -0.499794 -4.489423 0.259717 0
M  V30 6 C 0.641784 -3.687880 0.372746 0
M  V30 7 C 0.512638 -2.324323 0.136181 0
M  V30 8 C -0.681613 -1.728025 -0.202853 0
M  V30 9 C -0.705241 -0.287318 -0.429499 0
M  V30 10 C -1.830052 0.412260 -0.770045 0
M  V30 11 N -1.793882 1.758975 -0.969836 0
M  V30 12 C -0.592278 2.379469 -0.816573 0
M  V30 13 C 0.545918 1.715462 -0.478727 0
M  V30 14 N 1.784827 2.404088 -0.328280 0
M  V30 15 C 2.195678 2.962084 0.973002 0 CFG=1
M  V30 16 C 1.163448 3.960934 1.391198 0
M  V30 17 O 1.507923 4.529934 2.591062 0
M  V30 18 C 2.340736 1.867139 1.961036 0
M  V30 19 C 3.085495 0.837849 1.365001 0
M  V30 20 C 3.392473 -0.335989 2.036284 0
M  V30 21 C 2.952360 -0.513247 3.349406 0
M  V30 22 F 3.219426 -1.629401 4.049761 0
M  V30 23 C 2.226472 0.503545 3.913500 0
M  V30 24 C 1.926215 1.665881 3.239354 0
M  V30 25 N 0.451863 0.371054 -0.291277 0
M  V30 26 C -1.776387 -2.559356 -0.301609 0
M  V30 27 C -1.702761 -3.912426 -0.078157 0
M  V30 28 H -4.501659 -5.820199 -0.603228 0
M  V30 29 H -4.204554 -4.175062 -1.354401 0
M  V30 30 H -4.665161 -4.325787 0.358864 0
M  V30 31 H 0.010178 -6.533169 0.679780 0
M  V30 32 H 1.583865 -4.151091 0.639089 0
M  V30 33 H 1.461484 -1.782935 0.249338 0
M  V30 34 H -2.771060 -0.106498 -0.885020 0
M  V30 35 H -0.555427 3.440975 -0.972328 0
M  V30 36 H 2.377367 2.489472 -1.182450 0
M  V30 37 H 3.193893 3.400397 0.824996 0
M  V30 38 H 0.170349 3.463764 1.476980 0
M  V30 39 H 1.048889 4.742537 0.610549 0
M  V30 40 H 0.788356 5.173908 2.855892 0
M  V30 41 H 3.513073 0.790083 0.358354 0
M  V30 42 H 3.954998 -1.168129 1.653020 0
M  V30 43 H 1.832647 0.470537 4.934827 0
M  V30 44 H 1.366559 2.492661 3.613320 0
M  V30 45 H -2.727244 -2.118504 -0.566332 0
M  V30 END ATOM
M  V30 BEGIN BOND
M  V30 1 1 1 2
M  V30 2 2 2 3
M  V30 3 1 3 4
M  V30 4 1 4 5
M  V30 5 2 5 6
M  V30 6 1 6 7
M  V30 7 2 7 8
M  V30 8 1 8 9
M  V30 9 2 9 10
M  V30 10 1 10 11
M  V30 11 2 11 12
M  V30 12 1 12 13
M  V30 13 1 13 14
M  V30 14 1 14 15
M  V30 15 1 15 16
M  V30 16 1 16 17
M  V30 17 1 15 18
M  V30 18 2 18 19
M  V30 19 1 19 20
M  V30 20 2 20 21
M  V30 21 1 21 22
M  V30 22 1 21 23
M  V30 23 2 23 24
M  V30 24 2 13 25
M  V30 25 1 8 26
M  V30 26 2 26 27
M  V30 27 1 27 2
M  V30 28 1 27 5
M  V30 29 1 25 9
M  V30 30 1 24 18
M  V30 31 1 1 28
M  V30 32 1 1 29
M  V30 33 1 1 30
M  V30 34 1 4 31
M  V30 35 1 6 32
M  V30 36 1 7 33
M  V30 37 1 10 34
M  V30 38 1 12 35
M  V30 39 1 14 36
M  V30 40 1 15 37 CFG=3
M  V30 41 1 16 38
M  V30 42 1 16 39
M  V30 43 1 17 40
M  V30 44 1 19 41
M  V30 45 1 20 42
M  V30 46 1 23 43
M  V30 47 1 24 44
M  V30 48 1 26 45
M  V30 END BOND
M  V30 END CTAB
M  END
>  <Dataset>  (592) 
ChEMBL_Kinases

>  <Ligand_Instance>  (592) 
nan

>  <PDB_ID>  (592) 
nan

>  <Standardized_SMILES>  (592) 
Cc1n[nH]c2ccc(-c3cncc(N[C@@H](CO)c4ccc(F)cc4)n3)cc12

>  <Name>  (592) 
nan

>  <Pocket>  (592) 
nan

>  <ATP_Site>  (592) 
nan

>  <Peripheral>  (592) 
nan

>  <Num_H_Atoms_ProtBoundConf>  (592) 
nan

>  <Num_Resolved_Atoms>  (592) 
nan

>  <Num_Not_Resolved_Atoms>  (592) 
nan

$$$$
CHEMBL4071058
     RDKit          3D

  0  0  0  0  0  0  0  0  0  0999 V3000
M  V30 BEGIN CTAB
M  V30 COUNTS 52 54 0 0 0
M  V30 BEGIN ATOM
M  V30 1 C 1.620746 -0.723951 2.132616 0
M  V30 2 C 3.111201 -0.953936 2.171603 0
M  V30 3 C 3.344334 -2.437279 2.139345 0
M  V30 4 C 3.665203 -0.334336 3.431726 0
M  V30 5 O 3.762088 -0.279059 1.108185 0
M  V30 6 C 3.418234 -0.598726 -0.189196 0
M  V30 7 O 2.561618 -1.463766 0.077049 0
M  V30 8 N 3.896617 -0.094553 -1.446813 0
M  V30 9 C 3.272776 -0.675682 -2.624589 0
M  V30 10 C 1.831221 -0.345713 -2.610790 0
M  V30 11 O 1.276170 -0.880779 -3.611295 0
M  V30 12 N 1.067533 0.410240 -1.724901 0
M  V30 13 C -0.303208 0.750319 -1.667995 0
M  V30 14 C -0.762904 1.880165 -2.308276 0
M  V30 15 C -2.082229 2.359762 -2.350026 0
M  V30 16 C -2.946738 1.529397 -1.633290 0
M  V30 17 N -4.239044 1.898801 -1.616413 0
M  V30 18 C -5.192391 1.202480 -0.976345 0
M  V30 19 N -4.820996 0.071023 -0.316674 0
M  V30 20 C -3.552781 -0.368495 -0.282868 0
M  V30 21 N -3.174313 -1.552335 0.388613 0
M  V30 22 C -2.901949 -1.937124 1.720171 0
M  V30 23 C -2.619110 -3.256360 1.967318 0
M  V30 24 C -2.344638 -3.739933 3.213596 0
M  V30 25 C -2.358975 -2.830391 4.261929 0
M  V30 26 C -2.646862 -1.496656 3.996243 0
M  V30 27 Br -2.655887 -0.271455 5.471974 0
M  V30 28 C -2.925106 -0.999180 2.744329 0
M  V30 29 C -2.613192 0.382143 -0.955764 0
M  V30 30 C -1.283126 0.043015 -1.007496 0
M  V30 31 H 1.055393 -1.662303 1.865230 0
M  V30 32 H 1.288844 -0.451895 3.149852 0
M  V30 33 H 1.347644 0.105182 1.435942 0
M  V30 34 H 4.089624 -2.713534 1.350712 0
M  V30 35 H 3.758736 -2.736980 3.123344 0
M  V30 36 H 2.402663 -3.011003 2.005535 0
M  V30 37 H 3.388427 -0.869086 4.335725 0
M  V30 38 H 4.783094 -0.214358 3.326968 0
M  V30 39 H 3.296939 0.724054 3.429643 0
M  V30 40 H 4.642268 0.634357 -1.274380 0
M  V30 41 H 3.381785 -1.779736 -2.637349 0
M  V30 42 H 3.729080 -0.186731 -3.491184 0
M  V30 43 H 1.592241 0.834853 -0.934247 0
M  V30 44 H -0.036543 2.483137 -2.850615 0
M  V30 45 H -2.368928 3.249082 -2.869697 0
M  V30 46 H -6.251468 1.365023 -0.871025 0
M  V30 47 H -3.121063 -2.208516 -0.402365 0
M  V30 48 H -2.613930 -3.960955 1.119537 0
M  V30 49 H -2.133517 -4.787715 3.318882 0
M  V30 50 H -2.144581 -3.185726 5.259887 0
M  V30 51 H -3.145428 0.044342 2.574975 0
M  V30 52 H -0.981229 -0.855671 -0.483648 0
M  V30 END ATOM
M  V30 BEGIN BOND
M  V30 1 1 1 2
M  V30 2 1 2 3
M  V30 3 1 2 4
M  V30 4 1 2 5
M  V30 5 1 5 6
M  V30 6 2 6 7
M  V30 7 1 6 8
M  V30 8 1 8 9
M  V30 9 1 9 10
M  V30 10 2 10 11
M  V30 11 1 10 12
M  V30 12 1 12 13
M  V30 13 2 13 14
M  V30 14 1 14 15
M  V30 15 2 15 16
M  V30 16 1 16 17
M  V30 17 2 17 18
M  V30 18 1 18 19
M  V30 19 2 19 20
M  V30 20 1 20 21
M  V30 21 1 21 22
M  V30 22 2 22 23
M  V30 23 1 23 24
M  V30 24 2 24 25
M  V30 25 1 25 26
M  V30 26 1 26 27
M  V30 27 2 26 28
M  V30 28 1 20 29
M  V30 29 2 29 30
M  V30 30 1 30 13
M  V30 31 1 29 16
M  V30 32 1 28 22
M  V30 33 1 1 31
M  V30 34 1 1 32
M  V30 35 1 1 33
M  V30 36 1 3 34
M  V30 37 1 3 35
M  V30 38 1 3 36
M  V30 39 1 4 37
M  V30 40 1 4 38
M  V30 41 1 4 39
M  V30 42 1 8 40
M  V30 43 1 9 41
M  V30 44 1 9 42
M  V30 45 1 12 43
M  V30 46 1 14 44
M  V30 47 1 15 45
M  V30 48 1 18 46
M  V30 49 1 21 47
M  V30 50 1 23 48
M  V30 51 1 24 49
M  V30 52 1 25 50
M  V30 53 1 28 51
M  V30 54 1 30 52
M  V30 END BOND
M  V30 END CTAB
M  END
>  <Dataset>  (593) 
ChEMBL_Kinases

>  <Ligand_Instance>  (593) 
nan

>  <PDB_ID>  (593) 
nan

>  <Standardized_SMILES>  (593) 
CC(C)(C)OC(=O)NCC(=O)Nc1ccc2ncnc(Nc3cccc(Br)c3)c2c1

>  <Name>  (593) 
nan

>  <Pocket>  (593) 
nan

>  <ATP_Site>  (593) 
nan

>  <Peripheral>  (593) 
nan

>  <Num_H_Atoms_ProtBoundConf>  (593) 
nan

>  <Num_Resolved_Atoms>  (593) 
nan

>  <Num_Not_Resolved_Atoms>  (593) 
nan

$$$$
CHEMBL4071045
     RDKit          3D

  0  0  0  0  0  0  0  0  0  0999 V3000
M  V30 BEGIN CTAB
M  V30 COUNTS 243 253 0 0 0
M  V30 BEGIN ATOM
M  V30 1 N 6.728495 -5.070671 1.226191 0
M  V30 2 C 6.862180 -3.652766 1.140064 0
M  V30 3 O 7.987575 -3.164906 1.382662 0
M  V30 4 C 5.846137 -2.638663 0.796686 0 CFG=2
M  V30 5 C 5.678531 -1.683058 1.915248 0
M  V30 6 C 6.742317 -0.795714 2.353630 0
M  V30 7 C 6.322803 -0.010924 3.640124 0
M  V30 8 C 6.282278 -0.914871 4.813519 0
M  V30 9 N 5.783536 -0.315062 6.004865 0
M  V30 10 C 4.838912 0.191091 6.911772 0
M  V30 11 S 3.790151 -0.398125 5.810483 0
M  V30 12 N 3.922115 0.708676 7.844366 0
M  V30 13 C 2.479531 0.745021 7.841907 0
M  V30 14 C 1.430847 1.585829 7.592902 0
M  V30 15 C 0.131923 1.141830 7.703086 0
M  V30 16 C -0.255637 -0.111502 8.054324 0
M  V30 17 C -1.609174 -0.575594 8.176851 0
M  V30 18 C -2.211999 -0.469987 9.424050 0
M  V30 19 C -1.582037 0.057386 10.512638 0
M  V30 20 C -2.241655 0.130327 11.745428 0
M  V30 21 C -3.558826 -0.326563 11.914930 0
M  V30 22 O -4.145989 -0.256183 13.026838 0
M  V30 23 C -4.266946 -0.869809 10.873255 0
M  V30 24 C -3.573028 -0.925141 9.666589 0
M  V30 25 O -4.252040 -1.453978 8.655587 0
M  V30 26 C -3.695711 -1.561314 7.460341 0
M  V30 27 C -4.518682 -2.130896 6.490474 0
M  V30 28 C -3.998662 -2.274041 5.201131 0
M  V30 29 O -4.768836 -2.834070 4.203456 0
M  V30 30 C -2.705537 -1.836748 4.994416 0
M  V30 31 C -1.856281 -1.264355 5.940592 0
M  V30 32 C -2.393332 -1.138347 7.188543 0
M  V30 33 C 0.793264 -0.993426 8.314129 0
M  V30 34 C 0.427994 -2.372795 8.686587 0
M  V30 35 O -0.769304 -2.711756 8.758867 0
M  V30 36 O 1.357139 -3.351435 8.968633 0
M  V30 37 C 2.134347 -0.571938 8.209950 0
M  V30 38 N 4.562496 -3.256859 0.545717 0
M  V30 39 C 3.561592 -3.922033 -0.312204 0
M  V30 40 O 4.281929 -3.979272 -1.340738 0
M  V30 41 C 2.367951 -4.114076 0.489969 0
M  V30 42 N 1.171451 -4.723438 -0.012885 0
M  V30 43 C 0.305262 -3.732091 -0.529337 0
M  V30 44 C 0.201690 -3.380835 -1.947742 0 CFG=2
M  V30 45 C -0.467035 -1.990384 -1.968143 0
M  V30 46 C -1.775937 -1.915149 -1.340684 0
M  V30 47 C -1.843410 -1.530382 0.007955 0
M  V30 48 C -2.990158 -1.407902 0.768435 0
M  V30 49 C -4.231778 -1.677615 0.197032 0
M  V30 50 C -4.236759 -2.058985 -1.123660 0
M  V30 51 C -3.047224 -2.154278 -1.801007 0
M  V30 52 N -0.531673 -4.181078 -2.843041 0
M  V30 53 C -1.247420 -4.983542 -3.728996 0
M  V30 54 O -0.316035 -5.821312 -3.402338 0
M  V30 55 C -2.144794 -5.604363 -4.662822 0
M  V30 56 N -3.205918 -4.870740 -5.301009 0
M  V30 57 C -4.496699 -4.659690 -4.688910 0
M  V30 58 O -5.366696 -4.022246 -5.369010 0
M  V30 59 C -4.901832 -5.109096 -3.355313 0
M  V30 60 C -6.300124 -4.625533 -3.018470 0
M  V30 61 C -6.599998 -5.103864 -1.624142 0
M  V30 62 O -5.945439 -5.777067 -0.796507 0
M  V30 63 O -7.873157 -4.703840 -1.171799 0
M  V30 64 C -3.007863 -4.514475 -6.662783 0
M  V30 65 C -2.751436 -3.088567 -7.053189 0 CFG=2
M  V30 66 C -2.137225 -3.185166 -8.432514 0
M  V30 67 C -1.815236 -1.929372 -9.140924 0
M  V30 68 C -2.973118 -1.096725 -9.533518 0
M  V30 69 O -3.674705 -1.730766 -10.400077 0
M  V30 70 O -4.037051 -0.261848 -9.855623 0
M  V30 71 N -2.103974 -2.298581 -6.089081 0
M  V30 72 C -2.417264 -0.900606 -6.042294 0
M  V30 73 O -3.092505 -0.142252 -6.709828 0
M  V30 74 C -1.805839 -0.114067 -4.961903 0
M  V30 75 N -2.003614 1.320858 -5.024220 0
M  V30 76 C -0.888083 1.953508 -5.639437 0
M  V30 77 O -0.917122 3.198364 -5.836914 0
M  V30 78 C 0.339078 1.285185 -6.094939 0
M  V30 79 C 1.080135 2.020312 -7.147230 0
M  V30 80 C 1.794874 3.192373 -7.144817 0
M  V30 81 C 2.431051 3.604331 -8.296434 0
M  V30 82 C 2.405286 2.914095 -9.480356 0
M  V30 83 C 1.705267 1.740934 -9.529964 0
M  V30 84 C 1.054594 1.307171 -8.373532 0
M  V30 85 O 1.822152 1.220238 -10.821743 0
M  V30 86 C 3.012666 1.799978 -11.390236 0
M  V30 87 O 2.938976 3.084789 -10.768602 0
M  V30 88 C -3.229723 1.691679 -4.404171 0
M  V30 89 C -3.435365 1.652115 -2.972836 0 CFG=2
M  V30 90 C -4.864695 1.908783 -2.577022 0
M  V30 91 C -5.432638 3.206682 -2.961008 0
M  V30 92 C -5.575798 3.441132 -4.399010 0
M  V30 93 O -5.418514 4.514153 -5.079263 0
M  V30 94 O -5.795731 3.322093 -5.754015 0
M  V30 95 N -2.603384 2.314038 -2.009719 0
M  V30 96 C -1.273084 2.284073 -1.408650 0
M  V30 97 O -0.865035 1.587941 -2.359349 0
M  V30 98 C -1.250869 3.036794 -0.163294 0
M  V30 99 N -0.057101 3.207056 0.600445 0
M  V30 100 C 0.426648 4.490153 0.201406 0
M  V30 101 O -0.343191 4.934822 -0.686150 0
M  V30 102 C 1.589999 5.286996 0.647451 0
M  V30 103 C 2.043172 6.349425 -0.270728 0
M  V30 104 C 1.055656 7.406824 -0.606887 0
M  V30 105 C 0.515280 8.193559 0.543654 0
M  V30 106 C -0.590337 9.085111 -0.009492 0
M  V30 107 C -0.152638 9.956344 -1.133572 0
M  V30 108 C 0.682513 9.241276 -2.168876 0
M  V30 109 C 1.776918 8.421585 -1.525283 0
M  V30 110 C 0.293164 2.223561 1.622923 0
M  V30 111 C 1.628948 1.514968 1.298495 0 CFG=2
M  V30 112 C 1.653648 1.392060 -0.192754 0
M  V30 113 C 2.871077 0.825000 -0.786062 0
M  V30 114 C 3.768243 1.900112 -1.001655 0
M  V30 115 C 5.029178 1.789165 -1.587882 0
M  V30 116 C 5.429723 0.536014 -1.986084 0
M  V30 117 C 4.571774 -0.523162 -1.783806 0
M  V30 118 C 3.333473 -0.387888 -1.202218 0
M  V30 119 N 1.490788 0.193381 1.890312 0
M  V30 120 C 1.632298 -0.636890 3.001954 0
M  V30 121 O 1.985824 0.484088 3.323377 0
M  V30 122 C 1.414882 -2.004083 3.317268 0
M  V30 123 C 0.333397 -2.824741 3.192586 0
M  V30 124 C 0.182775 -4.141498 3.480861 0
M  V30 125 C 0.975196 -5.149242 3.981628 0
M  V30 126 C 1.996372 -4.238110 4.065843 0
M  V30 127 C 2.272159 -2.934680 3.818964 0
M  V30 128 C 0.560960 -6.513924 4.209079 0
M  V30 129 S -0.046191 -7.481137 2.860496 0
M  V30 130 C 1.093120 -8.079985 1.646382 0
M  V30 131 C 1.825766 -7.014185 0.856524 0
M  V30 132 C 0.879557 -6.128947 0.133163 0
M  V30 133 O -0.200744 -6.502581 -0.385136 0
M  V30 134 H 7.226809 -5.489435 0.389873 0
M  V30 135 H 6.258555 -5.690677 1.921296 0
M  V30 136 H 6.212332 -2.163791 -0.175576 0
M  V30 137 H 5.274274 -2.321904 2.773497 0
M  V30 138 H 4.794744 -1.009722 1.631519 0
M  V30 139 H 6.886052 0.021933 1.609793 0
M  V30 140 H 7.699608 -1.256906 2.662042 0
M  V30 141 H 7.088302 0.785088 3.740610 0
M  V30 142 H 5.332404 0.444610 3.472041 0
M  V30 143 H 7.317821 -1.316601 5.062769 0
M  V30 144 H 5.697350 -1.840143 4.601298 0
M  V30 145 H 6.401354 -0.005468 6.770445 0
M  V30 146 H 4.448758 1.133885 8.657689 0
M  V30 147 H 1.856501 2.533034 7.328746 0
M  V30 148 H -0.598751 1.900581 7.479488 0
M  V30 149 H -0.579840 0.424846 10.452966 0
M  V30 150 H -1.816675 0.527162 12.648786 0
M  V30 151 H -5.281958 -1.244378 10.936819 0
M  V30 152 H -5.530495 -2.457083 6.698431 0
M  V30 153 H -4.295116 -3.496538 3.579224 0
M  V30 154 H -2.382615 -1.967397 3.990550 0
M  V30 155 H -0.861695 -0.944782 5.748866 0
M  V30 156 H 1.302895 -4.256442 8.520351 0
M  V30 157 H 2.777693 -1.437069 8.463021 0
M  V30 158 H 4.241118 -3.170235 1.580199 0
M  V30 159 H 2.669307 -4.634849 1.454750 0
M  V30 160 H 2.072952 -3.076007 0.937053 0
M  V30 161 H 0.477157 -2.781872 0.018383 0
M  V30 162 H -0.742654 -4.014763 -0.150215 0
M  V30 163 H 1.238113 -3.258983 -2.318961 0
M  V30 164 H -0.392783 -1.575961 -2.981927 0
M  V30 165 H 0.247231 -1.341493 -1.368631 0
M  V30 166 H -1.027297 -1.249516 0.661738 0
M  V30 167 H -3.079517 -1.113339 1.817393 0
M  V30 168 H -5.161034 -1.602969 0.728520 0
M  V30 169 H -5.174589 -2.265778 -1.579328 0
M  V30 170 H -3.169720 -2.428783 -2.835993 0
M  V30 171 H -1.422414 -3.726384 -3.131622 0
M  V30 172 H -2.594880 -6.556903 -4.227798 0
M  V30 173 H -1.492276 -6.028801 -5.498544 0
M  V30 174 H -4.193510 -4.798487 -2.570483 0
M  V30 175 H -4.966678 -6.236661 -3.290834 0
M  V30 176 H -7.011182 -5.161073 -3.702358 0
M  V30 177 H -6.410157 -3.551716 -3.144850 0
M  V30 178 H -8.019448 -4.609078 -0.159264 0
M  V30 179 H -3.903866 -4.923552 -7.238186 0
M  V30 180 H -2.163668 -5.106592 -7.127906 0
M  V30 181 H -3.766534 -2.583193 -7.280274 0
M  V30 182 H -1.322997 -3.949866 -8.485891 0
M  V30 183 H -2.959586 -3.682282 -9.046421 0
M  V30 184 H -1.186692 -1.269731 -8.451082 0
M  V30 185 H -1.234150 -2.112519 -10.076068 0
M  V30 186 H -4.591641 0.185693 -9.110898 0
M  V30 187 H -1.416539 -2.700886 -5.424564 0
M  V30 188 H -0.743113 -0.386469 -4.891880 0
M  V30 189 H -2.198621 -0.497494 -3.949250 0
M  V30 190 H 0.203965 0.235307 -6.373112 0
M  V30 191 H 1.071811 1.242388 -5.219142 0
M  V30 192 H 1.759542 3.656109 -6.176480 0
M  V30 193 H 2.974001 4.538691 -8.235859 0
M  V30 194 H 0.529341 0.363894 -8.525385 0
M  V30 195 H 3.853934 1.236366 -10.925974 0
M  V30 196 H 3.006854 1.827042 -12.476612 0
M  V30 197 H -3.401664 2.791329 -4.698103 0
M  V30 198 H -4.049891 1.175180 -4.955999 0
M  V30 199 H -3.313828 0.508186 -2.650216 0
M  V30 200 H -4.924036 1.715862 -1.469312 0
M  V30 201 H -5.462606 1.033758 -3.001022 0
M  V30 202 H -4.781816 4.028077 -2.527567 0
M  V30 203 H -6.407841 3.322267 -2.413514 0
M  V30 204 H -6.183705 2.458067 -6.113020 0
M  V30 205 H -3.194058 3.122049 -1.642283 0
M  V30 206 H -1.877288 3.971586 -0.252832 0
M  V30 207 H -1.957859 2.418269 0.532859 0
M  V30 208 H 1.437089 5.658617 1.695035 0
M  V30 209 H 2.439364 4.547059 0.748925 0
M  V30 210 H 2.340108 5.864947 -1.223565 0
M  V30 211 H 2.911423 6.851981 0.218958 0
M  V30 212 H 0.198519 7.081894 -1.210692 0
M  V30 213 H 1.339525 8.823794 0.931430 0
M  V30 214 H 0.071172 7.565966 1.332485 0
M  V30 215 H -0.856749 9.759983 0.844605 0
M  V30 216 H -1.461256 8.463918 -0.221976 0
M  V30 217 H -1.041041 10.347451 -1.655866 0
M  V30 218 H 0.389876 10.838510 -0.726389 0
M  V30 219 H 1.081579 10.009438 -2.864926 0
M  V30 220 H 0.005455 8.532753 -2.707650 0
M  V30 221 H 2.227904 7.805649 -2.349755 0
M  V30 222 H 2.493526 9.017530 -0.963256 0
M  V30 223 H 0.302352 2.687348 2.601262 0
M  V30 224 H -0.478012 1.442804 1.588491 0
M  V30 225 H 2.410291 2.117039 1.759808 0
M  V30 226 H 1.385077 2.358098 -0.691235 0
M  V30 227 H 0.831446 0.677108 -0.508829 0
M  V30 228 H 3.619294 2.965228 -0.742430 0
M  V30 229 H 5.731630 2.569290 -1.766126 0
M  V30 230 H 6.384412 0.339695 -2.457442 0
M  V30 231 H 4.883474 -1.486439 -2.097522 0
M  V30 232 H 2.591891 -1.141347 -0.998528 0
M  V30 233 H 1.111639 -0.526720 1.190606 0
M  V30 234 H -0.421821 -2.215157 2.785006 0
M  V30 235 H -0.816409 -4.514498 3.269033 0
M  V30 236 H 2.691445 -4.941297 4.449192 0
M  V30 237 H 3.293702 -2.670846 4.052668 0
M  V30 238 H -0.261221 -6.481631 4.990406 0
M  V30 239 H 1.422955 -7.054291 4.705044 0
M  V30 240 H 0.487650 -8.630353 0.870585 0
M  V30 241 H 1.816812 -8.826510 2.005101 0
M  V30 242 H 2.441487 -6.418983 1.541977 0
M  V30 243 H 2.517960 -7.456710 0.119560 0
M  V30 END ATOM
M  V30 BEGIN BOND
M  V30 1 1 1 2
M  V30 2 2 2 3
M  V30 3 1 2 4
M  V30 4 1 4 5
M  V30 5 1 5 6
M  V30 6 1 6 7
M  V30 7 1 7 8
M  V30 8 1 8 9
M  V30 9 1 9 10
M  V30 10 2 10 11
M  V30 11 1 10 12
M  V30 12 1 12 13
M  V30 13 2 13 14
M  V30 14 1 14 15
M  V30 15 2 15 16
M  V30 16 1 16 17
M  V30 17 2 17 18
M  V30 18 1 18 19
M  V30 19 2 19 20
M  V30 20 1 20 21
M  V30 21 2 21 22
M  V30 22 1 21 23
M  V30 23 2 23 24
M  V30 24 1 24 25
M  V30 25 1 25 26
M  V30 26 2 26 27
M  V30 27 1 27 28
M  V30 28 1 28 29
M  V30 29 2 28 30
M  V30 30 1 30 31
M  V30 31 2 31 32
M  V30 32 1 16 33
M  V30 33 1 33 34
M  V30 34 2 34 35
M  V30 35 1 34 36
M  V30 36 2 33 37
M  V30 37 1 4 38
M  V30 38 1 38 39
M  V30 39 2 39 40
M  V30 40 1 39 41
M  V30 41 1 41 42
M  V30 42 1 42 43
M  V30 43 1 43 44
M  V30 44 1 44 45
M  V30 45 1 45 46
M  V30 46 2 46 47
M  V30 47 1 47 48
M  V30 48 2 48 49
M  V30 49 1 49 50
M  V30 50 2 50 51
M  V30 51 1 44 52
M  V30 52 1 52 53
M  V30 53 2 53 54
M  V30 54 1 53 55
M  V30 55 1 55 56
M  V30 56 1 56 57
M  V30 57 2 57 58
M  V30 58 1 57 59
M  V30 59 1 59 60
M  V30 60 1 60 61
M  V30 61 2 61 62
M  V30 62 1 61 63
M  V30 63 1 56 64
M  V30 64 1 64 65
M  V30 65 1 65 66
M  V30 66 1 66 67
M  V30 67 1 67 68
M  V30 68 2 68 69
M  V30 69 1 68 70
M  V30 70 1 65 71
M  V30 71 1 71 72
M  V30 72 2 72 73
M  V30 73 1 72 74
M  V30 74 1 74 75
M  V30 75 1 75 76
M  V30 76 2 76 77
M  V30 77 1 76 78
M  V30 78 1 78 79
M  V30 79 1 79 80
M  V30 80 2 80 81
M  V30 81 1 81 82
M  V30 82 2 82 83
M  V30 83 1 83 84
M  V30 84 1 83 85
M  V30 85 1 85 86
M  V30 86 1 86 87
M  V30 87 1 75 88
M  V30 88 1 88 89
M  V30 89 1 89 90
M  V30 90 1 90 91
M  V30 91 1 91 92
M  V30 92 2 92 93
M  V30 93 1 92 94
M  V30 94 1 89 95
M  V30 95 1 95 96
M  V30 96 2 96 97
M  V30 97 1 96 98
M  V30 98 1 98 99
M  V30 99 1 99 100
M  V30 100 2 100 101
M  V30 101 1 100 102
M  V30 102 1 102 103
M  V30 103 1 103 104
M  V30 104 1 104 105
M  V30 105 1 105 106
M  V30 106 1 106 107
M  V30 107 1 107 108
M  V30 108 1 108 109
M  V30 109 1 99 110
M  V30 110 1 110 111
M  V30 111 1 111 112
M  V30 112 1 112 113
M  V30 113 2 113 114
M  V30 114 1 114 115
M  V30 115 2 115 116
M  V30 116 1 116 117
M  V30 117 2 117 118
M  V30 118 1 111 119
M  V30 119 1 119 120
M  V30 120 2 120 121
M  V30 121 1 120 122
M  V30 122 2 122 123
M  V30 123 1 123 124
M  V30 124 2 124 125
M  V30 125 1 125 126
M  V30 126 2 126 127
M  V30 127 1 125 128
M  V30 128 1 128 129
M  V30 129 1 129 130
M  V30 130 1 130 131
M  V30 131 1 131 132
M  V30 132 2 132 133
M  V30 133 1 37 13
M  V30 134 1 132 42
M  V30 135 1 32 17
M  V30 136 1 51 46
M  V30 137 2 84 79
M  V30 138 1 109 104
M  V30 139 1 118 113
M  V30 140 1 127 122
M  V30 141 1 24 18
M  V30 142 1 32 26
M  V30 143 1 87 82
M  V30 144 1 1 134
M  V30 145 1 1 135
M  V30 146 1 4 136 CFG=3
M  V30 147 1 5 137
M  V30 148 1 5 138
M  V30 149 1 6 139
M  V30 150 1 6 140
M  V30 151 1 7 141
M  V30 152 1 7 142
M  V30 153 1 8 143
M  V30 154 1 8 144
M  V30 155 1 9 145
M  V30 156 1 12 146
M  V30 157 1 14 147
M  V30 158 1 15 148
M  V30 159 1 19 149
M  V30 160 1 20 150
M  V30 161 1 23 151
M  V30 162 1 27 152
M  V30 163 1 29 153
M  V30 164 1 30 154
M  V30 165 1 31 155
M  V30 166 1 36 156
M  V30 167 1 37 157
M  V30 168 1 38 158
M  V30 169 1 41 159
M  V30 170 1 41 160
M  V30 171 1 43 161
M  V30 172 1 43 162
M  V30 173 1 44 163 CFG=3
M  V30 174 1 45 164
M  V30 175 1 45 165
M  V30 176 1 47 166
M  V30 177 1 48 167
M  V30 178 1 49 168
M  V30 179 1 50 169
M  V30 180 1 51 170
M  V30 181 1 52 171
M  V30 182 1 55 172
M  V30 183 1 55 173
M  V30 184 1 59 174
M  V30 185 1 59 175
M  V30 186 1 60 176
M  V30 187 1 60 177
M  V30 188 1 63 178
M  V30 189 1 64 179
M  V30 190 1 64 180
M  V30 191 1 65 181 CFG=3
M  V30 192 1 66 182
M  V30 193 1 66 183
M  V30 194 1 67 184
M  V30 195 1 67 185
M  V30 196 1 70 186
M  V30 197 1 71 187
M  V30 198 1 74 188
M  V30 199 1 74 189
M  V30 200 1 78 190
M  V30 201 1 78 191
M  V30 202 1 80 192
M  V30 203 1 81 193
M  V30 204 1 84 194
M  V30 205 1 86 195
M  V30 206 1 86 196
M  V30 207 1 88 197
M  V30 208 1 88 198
M  V30 209 1 89 199 CFG=1
M  V30 210 1 90 200
M  V30 211 1 90 201
M  V30 212 1 91 202
M  V30 213 1 91 203
M  V30 214 1 94 204
M  V30 215 1 95 205
M  V30 216 1 98 206
M  V30 217 1 98 207
M  V30 218 1 102 208
M  V30 219 1 102 209
M  V30 220 1 103 210
M  V30 221 1 103 211
M  V30 222 1 104 212
M  V30 223 1 105 213
M  V30 224 1 105 214
M  V30 225 1 106 215
M  V30 226 1 106 216
M  V30 227 1 107 217
M  V30 228 1 107 218
M  V30 229 1 108 219
M  V30 230 1 108 220
M  V30 231 1 109 221
M  V30 232 1 109 222
M  V30 233 1 110 223
M  V30 234 1 110 224
M  V30 235 1 111 225 CFG=1
M  V30 236 1 112 226
M  V30 237 1 112 227
M  V30 238 1 114 228
M  V30 239 1 115 229
M  V30 240 1 116 230
M  V30 241 1 117 231
M  V30 242 1 118 232
M  V30 243 1 119 233
M  V30 244 1 123 234
M  V30 245 1 124 235
M  V30 246 1 126 236
M  V30 247 1 127 237
M  V30 248 1 128 238
M  V30 249 1 128 239
M  V30 250 1 130 240
M  V30 251 1 130 241
M  V30 252 1 131 242
M  V30 253 1 131 243
M  V30 END BOND
M  V30 END CTAB
M  END
>  <Dataset>  (594) 
ChEMBL_Kinases

>  <Ligand_Instance>  (594) 
nan

>  <PDB_ID>  (594) 
nan

>  <Standardized_SMILES>  (594) 
NC(=O)[C@H](CCCCNC(=S)Nc1ccc(-c2c3ccc(=O)cc-3oc3cc(O)ccc23)c(C(=O)O)c1)NC(=O)CN1C[C@H](Cc2ccccc2)NC(=O)CN(C(=O)CCC(=O)O)C[C@H](CCC(=O)O)NC(=O)CN(C(=O)Cc2ccc3c(c2)OCO3)C[C@H](CCC(=O)O)NC(=O)CN(C(=O)CCC2CCCCC2)C[C@H](Cc2ccccc2)NC(=O)c2ccc(cc2)CSCCC1=O

>  <Name>  (594) 
nan

>  <Pocket>  (594) 
nan

>  <ATP_Site>  (594) 
nan

>  <Peripheral>  (594) 
nan

>  <Num_H_Atoms_ProtBoundConf>  (594) 
nan

>  <Num_Resolved_Atoms>  (594) 
nan

>  <Num_Not_Resolved_Atoms>  (594) 
nan

$$$$
CHEMBL4071040
     RDKit          3D

  0  0  0  0  0  0  0  0  0  0999 V3000
M  V30 BEGIN CTAB
M  V30 COUNTS 50 53 0 0 0
M  V30 BEGIN ATOM
M  V30 1 C 5.128049 -2.191287 2.872093 0
M  V30 2 O 6.417596 -1.811082 3.039192 0
M  V30 3 C 6.772219 -0.514897 2.910280 0
M  V30 4 C 6.539313 0.136224 1.580741 0
M  V30 5 N 5.188500 0.176458 1.138522 0
M  V30 6 C 4.232417 0.845438 1.944123 0
M  V30 7 O 4.482423 1.424099 3.049442 0
M  V30 8 C 2.835057 0.879610 1.473925 0
M  V30 9 C 1.841411 1.507880 2.195742 0
M  V30 10 C 0.539030 1.527390 1.737022 0
M  V30 11 C 0.182642 0.918554 0.538334 0
M  V30 12 O -1.148930 1.001693 0.178588 0
M  V30 13 C -1.959826 -0.102547 0.027853 0
M  V30 14 S -1.382333 -1.814280 0.311516 0
M  V30 15 C -2.999758 -2.619398 -0.087973 0
M  V30 16 C -3.152272 -4.013484 -0.032627 0
M  V30 17 N -2.079349 -4.864621 0.330104 0
M  V30 18 O -4.136436 -4.751731 -0.258162 0
M  V30 19 C -3.815202 -1.509209 -0.396374 0
M  V30 20 C -3.280759 -0.253348 -0.334078 0
M  V30 21 C -4.140598 0.896975 -0.653034 0
M  V30 22 S -3.910836 2.564491 -0.701971 0
M  V30 23 N -5.631009 3.041810 -1.212678 0
M  V30 24 C -6.211693 1.660607 -1.280778 0
M  V30 25 C -5.441171 0.576875 -0.993169 0
M  V30 26 C -6.115470 -0.722388 -1.090926 0
M  V30 27 C -5.195911 -1.817756 -0.765078 0
M  V30 28 C 1.208600 0.304743 -0.147187 0
M  V30 29 C 0.886774 -0.338948 -1.429653 0
M  V30 30 N 2.471318 0.296350 0.316487 0
M  V30 31 H 5.078507 -3.311220 3.064456 0
M  V30 32 H 4.804953 -1.999036 1.822994 0
M  V30 33 H 4.390880 -1.738661 3.570690 0
M  V30 34 H 6.302270 0.127085 3.731249 0
M  V30 35 H 7.867823 -0.430582 3.131279 0
M  V30 36 H 7.231724 -0.322653 0.837150 0
M  V30 37 H 6.872908 1.202266 1.694658 0
M  V30 38 H 4.854112 -0.263358 0.228301 0
M  V30 39 H 2.129994 1.978863 3.127935 0
M  V30 40 H -0.171810 2.049003 2.379492 0
M  V30 41 H -1.821116 -5.009564 1.331827 0
M  V30 42 H -1.560518 -5.231925 1.181591 0
M  V30 43 H -7.197848 1.979548 -1.576629 0
M  V30 44 H -6.642182 -0.872265 -2.081141 0
M  V30 45 H -6.987337 -0.780614 -0.360377 0
M  V30 46 H -5.140131 -2.471026 -1.703999 0
M  V30 47 H -5.693082 -2.513030 -0.037198 0
M  V30 48 H 1.008724 -1.444203 -1.424775 0
M  V30 49 H -0.123991 -0.114368 -1.785192 0
M  V30 50 H 1.573844 0.090081 -2.223325 0
M  V30 END ATOM
M  V30 BEGIN BOND
M  V30 1 1 1 2
M  V30 2 1 2 3
M  V30 3 1 3 4
M  V30 4 1 4 5
M  V30 5 1 5 6
M  V30 6 2 6 7
M  V30 7 1 6 8
M  V30 8 2 8 9
M  V30 9 1 9 10
M  V30 10 2 10 11
M  V30 11 1 11 12
M  V30 12 1 12 13
M  V30 13 1 13 14
M  V30 14 1 14 15
M  V30 15 1 15 16
M  V30 16 1 16 17
M  V30 17 2 16 18
M  V30 18 2 15 19
M  V30 19 1 19 20
M  V30 20 1 20 21
M  V30 21 1 21 22
M  V30 22 1 22 23
M  V30 23 2 23 24
M  V30 24 1 24 25
M  V30 25 1 25 26
M  V30 26 1 26 27
M  V30 27 1 11 28
M  V30 28 1 28 29
M  V30 29 2 28 30
M  V30 30 1 30 8
M  V30 31 2 20 13
M  V30 32 2 25 21
M  V30 33 1 27 19
M  V30 34 1 1 31
M  V30 35 1 1 32
M  V30 36 1 1 33
M  V30 37 1 3 34
M  V30 38 1 3 35
M  V30 39 1 4 36
M  V30 40 1 4 37
M  V30 41 1 5 38
M  V30 42 1 9 39
M  V30 43 1 10 40
M  V30 44 1 17 41
M  V30 45 1 17 42
M  V30 46 1 24 43
M  V30 47 1 26 44
M  V30 48 1 26 45
M  V30 49 1 27 46
M  V30 50 1 27 47
M  V30 51 1 29 48
M  V30 52 1 29 49
M  V30 53 1 29 50
M  V30 END BOND
M  V30 END CTAB
M  END
>  <Dataset>  (595) 
ChEMBL_Kinases

>  <Ligand_Instance>  (595) 
nan

>  <PDB_ID>  (595) 
nan

>  <Standardized_SMILES>  (595) 
COCCNC(=O)c1ccc(Oc2sc(C(N)=O)c3c2-c2sncc2CC3)c(C)n1

>  <Name>  (595) 
nan

>  <Pocket>  (595) 
nan

>  <ATP_Site>  (595) 
nan

>  <Peripheral>  (595) 
nan

>  <Num_H_Atoms_ProtBoundConf>  (595) 
nan

>  <Num_Resolved_Atoms>  (595) 
nan

>  <Num_Not_Resolved_Atoms>  (595) 
nan

$$$$
CHEMBL4860306
     RDKit          3D

  0  0  0  0  0  0  0  0  0  0999 V3000
M  V30 BEGIN CTAB
M  V30 COUNTS 55 57 0 0 0
M  V30 BEGIN ATOM
M  V30 1 C 0.878502 -2.385288 4.685479 0
M  V30 2 C 2.351725 -2.477403 4.336413 0
M  V30 3 C 3.157224 -1.741519 5.410094 0
M  V30 4 C 2.539774 -1.765301 3.038445 0
M  V30 5 C 1.717558 -2.391875 1.944257 0 CFG=1
M  V30 6 N 1.979804 -1.620053 0.736669 0
M  V30 7 C 0.920788 -0.900416 0.117248 0
M  V30 8 O -0.297537 -0.788589 0.430437 0
M  V30 9 C 0.976709 -0.063618 -1.103238 0
M  V30 10 N 2.343405 -0.098605 -1.583808 0
M  V30 11 C 0.644344 1.378921 -0.831489 0
M  V30 12 C -0.347841 1.925814 -1.826557 0
M  V30 13 N -1.562719 1.101627 -1.718014 0
M  V30 14 C -2.744952 1.729958 -1.285664 0
M  V30 15 N -2.638263 2.979058 -0.760136 0
M  V30 16 C -3.695914 3.657340 -0.294845 0
M  V30 17 N -4.938302 3.148177 -0.315977 0
M  V30 18 C -5.142206 1.918874 -0.817977 0
M  V30 19 N -6.226781 1.143426 -0.988729 0
M  V30 20 C -5.846071 -0.013516 -1.559533 0
M  V30 21 C -4.502289 0.050282 -1.743667 0
M  V30 22 C -4.031329 1.255698 -1.285293 0
M  V30 23 C -1.335861 -0.283504 -2.068706 0
M  V30 24 C 0.119524 -0.649010 -2.195480 0
M  V30 25 C 2.053399 -3.819085 1.734519 0
M  V30 26 O 1.994648 -4.854409 2.481682 0
M  V30 27 N 2.561417 -4.224980 0.448111 0
M  V30 28 O 2.845413 -5.535457 0.328077 0
M  V30 29 H 0.812470 -2.229890 5.785119 0
M  V30 30 H 0.347618 -3.313353 4.443345 0
M  V30 31 H 0.405806 -1.523908 4.192139 0
M  V30 32 H 2.683517 -3.513998 4.268088 0
M  V30 33 H 3.148969 -0.655600 5.231868 0
M  V30 34 H 2.627103 -1.914360 6.354764 0
M  V30 35 H 4.188395 -2.124701 5.473841 0
M  V30 36 H 2.262788 -0.705413 3.086644 0
M  V30 37 H 3.601328 -1.799910 2.691932 0
M  V30 38 H 0.655338 -2.267019 2.178929 0
M  V30 39 H 2.900212 -1.532139 0.253125 0
M  V30 40 H 2.457372 -0.845482 -2.284262 0
M  V30 41 H 2.691215 0.827676 -1.884841 0
M  V30 42 H 1.519261 2.053397 -0.830505 0
M  V30 43 H 0.179623 1.438891 0.169240 0
M  V30 44 H 0.051872 1.922424 -2.864019 0
M  V30 45 H -0.612601 2.965755 -1.571127 0
M  V30 46 H -3.521335 4.662960 0.114184 0
M  V30 47 H -7.195760 1.418240 -0.714231 0
M  V30 48 H -6.522643 -0.818839 -1.808093 0
M  V30 49 H -3.962644 -0.741118 -2.185228 0
M  V30 50 H -1.803526 -0.447355 -3.055869 0
M  V30 51 H -1.831875 -0.978012 -1.351977 0
M  V30 52 H 0.500134 -0.389844 -3.204536 0
M  V30 53 H 0.188306 -1.753607 -2.110854 0
M  V30 54 H 2.711997 -3.577572 -0.357646 0
M  V30 55 H 3.687974 -5.774709 0.774902 0
M  V30 END ATOM
M  V30 BEGIN BOND
M  V30 1 1 1 2
M  V30 2 1 2 3
M  V30 3 1 2 4
M  V30 4 1 4 5
M  V30 5 1 5 6
M  V30 6 1 6 7
M  V30 7 2 7 8
M  V30 8 1 7 9
M  V30 9 1 9 10
M  V30 10 1 9 11
M  V30 11 1 11 12
M  V30 12 1 12 13
M  V30 13 1 13 14
M  V30 14 2 14 15
M  V30 15 1 15 16
M  V30 16 2 16 17
M  V30 17 1 17 18
M  V30 18 1 18 19
M  V30 19 1 19 20
M  V30 20 2 20 21
M  V30 21 1 21 22
M  V30 22 1 13 23
M  V30 23 1 23 24
M  V30 24 1 5 25
M  V30 25 2 25 26
M  V30 26 1 25 27
M  V30 27 1 27 28
M  V30 28 1 24 9
M  V30 29 1 22 14
M  V30 30 2 22 18
M  V30 31 1 1 29
M  V30 32 1 1 30
M  V30 33 1 1 31
M  V30 34 1 2 32
M  V30 35 1 3 33
M  V30 36 1 3 34
M  V30 37 1 3 35
M  V30 38 1 4 36
M  V30 39 1 4 37
M  V30 40 1 5 38 CFG=1
M  V30 41 1 6 39
M  V30 42 1 10 40
M  V30 43 1 10 41
M  V30 44 1 11 42
M  V30 45 1 11 43
M  V30 46 1 12 44
M  V30 47 1 12 45
M  V30 48 1 16 46
M  V30 49 1 19 47
M  V30 50 1 20 48
M  V30 51 1 21 49
M  V30 52 1 23 50
M  V30 53 1 23 51
M  V30 54 1 24 52
M  V30 55 1 24 53
M  V30 56 1 27 54
M  V30 57 1 28 55
M  V30 END BOND
M  V30 END CTAB
M  END
>  <Dataset>  (596) 
ChEMBL_Kinases

>  <Ligand_Instance>  (596) 
nan

>  <PDB_ID>  (596) 
nan

>  <Standardized_SMILES>  (596) 
CC(C)C[C@@H](NC(=O)C1(N)CCN(c2ncnc3[nH]ccc23)CC1)C(=O)NO

>  <Name>  (596) 
nan

>  <Pocket>  (596) 
nan

>  <ATP_Site>  (596) 
nan

>  <Peripheral>  (596) 
nan

>  <Num_H_Atoms_ProtBoundConf>  (596) 
nan

>  <Num_Resolved_Atoms>  (596) 
nan

>  <Num_Not_Resolved_Atoms>  (596) 
nan

$$$$
CHEMBL4860336
     RDKit          3D

  0  0  0  0  0  0  0  0  0  0999 V3000
M  V30 BEGIN CTAB
M  V30 COUNTS 46 48 0 0 0
M  V30 BEGIN ATOM
M  V30 1 C -0.918085 -2.064774 2.324514 0
M  V30 2 N -1.943043 -2.880015 1.733685 0
M  V30 3 C -2.246927 -2.725234 0.369769 0
M  V30 4 N -1.619001 -1.842677 -0.418107 0
M  V30 5 C -1.878886 -1.665354 -1.718493 0
M  V30 6 N -1.227163 -0.737624 -2.572660 0
M  V30 7 C -0.190787 0.180216 -2.276052 0
M  V30 8 C 0.332324 1.026049 -3.232810 0
M  V30 9 N 1.313997 1.903376 -2.978279 0
M  V30 10 C 1.872584 2.031025 -1.760693 0
M  V30 11 C 2.918785 2.994857 -1.574211 0
M  V30 12 N 3.772518 3.772169 -1.441868 0
M  V30 13 C 1.407109 1.219832 -0.740317 0
M  V30 14 O 2.015647 1.399889 0.467605 0
M  V30 15 C 1.777249 0.747093 1.671111 0 CFG=2
M  V30 16 C 1.391405 1.728818 2.784643 0
M  V30 17 C 2.042484 1.298086 4.086827 0
M  V30 18 C 3.551499 1.328012 4.022597 0
M  V30 19 N 3.929319 1.011814 2.654166 0
M  V30 20 C 3.017049 0.013770 2.186210 0
M  V30 21 C 0.399692 0.334105 -1.043618 0
M  V30 22 N -2.839185 -2.441183 -2.234208 0
M  V30 23 C -3.521010 -3.347103 -1.535955 0
M  V30 24 C -3.226958 -3.501924 -0.201788 0
M  V30 25 C -3.993627 -4.515639 0.567446 0
M  V30 26 F -4.917887 -5.163117 -0.224904 0
M  V30 27 F -3.097029 -5.400950 1.107145 0
M  V30 28 F -4.634619 -3.867007 1.625125 0
M  V30 29 H 0.092818 -2.279331 1.906105 0
M  V30 30 H -1.117599 -0.977877 2.211816 0
M  V30 31 H -0.835490 -2.227142 3.430769 0
M  V30 32 H -2.433141 -3.559940 2.321961 0
M  V30 33 H -1.545108 -0.707677 -3.589072 0
M  V30 34 H -0.034844 1.017581 -4.251206 0
M  V30 35 H 0.984340 -0.006465 1.584179 0
M  V30 36 H 0.293532 1.692248 2.984410 0
M  V30 37 H 1.732575 2.757096 2.573449 0
M  V30 38 H 1.654415 0.324514 4.454646 0
M  V30 39 H 1.751646 2.035742 4.865614 0
M  V30 40 H 3.983474 2.296499 4.357246 0
M  V30 41 H 4.020838 0.541746 4.658756 0
M  V30 42 H 4.933426 0.744679 2.552006 0
M  V30 43 H 3.435728 -0.654505 1.408559 0
M  V30 44 H 2.702220 -0.660475 3.008376 0
M  V30 45 H 0.078335 -0.270802 -0.210419 0
M  V30 46 H -4.296320 -3.948871 -2.026174 0
M  V30 END ATOM
M  V30 BEGIN BOND
M  V30 1 1 1 2
M  V30 2 1 2 3
M  V30 3 2 3 4
M  V30 4 1 4 5
M  V30 5 1 5 6
M  V30 6 1 6 7
M  V30 7 2 7 8
M  V30 8 1 8 9
M  V30 9 2 9 10
M  V30 10 1 10 11
M  V30 11 3 11 12
M  V30 12 1 10 13
M  V30 13 1 13 14
M  V30 14 1 14 15
M  V30 15 1 15 16
M  V30 16 1 16 17
M  V30 17 1 17 18
M  V30 18 1 18 19
M  V30 19 1 19 20
M  V30 20 2 13 21
M  V30 21 2 5 22
M  V30 22 1 22 23
M  V30 23 2 23 24
M  V30 24 1 24 25
M  V30 25 1 25 26
M  V30 26 1 25 27
M  V30 27 1 25 28
M  V30 28 1 24 3
M  V30 29 1 21 7
M  V30 30 1 20 15
M  V30 31 1 1 29
M  V30 32 1 1 30
M  V30 33 1 1 31
M  V30 34 1 2 32
M  V30 35 1 6 33
M  V30 36 1 8 34
M  V30 37 1 15 35 CFG=3
M  V30 38 1 16 36
M  V30 39 1 16 37
M  V30 40 1 17 38
M  V30 41 1 17 39
M  V30 42 1 18 40
M  V30 43 1 18 41
M  V30 44 1 19 42
M  V30 45 1 20 43
M  V30 46 1 20 44
M  V30 47 1 21 45
M  V30 48 1 23 46
M  V30 END BOND
M  V30 END CTAB
M  END
>  <Dataset>  (597) 
ChEMBL_Kinases

>  <Ligand_Instance>  (597) 
nan

>  <PDB_ID>  (597) 
nan

>  <Standardized_SMILES>  (597) 
CNc1nc(Nc2cnc(C#N)c(O[C@@H]3CCCNC3)c2)ncc1C(F)(F)F

>  <Name>  (597) 
nan

>  <Pocket>  (597) 
nan

>  <ATP_Site>  (597) 
nan

>  <Peripheral>  (597) 
nan

>  <Num_H_Atoms_ProtBoundConf>  (597) 
nan

>  <Num_Resolved_Atoms>  (597) 
nan

>  <Num_Not_Resolved_Atoms>  (597) 
nan

$$$$
CHEMBL4860340
     RDKit          3D

  0  0  0  0  0  0  0  0  0  0999 V3000
M  V30 BEGIN CTAB
M  V30 COUNTS 46 47 0 0 0
M  V30 BEGIN ATOM
M  V30 1 C -1.073040 -3.687908 4.210034 0
M  V30 2 N -0.556307 -2.469140 3.614584 0
M  V30 3 C -0.570881 -2.654785 2.163541 0 CFG=2
M  V30 4 C 0.305077 -3.831330 1.871126 0
M  V30 5 C 0.419821 -4.185957 0.410182 0
M  V30 6 C -0.938439 -4.519641 -0.159124 0
M  V30 7 C 1.285145 -5.446475 0.362980 0
M  V30 8 C -0.135825 -1.414489 1.514951 0
M  V30 9 O -0.052988 -1.288125 0.267104 0
M  V30 10 N 0.237409 -0.225252 2.240692 0
M  V30 11 C 0.616095 0.822884 1.354461 0
M  V30 12 C 1.902872 1.036853 0.904005 0
M  V30 13 C 2.177623 2.089400 0.037584 0
M  V30 14 C 1.204120 2.958940 -0.410644 0
M  V30 15 C 1.599125 4.028762 -1.317057 0
M  V30 16 C 0.879568 5.032613 -1.924639 0
M  V30 17 N 1.712547 5.773309 -2.676868 0
M  V30 18 C 2.942845 5.215549 -2.524346 0
M  V30 19 O 2.836301 4.194856 -1.719797 0
M  V30 20 C -0.086377 2.760017 0.029135 0
M  V30 21 O -1.094095 3.604319 -0.392157 0
M  V30 22 C -2.400688 3.380966 0.069907 0
M  V30 23 C -0.334108 1.708853 0.888472 0
M  V30 24 H -1.597920 -3.436517 5.170139 0
M  V30 25 H -1.774250 -4.171906 3.494073 0
M  V30 26 H -0.254571 -4.427063 4.391241 0
M  V30 27 H 0.451157 -2.413510 3.888757 0
M  V30 28 H -1.618166 -2.935101 1.920508 0
M  V30 29 H -0.136320 -4.719585 2.373593 0
M  V30 30 H 1.304887 -3.680435 2.324081 0
M  V30 31 H 0.887934 -3.419056 -0.216219 0
M  V30 32 H -0.809616 -5.361651 -0.857735 0
M  V30 33 H -1.611459 -4.817147 0.697228 0
M  V30 34 H -1.389293 -3.656288 -0.685830 0
M  V30 35 H 1.687407 -5.625595 -0.638772 0
M  V30 36 H 2.068903 -5.375961 1.146435 0
M  V30 37 H 0.612084 -6.279213 0.653770 0
M  V30 38 H 0.192616 -0.257838 3.280612 0
M  V30 39 H 2.670500 0.368663 1.244080 0
M  V30 40 H 3.231372 2.161585 -0.252483 0
M  V30 41 H -0.178307 5.188607 -1.808246 0
M  V30 42 H 3.915394 5.461159 -2.928950 0
M  V30 43 H -2.714681 2.318993 -0.081684 0
M  V30 44 H -3.146685 4.028113 -0.442461 0
M  V30 45 H -2.425437 3.562577 1.169518 0
M  V30 46 H -1.353053 1.556480 1.232120 0
M  V30 END ATOM
M  V30 BEGIN BOND
M  V30 1 1 1 2
M  V30 2 1 2 3
M  V30 3 1 3 4
M  V30 4 1 4 5
M  V30 5 1 5 6
M  V30 6 1 5 7
M  V30 7 1 3 8
M  V30 8 2 8 9
M  V30 9 1 8 10
M  V30 10 1 10 11
M  V30 11 2 11 12
M  V30 12 1 12 13
M  V30 13 2 13 14
M  V30 14 1 14 15
M  V30 15 2 15 16
M  V30 16 1 16 17
M  V30 17 2 17 18
M  V30 18 1 18 19
M  V30 19 1 14 20
M  V30 20 1 20 21
M  V30 21 1 21 22
M  V30 22 2 20 23
M  V30 23 1 23 11
M  V30 24 1 19 15
M  V30 25 1 1 24
M  V30 26 1 1 25
M  V30 27 1 1 26
M  V30 28 1 2 27
M  V30 29 1 3 28 CFG=3
M  V30 30 1 4 29
M  V30 31 1 4 30
M  V30 32 1 5 31
M  V30 33 1 6 32
M  V30 34 1 6 33
M  V30 35 1 6 34
M  V30 36 1 7 35
M  V30 37 1 7 36
M  V30 38 1 7 37
M  V30 39 1 10 38
M  V30 40 1 12 39
M  V30 41 1 13 40
M  V30 42 1 16 41
M  V30 43 1 18 42
M  V30 44 1 22 43
M  V30 45 1 22 44
M  V30 46 1 22 45
M  V30 47 1 23 46
M  V30 END BOND
M  V30 END CTAB
M  END
>  <Dataset>  (598) 
ChEMBL_Kinases

>  <Ligand_Instance>  (598) 
nan

>  <PDB_ID>  (598) 
nan

>  <Standardized_SMILES>  (598) 
CN[C@H](CC(C)C)C(=O)Nc1ccc(-c2cnco2)c(OC)c1

>  <Name>  (598) 
nan

>  <Pocket>  (598) 
nan

>  <ATP_Site>  (598) 
nan

>  <Peripheral>  (598) 
nan

>  <Num_H_Atoms_ProtBoundConf>  (598) 
nan

>  <Num_Resolved_Atoms>  (598) 
nan

>  <Num_Not_Resolved_Atoms>  (598) 
nan

$$$$
CHEMBL4070968
     RDKit          3D

  0  0  0  0  0  0  0  0  0  0999 V3000
M  V30 BEGIN CTAB
M  V30 COUNTS 60 64 0 0 0
M  V30 BEGIN ATOM
M  V30 1 C 4.820418 -2.570008 6.072840 0
M  V30 2 O 5.222572 -1.213117 6.093617 0
M  V30 3 C 4.835192 -0.420043 5.016126 0
M  V30 4 C 5.208016 0.908167 5.000017 0
M  V30 5 C 4.825433 1.711993 3.925500 0
M  V30 6 C 4.081753 1.194103 2.884371 0
M  V30 7 C 3.701898 -0.126564 2.884386 0
M  V30 8 C 2.918709 -0.775943 1.840153 0
M  V30 9 C 2.463476 -0.123176 0.714180 0
M  V30 10 C 1.724113 -0.691969 -0.294069 0
M  V30 11 C 1.283404 0.076224 -1.452989 0
M  V30 12 O 1.918863 0.211060 -2.513816 0
M  V30 13 N 0.010846 0.726585 -1.352295 0
M  V30 14 C -0.873580 0.687931 -0.203625 0
M  V30 15 C -2.285866 0.321906 -0.580024 0
M  V30 16 N -2.495105 0.113662 -1.953810 0
M  V30 17 C -3.359736 -0.895686 -2.366532 0
M  V30 18 C -4.767973 -0.826804 -1.930928 0
M  V30 19 C -5.705082 -0.161007 -2.703799 0
M  V30 20 C -7.040962 -0.063128 -2.346422 0
M  V30 21 C -7.397630 -0.674325 -1.158569 0
M  V30 22 C -6.501413 -1.353860 -0.346088 0
M  V30 23 C -5.176981 -1.420185 -0.753026 0
M  V30 24 C -1.771000 0.832722 -2.912716 0
M  V30 25 C -0.544538 1.521413 -2.431700 0
M  V30 26 C 1.400182 -2.028583 -0.188057 0
M  V30 27 C 0.662290 -2.654982 -1.164639 0
M  V30 28 C 0.368683 -4.009921 -0.996227 0
M  V30 29 C 0.824459 -4.679629 0.139239 0
M  V30 30 C 1.571493 -4.019525 1.114849 0
M  V30 31 C 1.856017 -2.679681 0.938145 0
M  V30 32 N 2.576560 -2.075799 1.895741 0
M  V30 33 C 4.093696 -0.897713 3.958577 0
M  V30 34 H 5.187930 -2.993793 5.094704 0
M  V30 35 H 5.274238 -3.150606 6.901561 0
M  V30 36 H 3.716730 -2.679298 6.018790 0
M  V30 37 H 5.788780 1.286440 5.826239 0
M  V30 38 H 5.129247 2.748211 3.935567 0
M  V30 39 H 3.780979 1.809010 2.048167 0
M  V30 40 H 2.686295 0.925912 0.575905 0
M  V30 41 H -0.856518 1.733444 0.201855 0
M  V30 42 H -0.450533 0.054101 0.605926 0
M  V30 43 H -2.990616 1.032182 -0.082903 0
M  V30 44 H -2.488613 -0.650258 -0.059842 0
M  V30 45 H -3.379399 -0.929084 -3.475785 0
M  V30 46 H -2.932751 -1.892083 -2.070393 0
M  V30 47 H -5.444983 0.329032 -3.646039 0
M  V30 48 H -7.786038 0.451474 -2.935607 0
M  V30 49 H -8.441543 -0.614384 -0.851005 0
M  V30 50 H -6.852148 -1.808659 0.571359 0
M  V30 51 H -4.507228 -1.950611 -0.107076 0
M  V30 52 H -1.445391 0.100798 -3.708889 0
M  V30 53 H -2.382561 1.580291 -3.496935 0
M  V30 54 H 0.230217 1.541505 -3.237782 0
M  V30 55 H -0.762103 2.554744 -2.083383 0
M  V30 56 H 0.352249 -2.058514 -2.008043 0
M  V30 57 H -0.207028 -4.446368 -1.784498 0
M  V30 58 H 0.565386 -5.741777 0.220629 0
M  V30 59 H 1.902071 -4.592778 1.982530 0
M  V30 60 H 3.821799 -1.928013 4.001406 0
M  V30 END ATOM
M  V30 BEGIN BOND
M  V30 1 1 1 2
M  V30 2 1 2 3
M  V30 3 2 3 4
M  V30 4 1 4 5
M  V30 5 2 5 6
M  V30 6 1 6 7
M  V30 7 1 7 8
M  V30 8 2 8 9
M  V30 9 1 9 10
M  V30 10 1 10 11
M  V30 11 2 11 12
M  V30 12 1 11 13
M  V30 13 1 13 14
M  V30 14 1 14 15
M  V30 15 1 15 16
M  V30 16 1 16 17
M  V30 17 1 17 18
M  V30 18 2 18 19
M  V30 19 1 19 20
M  V30 20 2 20 21
M  V30 21 1 21 22
M  V30 22 2 22 23
M  V30 23 1 16 24
M  V30 24 1 24 25
M  V30 25 2 10 26
M  V30 26 1 26 27
M  V30 27 2 27 28
M  V30 28 1 28 29
M  V30 29 2 29 30
M  V30 30 1 30 31
M  V30 31 2 31 32
M  V30 32 2 7 33
M  V30 33 1 33 3
M  V30 34 1 32 8
M  V30 35 1 25 13
M  V30 36 1 31 26
M  V30 37 1 23 18
M  V30 38 1 1 34
M  V30 39 1 1 35
M  V30 40 1 1 36
M  V30 41 1 4 37
M  V30 42 1 5 38
M  V30 43 1 6 39
M  V30 44 1 9 40
M  V30 45 1 14 41
M  V30 46 1 14 42
M  V30 47 1 15 43
M  V30 48 1 15 44
M  V30 49 1 17 45
M  V30 50 1 17 46
M  V30 51 1 19 47
M  V30 52 1 20 48
M  V30 53 1 21 49
M  V30 54 1 22 50
M  V30 55 1 23 51
M  V30 56 1 24 52
M  V30 57 1 24 53
M  V30 58 1 25 54
M  V30 59 1 25 55
M  V30 60 1 27 56
M  V30 61 1 28 57
M  V30 62 1 29 58
M  V30 63 1 30 59
M  V30 64 1 33 60
M  V30 END BOND
M  V30 END CTAB
M  END
>  <Dataset>  (599) 
ChEMBL_Kinases

>  <Ligand_Instance>  (599) 
nan

>  <PDB_ID>  (599) 
nan

>  <Standardized_SMILES>  (599) 
COc1cccc(-c2cc(C(=O)N3CCN(Cc4ccccc4)CC3)c3ccccc3n2)c1

>  <Name>  (599) 
nan

>  <Pocket>  (599) 
nan

>  <ATP_Site>  (599) 
nan

>  <Peripheral>  (599) 
nan

>  <Num_H_Atoms_ProtBoundConf>  (599) 
nan

>  <Num_Resolved_Atoms>  (599) 
nan

>  <Num_Not_Resolved_Atoms>  (599) 
nan

$$$$
CHEMBL4070885
     RDKit          3D

  0  0  0  0  0  0  0  0  0  0999 V3000
M  V30 BEGIN CTAB
M  V30 COUNTS 60 64 0 0 0
M  V30 BEGIN ATOM
M  V30 1 O 2.274742 -0.554935 -1.739836 0
M  V30 2 C 2.127992 0.715228 -1.791428 0
M  V30 3 N 3.327589 1.364605 -2.105583 0
M  V30 4 C 4.620239 0.785135 -2.358205 0
M  V30 5 C 5.338257 0.347602 -1.134783 0
M  V30 6 C 5.297879 -0.893965 -0.536977 0
M  V30 7 C 6.030113 -1.152687 0.612204 0
M  V30 8 C 6.815251 -0.155895 1.173313 0
M  V30 9 C 6.796297 1.047488 0.513501 0
M  V30 10 N 6.099114 1.323624 -0.596157 0
M  V30 11 C 0.827156 1.308038 -1.537734 0
M  V30 12 C -0.231718 0.445990 -1.271920 0
M  V30 13 C -1.497354 0.857040 -1.021125 0
M  V30 14 C -2.604981 -0.108996 -0.743364 0 CFG=2
M  V30 15 C -3.678481 -0.011473 -1.801887 0
M  V30 16 C -4.891749 -0.738625 -1.306198 0
M  V30 17 N -5.464129 -0.049038 -0.198116 0
M  V30 18 C -4.553030 0.586550 0.692834 0
M  V30 19 C -3.151948 0.062563 0.649236 0 CFG=1
M  V30 20 C -2.994527 -1.211478 1.469948 0
M  V30 21 O -1.637128 -1.558063 1.572834 0
M  V30 22 C -1.202685 -2.674970 2.265695 0
M  V30 23 C 0.137548 -2.991306 2.350699 0
M  V30 24 C 0.578785 -4.100138 3.037555 0
M  V30 25 C -0.282029 -4.956118 3.677471 0
M  V30 26 C -1.632460 -4.608283 3.572520 0
M  V30 27 C -2.115970 -3.501118 2.890736 0
M  V30 28 O -2.315171 -5.595580 4.282036 0
M  V30 29 C -1.406313 -6.285241 5.117852 0
M  V30 30 O -0.185239 -6.114661 4.428275 0
M  V30 31 C -1.811048 2.210080 -1.016781 0
M  V30 32 C -0.794090 3.101277 -1.274997 0
M  V30 33 C 0.476362 2.638806 -1.524516 0
M  V30 34 F 1.453351 3.522671 -1.772496 0
M  V30 35 H 3.324114 2.386893 -2.173132 0
M  V30 36 H 5.235664 1.382048 -3.043575 0
M  V30 37 H 4.403261 -0.175227 -2.917559 0
M  V30 38 H 4.681506 -1.623560 -1.009576 0
M  V30 39 H 5.981055 -2.132610 1.060294 0
M  V30 40 H 7.406581 -0.317914 2.076627 0
M  V30 41 H 7.422678 1.824386 0.969834 0
M  V30 42 H -0.060223 -0.614379 -1.259167 0
M  V30 43 H -2.146586 -1.128095 -0.794505 0
M  V30 44 H -3.272412 -0.541578 -2.689301 0
M  V30 45 H -3.957193 1.041735 -1.991291 0
M  V30 46 H -5.678739 -0.820656 -2.102666 0
M  V30 47 H -4.653572 -1.802843 -1.039171 0
M  V30 48 H -6.122523 0.696199 -0.566387 0
M  V30 49 H -4.517219 1.702934 0.607025 0
M  V30 50 H -4.934203 0.409959 1.728245 0
M  V30 51 H -2.501792 0.807302 1.173777 0
M  V30 52 H -3.576817 -2.056839 1.088493 0
M  V30 53 H -3.352322 -1.042364 2.510221 0
M  V30 54 H 0.825602 -2.324046 1.850709 0
M  V30 55 H 1.635702 -4.350393 3.104961 0
M  V30 56 H -3.182829 -3.328991 2.875625 0
M  V30 57 H -1.304093 -5.780724 6.117908 0
M  V30 58 H -1.671528 -7.361612 5.221570 0
M  V30 59 H -2.803084 2.584779 -0.822849 0
M  V30 60 H -0.974979 4.166510 -1.285845 0
M  V30 END ATOM
M  V30 BEGIN BOND
M  V30 1 2 1 2
M  V30 2 1 2 3
M  V30 3 1 3 4
M  V30 4 1 4 5
M  V30 5 2 5 6
M  V30 6 1 6 7
M  V30 7 2 7 8
M  V30 8 1 8 9
M  V30 9 2 9 10
M  V30 10 1 2 11
M  V30 11 2 11 12
M  V30 12 1 12 13
M  V30 13 1 13 14
M  V30 14 1 14 15
M  V30 15 1 15 16
M  V30 16 1 16 17
M  V30 17 1 17 18
M  V30 18 1 18 19
M  V30 19 1 19 20
M  V30 20 1 20 21
M  V30 21 1 21 22
M  V30 22 2 22 23
M  V30 23 1 23 24
M  V30 24 2 24 25
M  V30 25 1 25 26
M  V30 26 2 26 27
M  V30 27 1 26 28
M  V30 28 1 28 29
M  V30 29 1 29 30
M  V30 30 2 13 31
M  V30 31 1 31 32
M  V30 32 2 32 33
M  V30 33 1 33 34
M  V30 34 1 10 5
M  V30 35 1 33 11
M  V30 36 1 19 14
M  V30 37 1 27 22
M  V30 38 1 30 25
M  V30 39 1 3 35
M  V30 40 1 4 36
M  V30 41 1 4 37
M  V30 42 1 6 38
M  V30 43 1 7 39
M  V30 44 1 8 40
M  V30 45 1 9 41
M  V30 46 1 12 42
M  V30 47 1 14 43 CFG=1
M  V30 48 1 15 44
M  V30 49 1 15 45
M  V30 50 1 16 46
M  V30 51 1 16 47
M  V30 52 1 17 48
M  V30 53 1 18 49
M  V30 54 1 18 50
M  V30 55 1 19 51 CFG=1
M  V30 56 1 20 52
M  V30 57 1 20 53
M  V30 58 1 23 54
M  V30 59 1 24 55
M  V30 60 1 27 56
M  V30 61 1 29 57
M  V30 62 1 29 58
M  V30 63 1 31 59
M  V30 64 1 32 60
M  V30 END BOND
M  V30 END CTAB
M  END
>  <Dataset>  (600) 
ChEMBL_Kinases

>  <Ligand_Instance>  (600) 
nan

>  <PDB_ID>  (600) 
nan

>  <Standardized_SMILES>  (600) 
O=C(NCc1ccccn1)c1cc([C@@H]2CCNC[C@H]2COc2ccc3c(c2)OCO3)ccc1F

>  <Name>  (600) 
nan

>  <Pocket>  (600) 
nan

>  <ATP_Site>  (600) 
nan

>  <Peripheral>  (600) 
nan

>  <Num_H_Atoms_ProtBoundConf>  (600) 
nan

>  <Num_Resolved_Atoms>  (600) 
nan

>  <Num_Not_Resolved_Atoms>  (600) 
nan

$$$$
CHEMBL4071844
     RDKit          3D

  0  0  0  0  0  0  0  0  0  0999 V3000
M  V30 BEGIN CTAB
M  V30 COUNTS 26 27 0 0 0
M  V30 BEGIN ATOM
M  V30 1 N 0.314432 -3.742355 3.721897 0
M  V30 2 C -0.856285 -3.520902 2.902081 0
M  V30 3 O -1.773985 -4.364539 3.038115 0
M  V30 4 C -0.756272 -2.339441 2.051415 0
M  V30 5 C 0.366089 -1.504591 1.975920 0
M  V30 6 C 0.281946 -0.424942 1.117807 0
M  V30 7 C -0.827895 -0.139127 0.352284 0
M  V30 8 N -0.808756 0.998603 -0.500981 0
M  V30 9 C 0.447851 1.643523 -0.652070 0
M  V30 10 C 1.034255 1.185122 -1.839882 0
M  V30 11 C 2.292167 1.638491 -2.254577 0
M  V30 12 N 2.942709 2.532121 -1.490127 0
M  V30 13 C 2.370945 2.974994 -0.336623 0
M  V30 14 N 1.178206 2.534782 0.041214 0
M  V30 15 C -1.937815 -0.964160 0.426632 0
M  V30 16 C -1.889520 -2.061784 1.280501 0
M  V30 17 H 0.019736 -3.533202 4.707286 0
M  V30 18 H -0.022166 -3.520675 4.710908 0
M  V30 19 H 1.204370 -1.773612 2.598088 0
M  V30 20 H 1.205118 0.176112 1.122129 0
M  V30 21 H -1.664426 1.342563 -0.986358 0
M  V30 22 H 0.646486 0.465996 -2.575760 0
M  V30 23 H 2.807822 1.338066 -3.144817 0
M  V30 24 H 2.788896 3.686415 0.362309 0
M  V30 25 H -2.789725 -0.709512 -0.187971 0
M  V30 26 H -2.798224 -2.654873 1.278725 0
M  V30 END ATOM
M  V30 BEGIN BOND
M  V30 1 1 1 2
M  V30 2 2 2 3
M  V30 3 1 2 4
M  V30 4 2 4 5
M  V30 5 1 5 6
M  V30 6 2 6 7
M  V30 7 1 7 8
M  V30 8 1 8 9
M  V30 9 2 9 10
M  V30 10 1 10 11
M  V30 11 2 11 12
M  V30 12 1 12 13
M  V30 13 2 13 14
M  V30 14 1 7 15
M  V30 15 2 15 16
M  V30 16 1 16 4
M  V30 17 1 14 9
M  V30 18 1 1 17
M  V30 19 1 1 18
M  V30 20 1 5 19
M  V30 21 1 6 20
M  V30 22 1 8 21
M  V30 23 1 10 22
M  V30 24 1 11 23
M  V30 25 1 13 24
M  V30 26 1 15 25
M  V30 27 1 16 26
M  V30 END BOND
M  V30 END CTAB
M  END
>  <Dataset>  (601) 
ChEMBL_Kinases

>  <Ligand_Instance>  (601) 
nan

>  <PDB_ID>  (601) 
nan

>  <Standardized_SMILES>  (601) 
NC(=O)c1ccc(Nc2ccncn2)cc1

>  <Name>  (601) 
nan

>  <Pocket>  (601) 
nan

>  <ATP_Site>  (601) 
nan

>  <Peripheral>  (601) 
nan

>  <Num_H_Atoms_ProtBoundConf>  (601) 
nan

>  <Num_Resolved_Atoms>  (601) 
nan

>  <Num_Not_Resolved_Atoms>  (601) 
nan

$$$$
CHEMBL4070822
     RDKit          3D

  0  0  0  0  0  0  0  0  0  0999 V3000
M  V30 BEGIN CTAB
M  V30 COUNTS 32 34 0 0 0
M  V30 BEGIN ATOM
M  V30 1 C -2.852414 -3.812799 3.143660 0
M  V30 2 N -1.513729 -4.353160 3.015627 0
M  V30 3 C -0.504255 -3.485065 3.521991 0
M  V30 4 C -0.476873 -2.153403 2.813242 0
M  V30 5 N 0.303634 -2.077355 1.753706 0
M  V30 6 C 0.433461 -0.962066 1.022984 0
M  V30 7 C 1.179822 -0.704004 -0.082518 0
M  V30 8 C 1.088191 0.621012 -0.628114 0
M  V30 9 C 1.865969 1.017067 -1.843986 0
M  V30 10 C 2.730667 0.323909 -2.626735 0
M  V30 11 N 3.130222 1.187133 -3.582718 0
M  V30 12 N 2.544523 2.361311 -3.406371 0
M  V30 13 C 1.742342 2.280689 -2.316821 0
M  V30 14 C 0.910668 3.426089 -1.804038 0
M  V30 15 S -0.027432 1.512570 0.382839 0
M  V30 16 C -0.373942 0.077245 1.556750 0
M  V30 17 C -1.211339 0.004386 2.689026 0
M  V30 18 O -1.817782 1.057186 2.953010 0
M  V30 19 N -1.232746 -1.180252 3.312815 0
M  V30 20 H -3.010156 -3.015622 2.393472 0
M  V30 21 H -2.939180 -3.349566 4.162800 0
M  V30 22 H -3.622501 -4.592243 2.988296 0
M  V30 23 H -1.319761 -4.751550 2.093838 0
M  V30 24 H -0.659428 -3.310252 4.608236 0
M  V30 25 H 0.470926 -3.991307 3.393333 0
M  V30 26 H 1.813198 -1.451620 -0.535239 0
M  V30 27 H 2.966393 -0.714296 -2.413677 0
M  V30 28 H 3.806096 0.915782 -4.330346 0
M  V30 29 H 1.111641 3.518173 -0.702914 0
M  V30 30 H -0.145592 3.115602 -1.940185 0
M  V30 31 H 1.152083 4.357646 -2.316251 0
M  V30 32 H -1.844820 -1.215535 4.131666 0
M  V30 END ATOM
M  V30 BEGIN BOND
M  V30 1 1 1 2
M  V30 2 1 2 3
M  V30 3 1 3 4
M  V30 4 2 4 5
M  V30 5 1 5 6
M  V30 6 1 6 7
M  V30 7 2 7 8
M  V30 8 1 8 9
M  V30 9 2 9 10
M  V30 10 1 10 11
M  V30 11 1 11 12
M  V30 12 2 12 13
M  V30 13 1 13 14
M  V30 14 1 8 15
M  V30 15 1 15 16
M  V30 16 1 16 17
M  V30 17 2 17 18
M  V30 18 1 17 19
M  V30 19 1 19 4
M  V30 20 2 16 6
M  V30 21 1 13 9
M  V30 22 1 1 20
M  V30 23 1 1 21
M  V30 24 1 1 22
M  V30 25 1 2 23
M  V30 26 1 3 24
M  V30 27 1 3 25
M  V30 28 1 7 26
M  V30 29 1 10 27
M  V30 30 1 11 28
M  V30 31 1 14 29
M  V30 32 1 14 30
M  V30 33 1 14 31
M  V30 34 1 19 32
M  V30 END BOND
M  V30 END CTAB
M  END
>  <Dataset>  (602) 
ChEMBL_Kinases

>  <Ligand_Instance>  (602) 
nan

>  <PDB_ID>  (602) 
nan

>  <Standardized_SMILES>  (602) 
CNCc1nc2cc(-c3c[nH]nc3C)sc2c(=O)[nH]1

>  <Name>  (602) 
nan

>  <Pocket>  (602) 
nan

>  <ATP_Site>  (602) 
nan

>  <Peripheral>  (602) 
nan

>  <Num_H_Atoms_ProtBoundConf>  (602) 
nan

>  <Num_Resolved_Atoms>  (602) 
nan

>  <Num_Not_Resolved_Atoms>  (602) 
nan

$$$$
CHEMBL4860366
     RDKit          3D

  0  0  0  0  0  0  0  0  0  0999 V3000
M  V30 BEGIN CTAB
M  V30 COUNTS 37 40 0 0 0
M  V30 BEGIN ATOM
M  V30 1 O -0.152537 -5.698517 3.048663 0
M  V30 2 S 0.092429 -4.225420 2.794457 0
M  V30 3 O -0.828167 -3.450216 3.693993 0
M  V30 4 N -0.288190 -3.850660 1.165536 0
M  V30 5 C -0.195802 -2.489305 0.742268 0
M  V30 6 C 0.444378 -2.370792 -0.478862 0
M  V30 7 C 0.615397 -1.106411 -1.031542 0
M  V30 8 C 0.151565 0.036908 -0.372602 0
M  V30 9 C 0.351153 1.345893 -0.986920 0
M  V30 10 N 1.575044 1.633977 -1.521789 0
M  V30 11 N 1.532544 2.874016 -2.025287 0
M  V30 12 C 0.298640 3.375298 -1.816700 0
M  V30 13 C -0.355785 4.565452 -2.092096 0
M  V30 14 C -1.671823 4.805450 -1.746566 0
M  V30 15 F -2.275799 5.989606 -2.036544 0
M  V30 16 C -2.376353 3.792660 -1.084947 0
M  V30 17 C -1.791366 2.573852 -0.774064 0
M  V30 18 C -0.475780 2.438353 -1.163084 0
M  V30 19 C -0.482148 -0.119792 0.843423 0
M  V30 20 C -0.656481 -1.369771 1.399663 0
M  V30 21 C 1.759881 -3.833906 3.214449 0
M  V30 22 C 2.247955 -4.508934 4.497058 0
M  V30 23 C 2.828241 -4.856761 3.156906 0
M  V30 24 H -0.579953 -4.608061 0.505730 0
M  V30 25 H 0.846672 -3.188294 -1.082397 0
M  V30 26 H 1.112567 -0.980211 -1.986170 0
M  V30 27 H 2.306902 3.396549 -2.505809 0
M  V30 28 H 0.231287 5.336986 -2.613172 0
M  V30 29 H -3.409234 3.923071 -0.789553 0
M  V30 30 H -2.310641 1.780615 -0.266896 0
M  V30 31 H -0.855763 0.744394 1.384606 0
M  V30 32 H -1.140934 -1.567982 2.343678 0
M  V30 33 H 2.037795 -2.786434 3.105238 0
M  V30 34 H 2.832893 -3.894035 5.208950 0
M  V30 35 H 1.651722 -5.301254 4.967541 0
M  V30 36 H 3.866683 -4.495250 3.006799 0
M  V30 37 H 2.660657 -5.867499 2.739014 0
M  V30 END ATOM
M  V30 BEGIN BOND
M  V30 1 2 1 2
M  V30 2 2 2 3
M  V30 3 1 2 4
M  V30 4 1 4 5
M  V30 5 2 5 6
M  V30 6 1 6 7
M  V30 7 2 7 8
M  V30 8 1 8 9
M  V30 9 2 9 10
M  V30 10 1 10 11
M  V30 11 1 11 12
M  V30 12 2 12 13
M  V30 13 1 13 14
M  V30 14 1 14 15
M  V30 15 2 14 16
M  V30 16 1 16 17
M  V30 17 2 17 18
M  V30 18 1 8 19
M  V30 19 2 19 20
M  V30 20 1 2 21
M  V30 21 1 21 22
M  V30 22 1 22 23
M  V30 23 1 20 5
M  V30 24 1 23 21
M  V30 25 1 18 9
M  V30 26 1 18 12
M  V30 27 1 4 24
M  V30 28 1 6 25
M  V30 29 1 7 26
M  V30 30 1 11 27
M  V30 31 1 13 28
M  V30 32 1 16 29
M  V30 33 1 17 30
M  V30 34 1 19 31
M  V30 35 1 20 32
M  V30 36 1 21 33
M  V30 37 1 22 34
M  V30 38 1 22 35
M  V30 39 1 23 36
M  V30 40 1 23 37
M  V30 END BOND
M  V30 END CTAB
M  END
>  <Dataset>  (603) 
ChEMBL_Kinases

>  <Ligand_Instance>  (603) 
nan

>  <PDB_ID>  (603) 
nan

>  <Standardized_SMILES>  (603) 
O=S(=O)(Nc1ccc(-c2n[nH]c3cc(F)ccc23)cc1)C1CC1

>  <Name>  (603) 
nan

>  <Pocket>  (603) 
nan

>  <ATP_Site>  (603) 
nan

>  <Peripheral>  (603) 
nan

>  <Num_H_Atoms_ProtBoundConf>  (603) 
nan

>  <Num_Resolved_Atoms>  (603) 
nan

>  <Num_Not_Resolved_Atoms>  (603) 
nan

$$$$
CHEMBL4070818
     RDKit          3D

  0  0  0  0  0  0  0  0  0  0999 V3000
M  V30 BEGIN CTAB
M  V30 COUNTS 45 48 0 0 0
M  V30 BEGIN ATOM
M  V30 1 C -0.809157 -5.967971 2.601750 0
M  V30 2 N -1.288927 -4.630092 2.413186 0
M  V30 3 C -2.706315 -4.325946 2.468572 0
M  V30 4 C -3.081205 -3.590280 1.223921 0
M  V30 5 C -2.147987 -2.463771 0.958340 0
M  V30 6 N -2.332814 -1.304129 0.277306 0
M  V30 7 C -1.213542 -0.557041 0.279188 0
M  V30 8 C -1.046831 0.750222 -0.355271 0
M  V30 9 C -2.106373 1.317336 -1.033628 0
M  V30 10 C -1.902550 2.553186 -1.617143 0
M  V30 11 N -0.708676 3.143996 -1.505689 0
M  V30 12 C 0.339863 2.613627 -0.850780 0
M  V30 13 N 1.590566 3.285528 -0.761796 0
M  V30 14 C 2.689033 2.684146 -0.052076 0
M  V30 15 C 2.360396 2.423523 1.422854 0
M  V30 16 C 3.687063 2.112623 2.089087 0
M  V30 17 O 4.675300 1.830853 1.176717 0
M  V30 18 C 4.334794 0.924393 0.197431 0
M  V30 19 C 3.133452 1.358363 -0.631553 0
M  V30 20 N 0.121160 1.410671 -0.290015 0
M  V30 21 C -0.237279 -1.235809 0.986686 0
M  V30 22 C -0.839727 -2.404898 1.392601 0
M  V30 23 C -0.386737 -3.558046 2.165506 0
M  V30 24 O 0.794310 -3.622388 2.619876 0
M  V30 25 H 0.246357 -6.013463 2.930374 0
M  V30 26 H -0.871722 -6.569536 1.648665 0
M  V30 27 H -1.394908 -6.528313 3.357137 0
M  V30 28 H -3.316565 -5.265079 2.477313 0
M  V30 29 H -2.973949 -3.673085 3.333396 0
M  V30 30 H -3.045558 -4.331649 0.380343 0
M  V30 31 H -4.130017 -3.213498 1.250156 0
M  V30 32 H -3.220973 -1.013423 -0.192985 0
M  V30 33 H -3.080033 0.848369 -1.131398 0
M  V30 34 H -2.727065 3.004818 -2.150464 0
M  V30 35 H 1.675716 4.213144 -1.223169 0
M  V30 36 H 3.584143 3.339781 -0.066327 0
M  V30 37 H 1.836112 3.272145 1.884807 0
M  V30 38 H 1.777452 1.482482 1.420546 0
M  V30 39 H 3.598998 1.379136 2.917270 0
M  V30 40 H 4.005200 3.068292 2.600075 0
M  V30 41 H 4.215229 -0.117064 0.581327 0
M  V30 42 H 5.205366 0.878600 -0.498581 0
M  V30 43 H 2.348549 0.597278 -0.463377 0
M  V30 44 H 3.392629 1.463316 -1.705672 0
M  V30 45 H 0.786058 -0.943352 1.195641 0
M  V30 END ATOM
M  V30 BEGIN BOND
M  V30 1 1 1 2
M  V30 2 1 2 3
M  V30 3 1 3 4
M  V30 4 1 4 5
M  V30 5 1 5 6
M  V30 6 1 6 7
M  V30 7 1 7 8
M  V30 8 2 8 9
M  V30 9 1 9 10
M  V30 10 2 10 11
M  V30 11 1 11 12
M  V30 12 1 12 13
M  V30 13 1 13 14
M  V30 14 1 14 15
M  V30 15 1 15 16
M  V30 16 1 16 17
M  V30 17 1 17 18
M  V30 18 1 18 19
M  V30 19 2 12 20
M  V30 20 2 7 21
M  V30 21 1 21 22
M  V30 22 1 22 23
M  V30 23 2 23 24
M  V30 24 1 23 2
M  V30 25 2 22 5
M  V30 26 1 20 8
M  V30 27 1 19 14
M  V30 28 1 1 25
M  V30 29 1 1 26
M  V30 30 1 1 27
M  V30 31 1 3 28
M  V30 32 1 3 29
M  V30 33 1 4 30
M  V30 34 1 4 31
M  V30 35 1 6 32
M  V30 36 1 9 33
M  V30 37 1 10 34
M  V30 38 1 13 35
M  V30 39 1 14 36
M  V30 40 1 15 37
M  V30 41 1 15 38
M  V30 42 1 16 39
M  V30 43 1 16 40
M  V30 44 1 18 41
M  V30 45 1 18 42
M  V30 46 1 19 43
M  V30 47 1 19 44
M  V30 48 1 21 45
M  V30 END BOND
M  V30 END CTAB
M  END
>  <Dataset>  (604) 
ChEMBL_Kinases

>  <Ligand_Instance>  (604) 
nan

>  <PDB_ID>  (604) 
nan

>  <Standardized_SMILES>  (604) 
CN1CCc2[nH]c(-c3ccnc(NC4CCOCC4)n3)cc2C1=O

>  <Name>  (604) 
nan

>  <Pocket>  (604) 
nan

>  <ATP_Site>  (604) 
nan

>  <Peripheral>  (604) 
nan

>  <Num_H_Atoms_ProtBoundConf>  (604) 
nan

>  <Num_Resolved_Atoms>  (604) 
nan

>  <Num_Not_Resolved_Atoms>  (604) 
nan

$$$$
CHEMBL4070814
     RDKit          3D

  0  0  0  0  0  0  0  0  0  0999 V3000
M  V30 BEGIN CTAB
M  V30 COUNTS 77 81 0 0 0
M  V30 BEGIN ATOM
M  V30 1 C 4.243921 0.247571 5.576656 0
M  V30 2 N 5.437885 -0.128659 4.873833 0
M  V30 3 C 5.088674 -1.000903 3.772234 0
M  V30 4 C 4.093812 -0.266158 2.912037 0
M  V30 5 N 4.594929 0.966851 2.464346 0
M  V30 6 C 4.747746 1.186116 1.076857 0
M  V30 7 C 3.469968 1.284666 0.338013 0
M  V30 8 O 3.028691 1.125451 1.503413 0
M  V30 9 N 3.184750 1.469972 -1.027507 0
M  V30 10 C 4.374198 1.586942 -1.835651 0
M  V30 11 C 1.839347 1.522016 -1.418425 0
M  V30 12 C 1.454822 1.607754 -2.737844 0
M  V30 13 C 0.144211 1.663659 -3.144921 0
M  V30 14 C -0.885522 1.635743 -2.231063 0
M  V30 15 N -2.295440 1.666219 -2.471528 0
M  V30 16 C -2.839035 0.396659 -2.051547 0
M  V30 17 C -3.689385 0.518335 -1.075389 0
M  V30 18 C -4.179801 1.670514 -0.365591 0
M  V30 19 O -3.862212 2.853165 -0.647638 0
M  V30 20 N -5.053541 1.251696 0.672566 0
M  V30 21 C -5.100158 -0.165148 0.602874 0
M  V30 22 C -5.800562 -1.026297 1.418213 0
M  V30 23 C -5.709789 -2.387160 1.220541 0
M  V30 24 C -4.906094 -2.894998 0.192711 0
M  V30 25 C -4.860846 -4.345949 0.050133 0
M  V30 26 O -5.674869 -5.192481 -0.448562 0
M  V30 27 N -3.653107 -4.933484 0.580304 0
M  V30 28 C -2.541039 -4.221598 1.217767 0
M  V30 29 C -3.365937 -6.360337 0.547706 0
M  V30 30 C -4.223929 -1.978505 -0.597321 0
M  V30 31 C -4.302107 -0.622997 -0.420501 0
M  V30 32 C -2.459249 -0.774890 -2.819277 0
M  V30 33 C -3.553224 -1.201341 -3.596975 0
M  V30 34 C -3.394332 -2.327414 -4.408497 0
M  V30 35 C -2.205133 -3.023652 -4.464868 0
M  V30 36 C -1.159927 -2.568130 -3.684798 0
M  V30 37 C -1.266013 -1.467386 -2.872174 0
M  V30 38 C -0.523621 1.548929 -0.893147 0
M  V30 39 C 0.804917 1.494658 -0.513213 0
M  V30 40 C 5.344161 1.792982 3.321930 0
M  V30 41 C 6.117305 1.060764 4.368207 0
M  V30 42 H 3.401937 -0.461865 5.376839 0
M  V30 43 H 4.448151 0.347641 6.656693 0
M  V30 44 H 3.885434 1.246294 5.228524 0
M  V30 45 H 4.608573 -1.902444 4.236388 0
M  V30 46 H 5.964072 -1.281076 3.189988 0
M  V30 47 H 3.974582 -0.927093 1.997229 0
M  V30 48 H 3.084918 -0.253849 3.378115 0
M  V30 49 H 5.410104 0.369833 0.671687 0
M  V30 50 H 5.325973 2.126626 0.903208 0
M  V30 51 H 4.731642 0.560683 -2.058864 0
M  V30 52 H 5.164814 2.176534 -1.312905 0
M  V30 53 H 4.091921 2.024645 -2.800549 0
M  V30 54 H 2.228037 1.633516 -3.491677 0
M  V30 55 H -0.169713 1.732242 -4.175729 0
M  V30 56 H -2.855950 2.445175 -2.873897 0
M  V30 57 H -5.520628 1.935611 1.308729 0
M  V30 58 H -6.423939 -0.650029 2.216108 0
M  V30 59 H -6.267649 -3.027131 1.873021 0
M  V30 60 H -2.599988 -4.240714 2.320498 0
M  V30 61 H -1.582143 -4.556381 0.816878 0
M  V30 62 H -2.651988 -3.145210 0.923202 0
M  V30 63 H -2.414672 -6.455323 -0.030587 0
M  V30 64 H -4.124224 -6.915647 -0.040450 0
M  V30 65 H -3.179738 -6.741277 1.554122 0
M  V30 66 H -3.634901 -2.515862 -1.311927 0
M  V30 67 H -4.533884 -0.761576 -3.656738 0
M  V30 68 H -4.183073 -2.734389 -5.046038 0
M  V30 69 H -2.048152 -3.897967 -5.080499 0
M  V30 70 H -0.176736 -3.055298 -3.660393 0
M  V30 71 H -0.517381 -1.030757 -2.227349 0
M  V30 72 H -1.298912 1.522278 -0.109062 0
M  V30 73 H 0.976894 1.428584 0.551231 0
M  V30 74 H 4.746683 2.589016 3.830961 0
M  V30 75 H 6.129336 2.302779 2.674567 0
M  V30 76 H 6.250400 1.726206 5.244961 0
M  V30 77 H 7.157479 0.810064 4.045480 0
M  V30 END ATOM
M  V30 BEGIN BOND
M  V30 1 1 1 2
M  V30 2 1 2 3
M  V30 3 1 3 4
M  V30 4 1 4 5
M  V30 5 1 5 6
M  V30 6 1 6 7
M  V30 7 2 7 8
M  V30 8 1 7 9
M  V30 9 1 9 10
M  V30 10 1 9 11
M  V30 11 2 11 12
M  V30 12 1 12 13
M  V30 13 2 13 14
M  V30 14 1 14 15
M  V30 15 1 15 16
M  V30 16 2 16 17
M  V30 17 1 17 18
M  V30 18 2 18 19
M  V30 19 1 18 20
M  V30 20 1 20 21
M  V30 21 2 21 22
M  V30 22 1 22 23
M  V30 23 2 23 24
M  V30 24 1 24 25
M  V30 25 2 25 26
M  V30 26 1 25 27
M  V30 27 1 27 28
M  V30 28 1 27 29
M  V30 29 1 24 30
M  V30 30 2 30 31
M  V30 31 1 16 32
M  V30 32 2 32 33
M  V30 33 1 33 34
M  V30 34 2 34 35
M  V30 35 1 35 36
M  V30 36 2 36 37
M  V30 37 1 14 38
M  V30 38 2 38 39
M  V30 39 1 5 40
M  V30 40 1 40 41
M  V30 41 1 41 2
M  V30 42 1 39 11
M  V30 43 1 31 17
M  V30 44 1 37 32
M  V30 45 1 31 21
M  V30 46 1 1 42
M  V30 47 1 1 43
M  V30 48 1 1 44
M  V30 49 1 3 45
M  V30 50 1 3 46
M  V30 51 1 4 47
M  V30 52 1 4 48
M  V30 53 1 6 49
M  V30 54 1 6 50
M  V30 55 1 10 51
M  V30 56 1 10 52
M  V30 57 1 10 53
M  V30 58 1 12 54
M  V30 59 1 13 55
M  V30 60 1 15 56
M  V30 61 1 20 57
M  V30 62 1 22 58
M  V30 63 1 23 59
M  V30 64 1 28 60
M  V30 65 1 28 61
M  V30 66 1 28 62
M  V30 67 1 29 63
M  V30 68 1 29 64
M  V30 69 1 29 65
M  V30 70 1 30 66
M  V30 71 1 33 67
M  V30 72 1 34 68
M  V30 73 1 35 69
M  V30 74 1 36 70
M  V30 75 1 37 71
M  V30 76 1 38 72
M  V30 77 1 39 73
M  V30 78 1 40 74
M  V30 79 1 40 75
M  V30 80 1 41 76
M  V30 81 1 41 77
M  V30 END BOND
M  V30 END CTAB
M  END
>  <Dataset>  (605) 
ChEMBL_Kinases

>  <Ligand_Instance>  (605) 
nan

>  <PDB_ID>  (605) 
nan

>  <Standardized_SMILES>  (605) 
CN1CCN(CC(=O)N(C)c2ccc(N/C(=C3\C(=O)Nc4ccc(C(=O)N(C)C)cc43)c3ccccc3)cc2)CC1

>  <Name>  (605) 
nan

>  <Pocket>  (605) 
nan

>  <ATP_Site>  (605) 
nan

>  <Peripheral>  (605) 
nan

>  <Num_H_Atoms_ProtBoundConf>  (605) 
nan

>  <Num_Resolved_Atoms>  (605) 
nan

>  <Num_Not_Resolved_Atoms>  (605) 
nan

$$$$
CHEMBL4070698
     RDKit          3D

  0  0  0  0  0  0  0  0  0  0999 V3000
M  V30 BEGIN CTAB
M  V30 COUNTS 39 42 0 0 0
M  V30 BEGIN ATOM
M  V30 1 O 3.449064 -6.316192 4.182609 0
M  V30 2 C 2.321575 -6.379602 3.629647 0
M  V30 3 O 1.733836 -7.628418 3.777493 0
M  V30 4 C 1.677254 -5.263547 2.900244 0
M  V30 5 C 0.434007 -5.348909 2.297507 0
M  V30 6 C -0.089180 -4.255132 1.637713 0
M  V30 7 C 0.668894 -3.081309 1.601892 0
M  V30 8 C 0.136017 -1.900803 0.906771 0
M  V30 9 C 0.999696 -1.023138 0.304369 0
M  V30 10 C 0.519125 0.092495 -0.353183 0
M  V30 11 C -0.830337 0.371712 -0.433537 0
M  V30 12 C -1.578923 1.399766 -1.018428 0
M  V30 13 N -0.956024 2.469352 -1.722819 0
M  V30 14 C -0.649373 3.558907 -0.862387 0
M  V30 15 O -0.964123 3.422079 0.358734 0
M  V30 16 C 0.004546 4.835236 -1.272346 0
M  V30 17 C 1.067443 5.371201 -0.316937 0
M  V30 18 C -0.285875 6.032875 -0.397258 0
M  V30 19 N -2.877853 1.098361 -0.742946 0
M  V30 20 N -2.925259 -0.023140 -0.045701 0
M  V30 21 C -1.688003 -0.529172 0.182782 0
M  V30 22 C -1.229968 -1.650035 0.845179 0
M  V30 23 C 1.911757 -2.976185 2.197351 0
M  V30 24 C 2.406812 -4.092071 2.850826 0
M  V30 25 H 1.595352 -8.059780 4.696836 0
M  V30 26 H -0.065440 -6.297361 2.384098 0
M  V30 27 H -1.056434 -4.337995 1.174399 0
M  V30 28 H 2.067822 -1.201045 0.340960 0
M  V30 29 H 1.243854 0.752555 -0.811253 0
M  V30 30 H -0.690115 2.590630 -2.743143 0
M  V30 31 H 0.278362 4.961216 -2.320472 0
M  V30 32 H 1.887005 5.985954 -0.713669 0
M  V30 33 H 1.311908 4.723606 0.556454 0
M  V30 34 H -0.981856 5.874849 0.463283 0
M  V30 35 H -0.368015 7.031848 -0.862710 0
M  V30 36 H -3.837853 -0.445185 0.277840 0
M  V30 37 H -1.922141 -2.337989 1.318199 0
M  V30 38 H 2.498055 -2.067222 2.169212 0
M  V30 39 H 3.371354 -3.999214 3.308505 0
M  V30 END ATOM
M  V30 BEGIN BOND
M  V30 1 2 1 2
M  V30 2 1 2 3
M  V30 3 1 2 4
M  V30 4 2 4 5
M  V30 5 1 5 6
M  V30 6 2 6 7
M  V30 7 1 7 8
M  V30 8 2 8 9
M  V30 9 1 9 10
M  V30 10 2 10 11
M  V30 11 1 11 12
M  V30 12 1 12 13
M  V30 13 1 13 14
M  V30 14 2 14 15
M  V30 15 1 14 16
M  V30 16 1 16 17
M  V30 17 1 17 18
M  V30 18 2 12 19
M  V30 19 1 19 20
M  V30 20 1 20 21
M  V30 21 2 21 22
M  V30 22 1 7 23
M  V30 23 2 23 24
M  V30 24 1 24 4
M  V30 25 1 22 8
M  V30 26 1 21 11
M  V30 27 1 18 16
M  V30 28 1 3 25
M  V30 29 1 5 26
M  V30 30 1 6 27
M  V30 31 1 9 28
M  V30 32 1 10 29
M  V30 33 1 13 30
M  V30 34 1 16 31
M  V30 35 1 17 32
M  V30 36 1 17 33
M  V30 37 1 18 34
M  V30 38 1 18 35
M  V30 39 1 20 36
M  V30 40 1 22 37
M  V30 41 1 23 38
M  V30 42 1 24 39
M  V30 END BOND
M  V30 END CTAB
M  END
>  <Dataset>  (606) 
ChEMBL_Kinases

>  <Ligand_Instance>  (606) 
nan

>  <PDB_ID>  (606) 
nan

>  <Standardized_SMILES>  (606) 
O=C(O)c1ccc(-c2ccc3c(NC(=O)C4CC4)n[nH]c3c2)cc1

>  <Name>  (606) 
nan

>  <Pocket>  (606) 
nan

>  <ATP_Site>  (606) 
nan

>  <Peripheral>  (606) 
nan

>  <Num_H_Atoms_ProtBoundConf>  (606) 
nan

>  <Num_Resolved_Atoms>  (606) 
nan

>  <Num_Not_Resolved_Atoms>  (606) 
nan

$$$$
CHEMBL4070626
     RDKit          3D

  0  0  0  0  0  0  0  0  0  0999 V3000
M  V30 BEGIN CTAB
M  V30 COUNTS 55 58 0 0 0
M  V30 BEGIN ATOM
M  V30 1 C 2.323176 2.673663 -0.119253 0
M  V30 2 O 1.934746 1.291498 -0.117605 0
M  V30 3 C 2.794524 0.422482 0.534609 0
M  V30 4 C 3.954242 0.810850 1.153978 0
M  V30 5 C 4.779388 -0.092403 1.791097 0
M  V30 6 F 5.934782 0.242991 2.417119 0
M  V30 7 C 4.439877 -1.447205 1.816547 0
M  V30 8 C 3.260870 -1.790796 1.178356 0
M  V30 9 C 2.392028 -0.908051 0.518943 0
M  V30 10 C 1.183229 -1.376548 -0.110951 0
M  V30 11 C -0.043245 -1.458180 0.712831 0
M  V30 12 N -1.192091 -2.074003 0.086195 0
M  V30 13 C -2.454311 -1.451149 0.240119 0
M  V30 14 N -2.460447 -0.343118 1.015759 0
M  V30 15 C -3.538559 0.398656 1.295392 0
M  V30 16 C -3.468682 1.584567 2.140855 0
M  V30 17 C -2.265021 1.980607 2.683834 0
M  V30 18 C -2.265435 3.110363 3.473860 0
M  V30 19 N -3.401517 3.814411 3.715362 0
M  V30 20 C -4.545775 3.409006 3.179156 0
M  V30 21 N -4.589932 2.293903 2.389362 0
M  V30 22 C -4.723633 -0.018722 0.738275 0
M  V30 23 C -4.796046 -1.137019 -0.062590 0
M  V30 24 O -5.849858 -1.563950 -0.597100 0
M  V30 25 N -3.643732 -1.796240 -0.267868 0
M  V30 26 C -3.671720 -2.971407 -1.110809 0
M  V30 27 C -0.796765 -3.262007 -0.590484 0
M  V30 28 C 0.580657 -3.785718 -0.125676 0
M  V30 29 N 1.478084 -2.714900 -0.596265 0
M  V30 30 C 2.531679 -3.042796 -1.462071 0
M  V30 31 C 3.518053 -2.133574 -2.041169 0
M  V30 32 O 2.565965 -4.278790 -1.724059 0
M  V30 33 H 1.574020 3.296953 -0.632694 0
M  V30 34 H 2.466276 2.969985 0.952910 0
M  V30 35 H 3.330438 2.692004 -0.589631 0
M  V30 36 H 4.228759 1.852754 1.142426 0
M  V30 37 H 5.000372 -2.230632 2.277660 0
M  V30 38 H 2.945404 -2.845141 1.167478 0
M  V30 39 H 0.970778 -0.749936 -0.995344 0
M  V30 40 H -0.328268 -0.408008 0.922292 0
M  V30 41 H 0.132041 -1.878249 1.739799 0
M  V30 42 H -1.410278 1.379590 2.452888 0
M  V30 43 H -1.273149 3.372375 3.875552 0
M  V30 44 H -5.382268 4.028514 3.428070 0
M  V30 45 H -5.634773 0.527800 0.919226 0
M  V30 46 H -3.808349 -3.924448 -0.529639 0
M  V30 47 H -4.646616 -2.953143 -1.706443 0
M  V30 48 H -2.917628 -3.005805 -1.893913 0
M  V30 49 H -1.470979 -4.111550 -0.378439 0
M  V30 50 H -0.588529 -3.123395 -1.692838 0
M  V30 51 H 0.635912 -3.904495 0.954695 0
M  V30 52 H 0.794814 -4.694750 -0.686397 0
M  V30 53 H 3.060137 -1.141107 -2.272537 0
M  V30 54 H 3.877562 -2.523263 -3.039540 0
M  V30 55 H 4.424874 -1.953411 -1.464084 0
M  V30 END ATOM
M  V30 BEGIN BOND
M  V30 1 1 1 2
M  V30 2 1 2 3
M  V30 3 2 3 4
M  V30 4 1 4 5
M  V30 5 1 5 6
M  V30 6 2 5 7
M  V30 7 1 7 8
M  V30 8 2 8 9
M  V30 9 1 9 10
M  V30 10 1 10 11
M  V30 11 1 11 12
M  V30 12 1 12 13
M  V30 13 2 13 14
M  V30 14 1 14 15
M  V30 15 1 15 16
M  V30 16 2 16 17
M  V30 17 1 17 18
M  V30 18 2 18 19
M  V30 19 1 19 20
M  V30 20 2 20 21
M  V30 21 2 15 22
M  V30 22 1 22 23
M  V30 23 2 23 24
M  V30 24 1 23 25
M  V30 25 1 25 26
M  V30 26 1 12 27
M  V30 27 1 27 28
M  V30 28 1 28 29
M  V30 29 1 29 30
M  V30 30 1 30 31
M  V30 31 2 30 32
M  V30 32 1 9 3
M  V30 33 1 29 10
M  V30 34 1 25 13
M  V30 35 1 21 16
M  V30 36 1 1 33
M  V30 37 1 1 34
M  V30 38 1 1 35
M  V30 39 1 4 36
M  V30 40 1 7 37
M  V30 41 1 8 38
M  V30 42 1 10 39
M  V30 43 1 11 40
M  V30 44 1 11 41
M  V30 45 1 17 42
M  V30 46 1 18 43
M  V30 47 1 20 44
M  V30 48 1 22 45
M  V30 49 1 26 46
M  V30 50 1 26 47
M  V30 51 1 26 48
M  V30 52 1 27 49
M  V30 53 1 27 50
M  V30 54 1 28 51
M  V30 55 1 28 52
M  V30 56 1 31 53
M  V30 57 1 31 54
M  V30 58 1 31 55
M  V30 END BOND
M  V30 END CTAB
M  END
>  <Dataset>  (607) 
ChEMBL_Kinases

>  <Ligand_Instance>  (607) 
nan

>  <PDB_ID>  (607) 
nan

>  <Standardized_SMILES>  (607) 
COc1cc(F)ccc1C1CN(c2nc(-c3ccncn3)cc(=O)n2C)CCN1C(C)=O

>  <Name>  (607) 
nan

>  <Pocket>  (607) 
nan

>  <ATP_Site>  (607) 
nan

>  <Peripheral>  (607) 
nan

>  <Num_H_Atoms_ProtBoundConf>  (607) 
nan

>  <Num_Resolved_Atoms>  (607) 
nan

>  <Num_Not_Resolved_Atoms>  (607) 
nan

$$$$
CHEMBL4070575
     RDKit          3D

  0  0  0  0  0  0  0  0  0  0999 V3000
M  V30 BEGIN CTAB
M  V30 COUNTS 64 68 0 0 0
M  V30 BEGIN ATOM
M  V30 1 C 1.118267 1.873934 3.486529 0
M  V30 2 O 0.925625 1.408569 2.164073 0
M  V30 3 C 1.578271 0.248959 1.795658 0
M  V30 4 C 2.401123 -0.446060 2.689572 0
M  V30 5 C 3.058883 -1.612732 2.322584 0
M  V30 6 F 3.846330 -2.270287 3.191917 0
M  V30 7 C 2.888113 -2.079039 1.055569 0
M  V30 8 C 2.071222 -1.367674 0.205146 0
M  V30 9 C 1.392481 -0.204733 0.512702 0
M  V30 10 C 0.529508 0.545275 -0.411064 0
M  V30 11 C -0.918617 0.310005 -0.369448 0
M  V30 12 N -1.363711 -0.973558 -0.851741 0
M  V30 13 C -2.448513 -1.711795 -0.306223 0
M  V30 14 N -2.312396 -2.638381 0.659532 0
M  V30 15 C -3.376278 -3.312785 1.148012 0
M  V30 16 C -3.209579 -4.313139 2.193160 0
M  V30 17 C -4.237905 -5.030301 2.731656 0
M  V30 18 C -4.097989 -5.984364 3.724466 0
M  V30 19 N -2.844001 -6.202086 4.175334 0
M  V30 20 C -1.784706 -5.528786 3.687061 0
M  V30 21 C -1.947659 -4.566817 2.681910 0
M  V30 22 C -4.602601 -2.998831 0.603183 0
M  V30 23 C -4.729726 -2.058503 -0.374782 0
M  V30 24 O -5.879574 -1.791025 -0.858176 0
M  V30 25 N -3.650657 -1.402907 -0.841361 0
M  V30 26 C -3.852135 -0.411171 -1.882003 0
M  V30 27 C -0.631469 -1.493327 -1.952931 0
M  V30 28 C 0.372467 -0.584384 -2.548580 0
M  V30 29 N 1.034352 0.331307 -1.713907 0
M  V30 30 C 1.822503 1.322744 -2.333385 0
M  V30 31 C 2.499579 2.291079 -1.474923 0
M  V30 32 C 1.967591 3.521497 -1.061569 0
M  V30 33 C 2.648237 4.404723 -0.249800 0
M  V30 34 C 3.922660 4.087541 0.194822 0
M  V30 35 C 4.480321 2.886280 -0.190036 0
M  V30 36 C 3.786930 2.006657 -1.005942 0
M  V30 37 H 0.823674 1.070392 4.179720 0
M  V30 38 H 0.585174 2.826235 3.676303 0
M  V30 39 H 2.209428 2.077747 3.694661 0
M  V30 40 H 2.545842 -0.084811 3.704034 0
M  V30 41 H 3.385933 -2.986239 0.735392 0
M  V30 42 H 1.976783 -1.782517 -0.788814 0
M  V30 43 H 0.697852 1.625986 -0.145393 0
M  V30 44 H -1.430521 0.622261 0.562140 0
M  V30 45 H -1.362687 1.033431 -1.119533 0
M  V30 46 H -5.243557 -4.878311 2.392844 0
M  V30 47 H -4.961266 -6.531703 4.121185 0
M  V30 48 H -0.791385 -5.696495 4.038845 0
M  V30 49 H -1.100453 -4.029008 2.291796 0
M  V30 50 H -5.499421 -3.488976 0.935617 0
M  V30 51 H -4.760261 -0.690139 -2.479330 0
M  V30 52 H -2.974595 -0.195877 -2.488623 0
M  V30 53 H -4.124772 0.576969 -1.406275 0
M  V30 54 H -1.278279 -1.854595 -2.807964 0
M  V30 55 H -0.177258 -2.462377 -1.584642 0
M  V30 56 H -0.010662 -0.025952 -3.444431 0
M  V30 57 H 1.170242 -1.249355 -3.000117 0
M  V30 58 H 1.177776 1.809085 -3.124710 0
M  V30 59 H 2.625453 0.804535 -2.933855 0
M  V30 60 H 0.958711 3.742330 -1.430467 0
M  V30 61 H 2.117249 5.326992 -0.004201 0
M  V30 62 H 4.377645 4.839094 0.825467 0
M  V30 63 H 5.480073 2.672270 0.177555 0
M  V30 64 H 4.336804 1.087766 -1.240502 0
M  V30 END ATOM
M  V30 BEGIN BOND
M  V30 1 1 1 2
M  V30 2 1 2 3
M  V30 3 2 3 4
M  V30 4 1 4 5
M  V30 5 1 5 6
M  V30 6 2 5 7
M  V30 7 1 7 8
M  V30 8 2 8 9
M  V30 9 1 9 10
M  V30 10 1 10 11
M  V30 11 1 11 12
M  V30 12 1 12 13
M  V30 13 2 13 14
M  V30 14 1 14 15
M  V30 15 1 15 16
M  V30 16 2 16 17
M  V30 17 1 17 18
M  V30 18 2 18 19
M  V30 19 1 19 20
M  V30 20 2 20 21
M  V30 21 2 15 22
M  V30 22 1 22 23
M  V30 23 2 23 24
M  V30 24 1 23 25
M  V30 25 1 25 26
M  V30 26 1 12 27
M  V30 27 1 27 28
M  V30 28 1 28 29
M  V30 29 1 29 30
M  V30 30 1 30 31
M  V30 31 2 31 32
M  V30 32 1 32 33
M  V30 33 2 33 34
M  V30 34 1 34 35
M  V30 35 2 35 36
M  V30 36 1 9 3
M  V30 37 1 29 10
M  V30 38 1 36 31
M  V30 39 1 25 13
M  V30 40 1 21 16
M  V30 41 1 1 37
M  V30 42 1 1 38
M  V30 43 1 1 39
M  V30 44 1 4 40
M  V30 45 1 7 41
M  V30 46 1 8 42
M  V30 47 1 10 43
M  V30 48 1 11 44
M  V30 49 1 11 45
M  V30 50 1 17 46
M  V30 51 1 18 47
M  V30 52 1 20 48
M  V30 53 1 21 49
M  V30 54 1 22 50
M  V30 55 1 26 51
M  V30 56 1 26 52
M  V30 57 1 26 53
M  V30 58 1 27 54
M  V30 59 1 27 55
M  V30 60 1 28 56
M  V30 61 1 28 57
M  V30 62 1 30 58
M  V30 63 1 30 59
M  V30 64 1 32 60
M  V30 65 1 33 61
M  V30 66 1 34 62
M  V30 67 1 35 63
M  V30 68 1 36 64
M  V30 END BOND
M  V30 END CTAB
M  END
>  <Dataset>  (608) 
ChEMBL_Kinases

>  <Ligand_Instance>  (608) 
nan

>  <PDB_ID>  (608) 
nan

>  <Standardized_SMILES>  (608) 
COc1cc(F)ccc1C1CN(c2nc(-c3ccncc3)cc(=O)n2C)CCN1Cc1ccccc1

>  <Name>  (608) 
nan

>  <Pocket>  (608) 
nan

>  <ATP_Site>  (608) 
nan

>  <Peripheral>  (608) 
nan

>  <Num_H_Atoms_ProtBoundConf>  (608) 
nan

>  <Num_Resolved_Atoms>  (608) 
nan

>  <Num_Not_Resolved_Atoms>  (608) 
nan

$$$$
CHEMBL4070477
     RDKit          3D

  0  0  0  0  0  0  0  0  0  0999 V3000
M  V30 BEGIN CTAB
M  V30 COUNTS 38 40 0 0 0
M  V30 BEGIN ATOM
M  V30 1 C -1.397346 -5.902975 2.565076 0
M  V30 2 O -0.072716 -5.608412 2.938227 0
M  V30 3 C 0.639277 -4.527833 2.375719 0
M  V30 4 C 1.923155 -4.372286 2.847168 0
M  V30 5 C 2.610905 -3.314386 2.291984 0
M  V30 6 C 2.016572 -2.536382 1.369396 0
M  V30 7 S 2.622042 -1.089972 0.455166 0
M  V30 8 C 1.005052 -0.819591 -0.524508 0
M  V30 9 C 0.955445 0.240848 -1.426069 0
M  V30 10 O 1.817898 0.384084 -2.361376 0
M  V30 11 N 0.091277 1.327014 -1.588453 0
M  V30 12 C 0.396640 2.231715 -2.684460 0
M  V30 13 C -1.036489 1.528101 -0.712191 0
M  V30 14 C -0.588284 2.361441 0.419845 0
M  V30 15 C -0.680187 3.731894 0.338042 0
M  V30 16 C -0.284651 4.605638 1.350176 0
M  V30 17 C 0.222608 3.984823 2.478850 0
M  V30 18 N 0.337956 2.650392 2.619199 0
M  V30 19 C -0.056479 1.868786 1.618498 0
M  V30 20 C 0.243155 -1.830172 -0.044193 0
M  V30 21 C 0.714163 -2.706041 0.901043 0
M  V30 22 C -0.004148 -3.755612 1.434801 0
M  V30 23 H -1.989372 -4.947964 2.665292 0
M  V30 24 H -1.498847 -6.261235 1.540400 0
M  V30 25 H -1.870011 -6.597534 3.301752 0
M  V30 26 H 2.361441 -5.012603 3.582233 0
M  V30 27 H 3.618685 -3.077974 2.567699 0
M  V30 28 H 1.472990 2.258297 -2.853573 0
M  V30 29 H -0.113418 1.863517 -3.622784 0
M  V30 30 H 0.012987 3.247832 -2.439054 0
M  V30 31 H -1.521623 0.587170 -0.399858 0
M  V30 32 H -1.833957 2.095884 -1.242346 0
M  V30 33 H -1.081461 4.242651 -0.552438 0
M  V30 34 H -0.372733 5.672585 1.248129 0
M  V30 35 H 0.535150 4.667573 3.277512 0
M  V30 36 H 0.025834 0.793609 1.705772 0
M  V30 37 H -0.725821 -1.808818 -0.515940 0
M  V30 38 H -1.020970 -3.995200 1.157444 0
M  V30 END ATOM
M  V30 BEGIN BOND
M  V30 1 1 1 2
M  V30 2 1 2 3
M  V30 3 2 3 4
M  V30 4 1 4 5
M  V30 5 2 5 6
M  V30 6 1 6 7
M  V30 7 1 7 8
M  V30 8 1 8 9
M  V30 9 2 9 10
M  V30 10 1 9 11
M  V30 11 1 11 12
M  V30 12 1 11 13
M  V30 13 1 13 14
M  V30 14 2 14 15
M  V30 15 1 15 16
M  V30 16 2 16 17
M  V30 17 1 17 18
M  V30 18 2 18 19
M  V30 19 2 8 20
M  V30 20 1 20 21
M  V30 21 2 21 22
M  V30 22 1 22 3
M  V30 23 1 21 6
M  V30 24 1 19 14
M  V30 25 1 1 23
M  V30 26 1 1 24
M  V30 27 1 1 25
M  V30 28 1 4 26
M  V30 29 1 5 27
M  V30 30 1 12 28
M  V30 31 1 12 29
M  V30 32 1 12 30
M  V30 33 1 13 31
M  V30 34 1 13 32
M  V30 35 1 15 33
M  V30 36 1 16 34
M  V30 37 1 17 35
M  V30 38 1 19 36
M  V30 39 1 20 37
M  V30 40 1 22 38
M  V30 END BOND
M  V30 END CTAB
M  END
>  <Dataset>  (609) 
ChEMBL_Kinases

>  <Ligand_Instance>  (609) 
nan

>  <PDB_ID>  (609) 
nan

>  <Standardized_SMILES>  (609) 
COc1ccc2sc(C(=O)N(C)Cc3cccnc3)cc2c1

>  <Name>  (609) 
nan

>  <Pocket>  (609) 
nan

>  <ATP_Site>  (609) 
nan

>  <Peripheral>  (609) 
nan

>  <Num_H_Atoms_ProtBoundConf>  (609) 
nan

>  <Num_Resolved_Atoms>  (609) 
nan

>  <Num_Not_Resolved_Atoms>  (609) 
nan

$$$$
CHEMBL407047
     RDKit          3D

  0  0  0  0  0  0  0  0  0  0999 V3000
M  V30 BEGIN CTAB
M  V30 COUNTS 38 40 0 0 0
M  V30 BEGIN ATOM
M  V30 1 C -1.024955 -1.470006 6.387277 0
M  V30 2 N -0.978119 -1.564388 4.915649 0
M  V30 3 C -1.095960 -2.695362 4.108780 0
M  V30 4 O -1.260519 -3.858271 4.556549 0
M  V30 5 C -1.025277 -2.522709 2.667308 0
M  V30 6 C -1.039683 -3.563658 1.772709 0
M  V30 7 C -0.989791 -3.409449 0.407937 0
M  V30 8 C -0.920166 -2.153516 -0.151876 0
M  V30 9 C -0.862590 -1.927780 -1.616416 0
M  V30 10 C -0.900203 -1.021999 0.671874 0
M  V30 11 N -0.853787 0.309819 0.230333 0
M  V30 12 C -0.040809 1.223610 -0.457188 0
M  V30 13 N -0.558512 2.452766 -0.623258 0
M  V30 14 C 0.091595 3.436855 -1.240688 0
M  V30 15 N 1.339857 3.214444 -1.736001 0
M  V30 16 C 1.833505 1.982901 -1.558687 0
M  V30 17 C 1.229668 0.925861 -0.938838 0
M  V30 18 C 1.985207 -0.212699 -0.906022 0
M  V30 19 N 3.113130 0.174256 -1.543856 0
M  V30 20 N 3.043039 1.439332 -1.928417 0
M  V30 21 C 4.153560 2.085339 -2.640745 0
M  V30 22 C -0.955038 -1.293598 2.048900 0
M  V30 23 H -1.878677 -0.826464 6.671237 0
M  V30 24 H -0.065744 -1.064149 6.750662 0
M  V30 25 H -1.187354 -2.478804 6.821376 0
M  V30 26 H -0.831301 -0.565314 4.618177 0
M  V30 27 H -1.093575 -4.577063 2.140805 0
M  V30 28 H -1.005591 -4.282428 -0.248158 0
M  V30 29 H -1.278114 -0.946400 -1.906730 0
M  V30 30 H 0.147300 -2.131481 -2.040305 0
M  V30 31 H -1.554540 -2.688293 -2.083142 0
M  V30 32 H -1.807034 0.636828 0.579461 0
M  V30 33 H -0.403072 4.411211 -1.333450 0
M  V30 34 H 1.700991 -1.148551 -0.464272 0
M  V30 35 H 4.581807 1.392080 -3.404142 0
M  V30 36 H 3.797565 2.988710 -3.149880 0
M  V30 37 H 5.003960 2.300481 -1.943848 0
M  V30 38 H -0.936053 -0.393245 2.649066 0
M  V30 END ATOM
M  V30 BEGIN BOND
M  V30 1 1 1 2
M  V30 2 1 2 3
M  V30 3 2 3 4
M  V30 4 1 3 5
M  V30 5 2 5 6
M  V30 6 1 6 7
M  V30 7 2 7 8
M  V30 8 1 8 9
M  V30 9 1 8 10
M  V30 10 1 10 11
M  V30 11 1 11 12
M  V30 12 2 12 13
M  V30 13 1 13 14
M  V30 14 2 14 15
M  V30 15 1 15 16
M  V30 16 2 16 17
M  V30 17 1 17 18
M  V30 18 2 18 19
M  V30 19 1 19 20
M  V30 20 1 20 21
M  V30 21 2 10 22
M  V30 22 1 22 5
M  V30 23 1 17 12
M  V30 24 1 20 16
M  V30 25 1 1 23
M  V30 26 1 1 24
M  V30 27 1 1 25
M  V30 28 1 2 26
M  V30 29 1 6 27
M  V30 30 1 7 28
M  V30 31 1 9 29
M  V30 32 1 9 30
M  V30 33 1 9 31
M  V30 34 1 11 32
M  V30 35 1 14 33
M  V30 36 1 18 34
M  V30 37 1 21 35
M  V30 38 1 21 36
M  V30 39 1 21 37
M  V30 40 1 22 38
M  V30 END BOND
M  V30 END CTAB
M  END
>  <Dataset>  (610) 
ChEMBL_Kinases

>  <Ligand_Instance>  (610) 
nan

>  <PDB_ID>  (610) 
nan

>  <Standardized_SMILES>  (610) 
CNC(=O)c1ccc(C)c(Nc2ncnc3c2cnn3C)c1

>  <Name>  (610) 
nan

>  <Pocket>  (610) 
nan

>  <ATP_Site>  (610) 
nan

>  <Peripheral>  (610) 
nan

>  <Num_H_Atoms_ProtBoundConf>  (610) 
nan

>  <Num_Resolved_Atoms>  (610) 
nan

>  <Num_Not_Resolved_Atoms>  (610) 
nan

$$$$
CHEMBL4860404
     RDKit          3D

  0  0  0  0  0  0  0  0  0  0999 V3000
M  V30 BEGIN CTAB
M  V30 COUNTS 33 35 0 0 0
M  V30 BEGIN ATOM
M  V30 1 C -1.075580 -4.676100 2.811292 0
M  V30 2 S -1.352025 -5.336633 1.168685 0
M  V30 3 O -2.397059 -6.401925 1.312118 0
M  V30 4 O -0.051967 -5.849719 0.667348 0
M  V30 5 N -1.978181 -4.060257 0.172248 0
M  V30 6 C -1.191590 -2.894564 -0.055593 0
M  V30 7 C 0.157002 -2.917936 -0.372327 0
M  V30 8 C 0.838752 -1.722336 -0.576600 0
M  V30 9 C 0.230060 -0.487520 -0.478416 0
M  V30 10 C 0.959606 0.756737 -0.695706 0
M  V30 11 N 1.837633 1.053734 -1.689541 0
M  V30 12 N 2.299683 2.282171 -1.558525 0
M  V30 13 C 1.766654 2.883010 -0.478701 0
M  V30 14 C 1.875616 4.117963 0.128778 0
M  V30 15 C 1.176412 4.449357 1.266608 0
M  V30 16 F 1.264909 5.654429 1.883251 0
M  V30 17 C 0.326838 3.493293 1.820344 0
M  V30 18 C 0.231658 2.264807 1.198360 0
M  V30 19 C 0.918789 1.911464 0.063298 0
M  V30 20 C -1.108189 -0.441392 -0.164952 0
M  V30 21 C -1.782302 -1.630939 0.037300 0
M  V30 22 H -0.343360 -5.300985 3.350807 0
M  V30 23 H -0.629471 -3.647005 2.720343 0
M  V30 24 H -1.996243 -4.579994 3.390412 0
M  V30 25 H -2.906779 -4.002475 -0.324927 0
M  V30 26 H 0.629451 -3.887449 -0.448134 0
M  V30 27 H 1.886921 -1.799722 -0.820619 0
M  V30 28 H 2.990169 2.773550 -2.182800 0
M  V30 29 H 2.538801 4.859785 -0.306212 0
M  V30 30 H -0.220347 3.758112 2.714121 0
M  V30 31 H -0.430480 1.566842 1.658699 0
M  V30 32 H -1.677880 0.454232 -0.063530 0
M  V30 33 H -2.846521 -1.624610 0.287678 0
M  V30 END ATOM
M  V30 BEGIN BOND
M  V30 1 1 1 2
M  V30 2 2 2 3
M  V30 3 2 2 4
M  V30 4 1 2 5
M  V30 5 1 5 6
M  V30 6 2 6 7
M  V30 7 1 7 8
M  V30 8 2 8 9
M  V30 9 1 9 10
M  V30 10 2 10 11
M  V30 11 1 11 12
M  V30 12 1 12 13
M  V30 13 2 13 14
M  V30 14 1 14 15
M  V30 15 1 15 16
M  V30 16 2 15 17
M  V30 17 1 17 18
M  V30 18 2 18 19
M  V30 19 1 9 20
M  V30 20 2 20 21
M  V30 21 1 21 6
M  V30 22 1 19 10
M  V30 23 1 19 13
M  V30 24 1 1 22
M  V30 25 1 1 23
M  V30 26 1 1 24
M  V30 27 1 5 25
M  V30 28 1 7 26
M  V30 29 1 8 27
M  V30 30 1 12 28
M  V30 31 1 14 29
M  V30 32 1 17 30
M  V30 33 1 18 31
M  V30 34 1 20 32
M  V30 35 1 21 33
M  V30 END BOND
M  V30 END CTAB
M  END
>  <Dataset>  (611) 
ChEMBL_Kinases

>  <Ligand_Instance>  (611) 
nan

>  <PDB_ID>  (611) 
nan

>  <Standardized_SMILES>  (611) 
CS(=O)(=O)Nc1ccc(-c2n[nH]c3cc(F)ccc23)cc1

>  <Name>  (611) 
nan

>  <Pocket>  (611) 
nan

>  <ATP_Site>  (611) 
nan

>  <Peripheral>  (611) 
nan

>  <Num_H_Atoms_ProtBoundConf>  (611) 
nan

>  <Num_Resolved_Atoms>  (611) 
nan

>  <Num_Not_Resolved_Atoms>  (611) 
nan

$$$$
CHEMBL407046
     RDKit          3D

  0  0  0  0  0  0  0  0  0  0999 V3000
M  V30 BEGIN CTAB
M  V30 COUNTS 47 49 0 0 0
M  V30 BEGIN ATOM
M  V30 1 C 3.880134 -6.309472 -0.257456 0
M  V30 2 N 3.405455 -5.225125 -1.104524 0
M  V30 3 C 3.112074 -4.022430 -0.368292 0
M  V30 4 O 3.334983 -4.182829 0.854680 0
M  V30 5 C 2.627260 -2.860254 -1.104065 0
M  V30 6 C 2.399471 -2.741294 -2.459700 0
M  V30 7 C 1.938115 -1.536782 -2.926855 0
M  V30 8 C 1.694509 -0.451297 -2.110672 0
M  V30 9 C 1.193599 0.820283 -2.703566 0
M  V30 10 C 1.920764 -0.565058 -0.753750 0
M  V30 11 N 1.667847 0.557436 0.082998 0
M  V30 12 C 0.541145 1.349052 0.393044 0
M  V30 13 N 0.111988 2.461972 -0.220283 0
M  V30 14 C -0.994183 3.090053 0.218589 0
M  V30 15 N -1.724794 2.645548 1.283124 0
M  V30 16 C -1.317912 1.531461 1.917741 0
M  V30 17 C -0.173628 0.857724 1.485397 0
M  V30 18 C -0.077460 -0.213326 2.363537 0
M  V30 19 N -1.089289 -0.144353 3.220703 0
M  V30 20 N -1.874425 0.915919 2.978277 0
M  V30 21 C -3.054928 1.294127 3.709951 0
M  V30 22 C -3.017301 2.776677 3.954307 0
M  V30 23 C -3.031811 0.571213 5.041780 0
M  V30 24 C -4.329734 0.880187 2.977324 0
M  V30 25 C 2.388676 -1.786167 -0.278741 0
M  V30 26 H 3.751372 -7.264798 -0.839271 0
M  V30 27 H 4.970057 -6.201159 -0.098378 0
M  V30 28 H 3.337414 -6.388212 0.692738 0
M  V30 29 H 3.297233 -5.329810 -2.130207 0
M  V30 30 H 2.612712 -3.627078 -3.021839 0
M  V30 31 H 1.771902 -1.485522 -4.000066 0
M  V30 32 H 1.326909 0.775871 -3.811305 0
M  V30 33 H 1.764495 1.697405 -2.347470 0
M  V30 34 H 0.108702 0.888365 -2.536461 0
M  V30 35 H 2.389406 1.015966 0.668383 0
M  V30 36 H -1.336729 3.995889 -0.286755 0
M  V30 37 H 0.706079 -0.947811 2.313730 0
M  V30 38 H -3.672091 2.977850 4.830530 0
M  V30 39 H -1.991967 3.097958 4.175078 0
M  V30 40 H -3.367827 3.334260 3.061073 0
M  V30 41 H -2.228053 0.925359 5.696060 0
M  V30 42 H -2.909792 -0.504399 4.864993 0
M  V30 43 H -4.014706 0.736827 5.530236 0
M  V30 44 H -5.013515 1.753980 2.950441 0
M  V30 45 H -4.839493 0.041969 3.490446 0
M  V30 46 H -4.137480 0.618423 1.913171 0
M  V30 47 H 2.534901 -1.768871 0.812920 0
M  V30 END ATOM
M  V30 BEGIN BOND
M  V30 1 1 1 2
M  V30 2 1 2 3
M  V30 3 2 3 4
M  V30 4 1 3 5
M  V30 5 2 5 6
M  V30 6 1 6 7
M  V30 7 2 7 8
M  V30 8 1 8 9
M  V30 9 1 8 10
M  V30 10 1 10 11
M  V30 11 1 11 12
M  V30 12 2 12 13
M  V30 13 1 13 14
M  V30 14 2 14 15
M  V30 15 1 15 16
M  V30 16 2 16 17
M  V30 17 1 17 18
M  V30 18 2 18 19
M  V30 19 1 19 20
M  V30 20 1 20 21
M  V30 21 1 21 22
M  V30 22 1 21 23
M  V30 23 1 21 24
M  V30 24 2 10 25
M  V30 25 1 25 5
M  V30 26 1 17 12
M  V30 27 1 20 16
M  V30 28 1 1 26
M  V30 29 1 1 27
M  V30 30 1 1 28
M  V30 31 1 2 29
M  V30 32 1 6 30
M  V30 33 1 7 31
M  V30 34 1 9 32
M  V30 35 1 9 33
M  V30 36 1 9 34
M  V30 37 1 11 35
M  V30 38 1 14 36
M  V30 39 1 18 37
M  V30 40 1 22 38
M  V30 41 1 22 39
M  V30 42 1 22 40
M  V30 43 1 23 41
M  V30 44 1 23 42
M  V30 45 1 23 43
M  V30 46 1 24 44
M  V30 47 1 24 45
M  V30 48 1 24 46
M  V30 49 1 25 47
M  V30 END BOND
M  V30 END CTAB
M  END
>  <Dataset>  (612) 
ChEMBL_Kinases

>  <Ligand_Instance>  (612) 
nan

>  <PDB_ID>  (612) 
nan

>  <Standardized_SMILES>  (612) 
CNC(=O)c1ccc(C)c(Nc2ncnc3c2cnn3C(C)(C)C)c1

>  <Name>  (612) 
nan

>  <Pocket>  (612) 
nan

>  <ATP_Site>  (612) 
nan

>  <Peripheral>  (612) 
nan

>  <Num_H_Atoms_ProtBoundConf>  (612) 
nan

>  <Num_Resolved_Atoms>  (612) 
nan

>  <Num_Not_Resolved_Atoms>  (612) 
nan

$$$$
CHEMBL4070459
     RDKit          3D

  0  0  0  0  0  0  0  0  0  0999 V3000
M  V30 BEGIN CTAB
M  V30 COUNTS 59 63 0 0 0
M  V30 BEGIN ATOM
M  V30 1 C 1.825711 -3.231799 4.400275 0
M  V30 2 N 2.965715 -2.362539 4.199866 0
M  V30 3 C 2.905865 -1.019882 4.113977 0
M  V30 4 C 4.177613 -0.520943 3.922828 0
M  V30 5 C 4.804237 0.782629 3.749183 0
M  V30 6 C 5.936192 1.080779 4.517172 0
M  V30 7 C 6.628967 2.267155 4.471700 0
M  V30 8 N 6.184169 3.208380 3.626497 0
M  V30 9 C 5.107256 2.963973 2.875501 0
M  V30 10 C 4.396883 1.789143 2.900466 0
M  V30 11 C 3.244542 1.543708 2.075794 0
M  V30 12 C 2.721343 2.400893 1.215544 0
M  V30 13 C 1.561521 2.219416 0.352799 0
M  V30 14 O 1.110468 3.073990 -0.448330 0
M  V30 15 N 0.812489 1.014769 0.342931 0
M  V30 16 C -0.327255 0.695359 -0.434529 0
M  V30 17 C -1.649056 0.927802 -0.061048 0
M  V30 18 C -2.672829 0.566689 -0.913414 0
M  V30 19 C -2.463533 -0.022305 -2.137224 0
M  V30 20 C -3.663565 -0.356376 -2.961719 0
M  V30 21 N -4.109994 -1.624650 -2.672016 0
M  V30 22 C -4.511564 -2.053265 -1.405510 0
M  V30 23 C -3.358196 -3.012873 -1.048442 0
M  V30 24 C -2.775538 -3.452869 -2.373023 0
M  V30 25 C -3.732123 -2.778452 -3.373204 0
M  V30 26 C -4.886253 -3.788203 -3.481196 0
M  V30 27 O -5.302058 -4.131739 -2.193131 0
M  V30 28 C -5.739432 -2.972626 -1.564771 0
M  V30 29 C -1.144143 -0.238073 -2.476066 0
M  V30 30 C -0.101591 0.112841 -1.643611 0
M  V30 31 C 5.003047 -1.652967 3.900146 0
M  V30 32 N 4.225729 -2.759999 4.072607 0
M  V30 33 H 1.918253 -4.175060 3.810572 0
M  V30 34 H 1.827207 -3.497027 5.484709 0
M  V30 35 H 0.897395 -2.688310 4.207872 0
M  V30 36 H 2.088242 -0.341804 4.170506 0
M  V30 37 H 6.291177 0.303214 5.205126 0
M  V30 38 H 7.492696 2.386222 5.113349 0
M  V30 39 H 4.829410 3.778857 2.231164 0
M  V30 40 H 2.695696 0.616723 2.084350 0
M  V30 41 H 3.191953 3.381876 1.110748 0
M  V30 42 H 1.059134 0.205710 0.953480 0
M  V30 43 H -1.761250 1.393881 0.911970 0
M  V30 44 H -3.630659 0.818462 -0.474022 0
M  V30 45 H -3.288404 -0.226211 -4.027332 0
M  V30 46 H -4.409961 0.466692 -2.818951 0
M  V30 47 H -4.679878 -1.315912 -0.625008 0
M  V30 48 H -2.603879 -2.363597 -0.515289 0
M  V30 49 H -3.693438 -3.854709 -0.439228 0
M  V30 50 H -2.814568 -4.555541 -2.494180 0
M  V30 51 H -1.783173 -3.030723 -2.528941 0
M  V30 52 H -3.285616 -2.650298 -4.359104 0
M  V30 53 H -5.696397 -3.426869 -4.131143 0
M  V30 54 H -4.456374 -4.699943 -3.938993 0
M  V30 55 H -6.488930 -2.467776 -2.198866 0
M  V30 56 H -6.180972 -3.165948 -0.574121 0
M  V30 57 H -0.987765 -0.710222 -3.458709 0
M  V30 58 H 0.894200 -0.105672 -2.016942 0
M  V30 59 H 6.070154 -1.758915 3.776479 0
M  V30 END ATOM
M  V30 BEGIN BOND
M  V30 1 1 1 2
M  V30 2 1 2 3
M  V30 3 2 3 4
M  V30 4 1 4 5
M  V30 5 2 5 6
M  V30 6 1 6 7
M  V30 7 2 7 8
M  V30 8 1 8 9
M  V30 9 2 9 10
M  V30 10 1 10 11
M  V30 11 2 11 12
M  V30 12 1 12 13
M  V30 13 2 13 14
M  V30 14 1 13 15
M  V30 15 1 15 16
M  V30 16 2 16 17
M  V30 17 1 17 18
M  V30 18 2 18 19
M  V30 19 1 19 20
M  V30 20 1 20 21
M  V30 21 1 21 22
M  V30 22 1 22 23
M  V30 23 1 23 24
M  V30 24 1 24 25
M  V30 25 1 25 26
M  V30 26 1 26 27
M  V30 27 1 27 28
M  V30 28 1 19 29
M  V30 29 2 29 30
M  V30 30 1 4 31
M  V30 31 2 31 32
M  V30 32 1 32 2
M  V30 33 1 10 5
M  V30 34 1 30 16
M  V30 35 1 25 21
M  V30 36 1 28 22
M  V30 37 1 1 33
M  V30 38 1 1 34
M  V30 39 1 1 35
M  V30 40 1 3 36
M  V30 41 1 6 37
M  V30 42 1 7 38
M  V30 43 1 9 39
M  V30 44 1 11 40
M  V30 45 1 12 41
M  V30 46 1 15 42
M  V30 47 1 17 43
M  V30 48 1 18 44
M  V30 49 1 20 45
M  V30 50 1 20 46
M  V30 51 1 22 47
M  V30 52 1 23 48
M  V30 53 1 23 49
M  V30 54 1 24 50
M  V30 55 1 24 51
M  V30 56 1 25 52
M  V30 57 1 26 53
M  V30 58 1 26 54
M  V30 59 1 28 55
M  V30 60 1 28 56
M  V30 61 1 29 57
M  V30 62 1 30 58
M  V30 63 1 31 59
M  V30 END BOND
M  V30 END CTAB
M  END
>  <Dataset>  (613) 
ChEMBL_Kinases

>  <Ligand_Instance>  (613) 
nan

>  <PDB_ID>  (613) 
nan

>  <Standardized_SMILES>  (613) 
Cn1cc(-c2ccncc2/C=C/C(=O)Nc2ccc(CN3C4CCC3COC4)cc2)cn1

>  <Name>  (613) 
nan

>  <Pocket>  (613) 
nan

>  <ATP_Site>  (613) 
nan

>  <Peripheral>  (613) 
nan

>  <Num_H_Atoms_ProtBoundConf>  (613) 
nan

>  <Num_Resolved_Atoms>  (613) 
nan

>  <Num_Not_Resolved_Atoms>  (613) 
nan

$$$$
CHEMBL4070845
     RDKit          3D

  0  0  0  0  0  0  0  0  0  0999 V3000
M  V30 BEGIN CTAB
M  V30 COUNTS 49 51 0 0 0
M  V30 BEGIN ATOM
M  V30 1 C 1.136744 -3.271012 3.658801 0
M  V30 2 N 2.136906 -4.050336 2.956203 0
M  V30 3 C 2.667124 -5.211695 3.624123 0
M  V30 4 C 2.568438 -3.668324 1.656193 0
M  V30 5 O 3.434333 -4.369260 1.083562 0
M  V30 6 C 2.003593 -2.484061 1.021807 0
M  V30 7 C 2.806100 -1.368410 0.926426 0
M  V30 8 C 2.220799 -0.279743 0.317088 0
M  V30 9 C 0.950600 -0.198450 -0.190955 0
M  V30 10 O 0.360287 0.841324 -0.784992 0
M  V30 11 C 0.710015 2.125993 -1.108177 0
M  V30 12 C 1.078622 3.036758 -0.024896 0
M  V30 13 C 2.275710 3.406130 0.541641 0
M  V30 14 C 2.401213 4.287222 1.579862 0
M  V30 15 C 1.290136 4.879548 2.139760 0
M  V30 16 C 0.069968 4.536327 1.600402 0
M  V30 17 C -0.058924 3.635298 0.538919 0
M  V30 18 C 0.171903 -1.333089 -0.080048 0
M  V30 19 C -1.199373 -1.561238 -0.516791 0
M  V30 20 O -1.819341 -2.659216 -0.359957 0
M  V30 21 N -2.088528 -0.682381 -1.166117 0
M  V30 22 C -3.326269 -1.399480 -1.379308 0
M  V30 23 C -4.197017 -1.254410 -0.318996 0
M  V30 24 C -5.437873 -1.882249 -0.363158 0
M  V30 25 C -5.731409 -2.623269 -1.477238 0
M  V30 26 N -4.868801 -2.756155 -2.507249 0
M  V30 27 C -3.666386 -2.156391 -2.480941 0
M  V30 28 C 0.719401 -2.472239 0.532898 0
M  V30 29 H 1.425975 -2.200328 3.575584 0
M  V30 30 H 1.122653 -3.500924 4.727450 0
M  V30 31 H 0.105424 -3.433356 3.254773 0
M  V30 32 H 3.389953 -5.770472 2.973574 0
M  V30 33 H 1.865127 -5.886953 3.986001 0
M  V30 34 H 3.217489 -4.863815 4.524571 0
M  V30 35 H 3.804307 -1.360626 1.299852 0
M  V30 36 H 2.850805 0.593248 0.238598 0
M  V30 37 H -0.096913 2.570669 -1.768717 0
M  V30 38 H 1.597157 2.095811 -1.821052 0
M  V30 39 H 3.110421 2.918973 0.057767 0
M  V30 40 H 3.385823 4.497663 1.938576 0
M  V30 41 H 1.379897 5.567858 2.948808 0
M  V30 42 H -0.785691 5.022659 2.066654 0
M  V30 43 H -1.091547 3.486841 0.246877 0
M  V30 44 H -1.731424 0.275161 -1.371806 0
M  V30 45 H -4.002105 -0.676683 0.580402 0
M  V30 46 H -6.139360 -1.775066 0.473425 0
M  V30 47 H -6.694247 -3.120630 -1.530140 0
M  V30 48 H -2.914907 -2.199886 -3.242379 0
M  V30 49 H 0.186095 -3.414788 0.667917 0
M  V30 END ATOM
M  V30 BEGIN BOND
M  V30 1 1 1 2
M  V30 2 1 2 3
M  V30 3 1 2 4
M  V30 4 2 4 5
M  V30 5 1 4 6
M  V30 6 2 6 7
M  V30 7 1 7 8
M  V30 8 2 8 9
M  V30 9 1 9 10
M  V30 10 1 10 11
M  V30 11 1 11 12
M  V30 12 2 12 13
M  V30 13 1 13 14
M  V30 14 2 14 15
M  V30 15 1 15 16
M  V30 16 2 16 17
M  V30 17 1 9 18
M  V30 18 1 18 19
M  V30 19 2 19 20
M  V30 20 1 19 21
M  V30 21 1 21 22
M  V30 22 2 22 23
M  V30 23 1 23 24
M  V30 24 2 24 25
M  V30 25 1 25 26
M  V30 26 2 26 27
M  V30 27 2 18 28
M  V30 28 1 28 6
M  V30 29 1 17 12
M  V30 30 1 27 22
M  V30 31 1 1 29
M  V30 32 1 1 30
M  V30 33 1 1 31
M  V30 34 1 3 32
M  V30 35 1 3 33
M  V30 36 1 3 34
M  V30 37 1 7 35
M  V30 38 1 8 36
M  V30 39 1 11 37
M  V30 40 1 11 38
M  V30 41 1 13 39
M  V30 42 1 14 40
M  V30 43 1 15 41
M  V30 44 1 16 42
M  V30 45 1 17 43
M  V30 46 1 21 44
M  V30 47 1 23 45
M  V30 48 1 24 46
M  V30 49 1 25 47
M  V30 50 1 27 48
M  V30 51 1 28 49
M  V30 END BOND
M  V30 END CTAB
M  END
>  <Dataset>  (614) 
ChEMBL_Kinases

>  <Ligand_Instance>  (614) 
nan

>  <PDB_ID>  (614) 
nan

>  <Standardized_SMILES>  (614) 
CN(C)C(=O)c1ccc(OCc2ccccc2)c(C(=O)Nc2cccnc2)c1

>  <Name>  (614) 
nan

>  <Pocket>  (614) 
nan

>  <ATP_Site>  (614) 
nan

>  <Peripheral>  (614) 
nan

>  <Num_H_Atoms_ProtBoundConf>  (614) 
nan

>  <Num_Resolved_Atoms>  (614) 
nan

>  <Num_Not_Resolved_Atoms>  (614) 
nan

$$$$
CHEMBL4071842
     RDKit          3D

  0  0  0  0  0  0  0  0  0  0999 V3000
M  V30 BEGIN CTAB
M  V30 COUNTS 64 68 0 0 0
M  V30 BEGIN ATOM
M  V30 1 C 3.701082 -2.739189 6.808409 0
M  V30 2 N 3.225785 -2.335550 5.532839 0
M  V30 3 C 3.302320 -3.305073 4.484310 0
M  V30 4 C 3.731796 -2.746670 3.159770 0
M  V30 5 N 3.198894 -1.412299 2.928774 0
M  V30 6 C 2.634800 -0.822320 1.741430 0
M  V30 7 C 1.371466 -0.231295 1.819487 0
M  V30 8 C 0.840684 0.364956 0.680516 0
M  V30 9 N 1.492729 0.397103 -0.493902 0
M  V30 10 C 1.167912 0.933355 -1.709182 0
M  V30 11 C -0.104155 1.632752 -1.913735 0
M  V30 12 C -0.365110 2.895917 -2.375444 0
M  V30 13 C -1.668002 3.307989 -2.539644 0
M  V30 14 C -2.773797 2.475670 -2.249450 0
M  V30 15 C -3.964327 3.262946 -2.532105 0
M  V30 16 O -4.069974 4.434593 -2.963159 0
M  V30 17 N -5.261620 2.772543 -2.343432 0
M  V30 18 O -6.523044 3.225274 -2.502992 0
M  V30 19 C -2.537178 1.178176 -1.775216 0
M  V30 20 O -3.696046 0.603874 -1.588661 0
M  V30 21 C -4.198742 -0.571904 -1.147060 0
M  V30 22 C -3.655671 -1.814320 -1.757218 0
M  V30 23 C -3.947661 -2.141521 -3.059252 0
M  V30 24 C -3.302477 -3.229936 -3.658250 0
M  V30 25 C -2.379160 -3.977594 -2.960437 0
M  V30 26 C -2.123887 -3.600078 -1.637449 0
M  V30 27 C -2.736461 -2.523387 -0.976743 0
M  V30 28 C -2.474345 -2.331098 0.461108 0
M  V30 29 F -3.659588 -2.594165 1.196056 0
M  V30 30 F -1.603005 -3.334313 0.893905 0
M  V30 31 F -1.995381 -1.110086 0.776589 0
M  V30 32 C -1.208295 0.847148 -1.640097 0
M  V30 33 C 2.237896 0.674120 -2.540380 0
M  V30 34 N 3.194589 -0.004180 -1.859526 0
M  V30 35 C 2.727401 -0.173359 -0.592029 0
M  V30 36 C 3.307113 -0.785167 0.516621 0
M  V30 37 C 3.193560 -0.399261 3.993074 0
M  V30 38 C 3.767327 -1.054769 5.197418 0
M  V30 39 H 3.067029 -2.221968 7.569300 0
M  V30 40 H 3.717435 -3.826571 6.978361 0
M  V30 41 H 4.723498 -2.292101 6.969098 0
M  V30 42 H 2.314179 -3.802742 4.402071 0
M  V30 43 H 4.029423 -4.077912 4.777647 0
M  V30 44 H 4.830685 -2.691892 3.041888 0
M  V30 45 H 3.345885 -3.388168 2.345617 0
M  V30 46 H 0.780876 -0.203391 2.698182 0
M  V30 47 H -0.157510 0.830706 0.765095 0
M  V30 48 H 0.518141 3.463020 -2.570230 0
M  V30 49 H -1.672708 4.342509 -2.913306 0
M  V30 50 H -5.495076 1.830075 -1.996011 0
M  V30 51 H -6.852953 3.643823 -1.653439 0
M  V30 52 H -5.322392 -0.579332 -1.358014 0
M  V30 53 H -4.130067 -0.624868 -0.030532 0
M  V30 54 H -4.659513 -1.594211 -3.651253 0
M  V30 55 H -3.471545 -3.562651 -4.689205 0
M  V30 56 H -1.831716 -4.828495 -3.351787 0
M  V30 57 H -1.383942 -4.200661 -1.084024 0
M  V30 58 H -1.083944 -0.167181 -1.311668 0
M  V30 59 H 2.161454 1.029343 -3.559888 0
M  V30 60 H 4.287147 -1.241594 0.464571 0
M  V30 61 H 3.882276 0.429345 3.686916 0
M  V30 62 H 2.167991 -0.067660 4.160450 0
M  V30 63 H 4.873214 -1.200328 5.019304 0
M  V30 64 H 3.725168 -0.351358 6.049632 0
M  V30 END ATOM
M  V30 BEGIN BOND
M  V30 1 1 1 2
M  V30 2 1 2 3
M  V30 3 1 3 4
M  V30 4 1 4 5
M  V30 5 1 5 6
M  V30 6 1 6 7
M  V30 7 2 7 8
M  V30 8 1 8 9
M  V30 9 1 9 10
M  V30 10 1 10 11
M  V30 11 2 11 12
M  V30 12 1 12 13
M  V30 13 2 13 14
M  V30 14 1 14 15
M  V30 15 2 15 16
M  V30 16 1 15 17
M  V30 17 1 17 18
M  V30 18 1 14 19
M  V30 19 1 19 20
M  V30 20 1 20 21
M  V30 21 1 21 22
M  V30 22 2 22 23
M  V30 23 1 23 24
M  V30 24 2 24 25
M  V30 25 1 25 26
M  V30 26 2 26 27
M  V30 27 1 27 28
M  V30 28 1 28 29
M  V30 29 1 28 30
M  V30 30 1 28 31
M  V30 31 2 19 32
M  V30 32 2 10 33
M  V30 33 1 33 34
M  V30 34 2 34 35
M  V30 35 1 35 36
M  V30 36 1 5 37
M  V30 37 1 37 38
M  V30 38 1 38 2
M  V30 39 2 36 6
M  V30 40 1 35 9
M  V30 41 1 32 11
M  V30 42 1 27 22
M  V30 43 1 1 39
M  V30 44 1 1 40
M  V30 45 1 1 41
M  V30 46 1 3 42
M  V30 47 1 3 43
M  V30 48 1 4 44
M  V30 49 1 4 45
M  V30 50 1 7 46
M  V30 51 1 8 47
M  V30 52 1 12 48
M  V30 53 1 13 49
M  V30 54 1 17 50
M  V30 55 1 18 51
M  V30 56 1 21 52
M  V30 57 1 21 53
M  V30 58 1 23 54
M  V30 59 1 24 55
M  V30 60 1 25 56
M  V30 61 1 26 57
M  V30 62 1 32 58
M  V30 63 1 33 59
M  V30 64 1 36 60
M  V30 65 1 37 61
M  V30 66 1 37 62
M  V30 67 1 38 63
M  V30 68 1 38 64
M  V30 END BOND
M  V30 END CTAB
M  END
>  <Dataset>  (615) 
ChEMBL_Kinases

>  <Ligand_Instance>  (615) 
nan

>  <PDB_ID>  (615) 
nan

>  <Standardized_SMILES>  (615) 
CN1CCN(c2ccn3c(-c4ccc(C(=O)NO)c(OCc5ccccc5C(F)(F)F)c4)cnc3c2)CC1

>  <Name>  (615) 
nan

>  <Pocket>  (615) 
nan

>  <ATP_Site>  (615) 
nan

>  <Peripheral>  (615) 
nan

>  <Num_H_Atoms_ProtBoundConf>  (615) 
nan

>  <Num_Resolved_Atoms>  (615) 
nan

>  <Num_Not_Resolved_Atoms>  (615) 
nan

$$$$
CHEMBL4071827
     RDKit          3D

  0  0  0  0  0  0  0  0  0  0999 V3000
M  V30 BEGIN CTAB
M  V30 COUNTS 60 64 0 0 0
M  V30 BEGIN ATOM
M  V30 1 C 3.701629 -5.861064 0.495333 0
M  V30 2 C 4.026380 -4.863419 1.333260 0
M  V30 3 C 2.949055 -3.886060 1.250007 0
M  V30 4 O 2.122177 -4.371909 0.408761 0
M  V30 5 N 2.969352 -2.700337 2.009008 0
M  V30 6 C 2.051674 -1.618743 2.094966 0
M  V30 7 C 1.088141 -1.793123 3.063361 0
M  V30 8 C 0.127640 -0.825467 3.265791 0
M  V30 9 C 0.167466 0.302205 2.477006 0
M  V30 10 C 1.105092 0.531136 1.494571 0
M  V30 11 C 1.229456 1.676375 0.606171 0
M  V30 12 C 2.462401 2.341466 0.566539 0
M  V30 13 N 2.383695 3.390661 -0.284489 0
M  V30 14 C 1.146392 3.440737 -0.806270 0
M  V30 15 N 0.447667 4.214494 -1.684452 0
M  V30 16 C -0.834176 3.952644 -1.981798 0
M  V30 17 C -1.547185 2.902313 -1.440997 0
M  V30 18 C -0.855596 2.089446 -0.534989 0
M  V30 19 C -1.660814 0.993037 -0.012649 0
M  V30 20 N -2.679646 0.835438 0.858219 0
M  V30 21 C -3.033143 -0.443595 0.932783 0
M  V30 22 C -4.157167 -0.708136 1.869324 0
M  V30 23 C -4.515898 -2.154209 1.918834 0
M  V30 24 C -3.359094 -2.996392 2.383653 0
M  V30 25 O -2.962360 -2.619189 3.660116 0
M  V30 26 N -2.228461 -1.116495 0.096976 0
M  V30 27 C -1.372782 -0.277771 -0.503187 0
M  V30 28 C -0.462001 -0.925807 -1.430428 0
M  V30 29 C 0.453740 -1.946541 -1.267057 0
M  V30 30 C 1.201584 -2.369748 -2.336406 0
M  V30 31 C 1.069537 -1.804180 -3.586989 0
M  V30 32 F 1.844166 -2.280218 -4.587384 0
M  V30 33 C 0.161076 -0.780242 -3.783419 0
M  V30 34 C -0.604835 -0.343853 -2.696535 0
M  V30 35 C 0.438346 2.391604 -0.262763 0
M  V30 36 C 2.065064 -0.474338 1.318201 0
M  V30 37 H 4.181131 -6.793423 0.219618 0
M  V30 38 H 2.869102 -6.084331 -0.184707 0
M  V30 39 H 4.980044 -5.141824 1.776026 0
M  V30 40 H 3.821781 -2.583139 2.634871 0
M  V30 41 H 0.985674 -2.659210 3.732028 0
M  V30 42 H -0.647525 -0.915873 4.012478 0
M  V30 43 H -0.552222 1.072011 2.619096 0
M  V30 44 H 3.403094 2.138490 1.091624 0
M  V30 45 H 3.087068 4.106904 -0.570033 0
M  V30 46 H -1.223798 4.674529 -2.697790 0
M  V30 47 H -2.579462 2.778498 -1.749132 0
M  V30 48 H -2.975689 1.757764 1.291729 0
M  V30 49 H -4.017796 -0.233510 2.864959 0
M  V30 50 H -5.075599 -0.182736 1.462391 0
M  V30 51 H -5.410005 -2.333789 2.564882 0
M  V30 52 H -4.861267 -2.448471 0.896672 0
M  V30 53 H -3.621303 -4.076889 2.405190 0
M  V30 54 H -2.494132 -2.805353 1.723479 0
M  V30 55 H -2.917079 -1.646013 3.807668 0
M  V30 56 H 0.451348 -2.292937 -0.248539 0
M  V30 57 H 1.885312 -3.166696 -2.110372 0
M  V30 58 H 0.108954 -0.387829 -4.775359 0
M  V30 59 H -1.266574 0.457162 -3.000332 0
M  V30 60 H 2.887048 -0.479016 0.595355 0
M  V30 END ATOM
M  V30 BEGIN BOND
M  V30 1 2 1 2
M  V30 2 1 2 3
M  V30 3 2 3 4
M  V30 4 1 3 5
M  V30 5 1 5 6
M  V30 6 2 6 7
M  V30 7 1 7 8
M  V30 8 2 8 9
M  V30 9 1 9 10
M  V30 10 1 10 11
M  V30 11 2 11 12
M  V30 12 1 12 13
M  V30 13 1 13 14
M  V30 14 2 14 15
M  V30 15 1 15 16
M  V30 16 2 16 17
M  V30 17 1 17 18
M  V30 18 1 18 19
M  V30 19 1 19 20
M  V30 20 1 20 21
M  V30 21 1 21 22
M  V30 22 1 22 23
M  V30 23 1 23 24
M  V30 24 1 24 25
M  V30 25 2 21 26
M  V30 26 1 26 27
M  V30 27 1 27 28
M  V30 28 2 28 29
M  V30 29 1 29 30
M  V30 30 2 30 31
M  V30 31 1 31 32
M  V30 32 1 31 33
M  V30 33 2 33 34
M  V30 34 2 18 35
M  V30 35 2 10 36
M  V30 36 1 36 6
M  V30 37 1 35 11
M  V30 38 1 35 14
M  V30 39 2 27 19
M  V30 40 1 34 28
M  V30 41 1 1 37
M  V30 42 1 1 38
M  V30 43 1 2 39
M  V30 44 1 5 40
M  V30 45 1 7 41
M  V30 46 1 8 42
M  V30 47 1 9 43
M  V30 48 1 12 44
M  V30 49 1 13 45
M  V30 50 1 16 46
M  V30 51 1 17 47
M  V30 52 1 20 48
M  V30 53 1 22 49
M  V30 54 1 22 50
M  V30 55 1 23 51
M  V30 56 1 23 52
M  V30 57 1 24 53
M  V30 58 1 24 54
M  V30 59 1 25 55
M  V30 60 1 29 56
M  V30 61 1 30 57
M  V30 62 1 33 58
M  V30 63 1 34 59
M  V30 64 1 36 60
M  V30 END BOND
M  V30 END CTAB
M  END
>  <Dataset>  (616) 
ChEMBL_Kinases

>  <Ligand_Instance>  (616) 
nan

>  <PDB_ID>  (616) 
nan

>  <Standardized_SMILES>  (616) 
C=CC(=O)Nc1cccc(-c2c[nH]c3nccc(-c4[nH]c(CCCO)nc4-c4ccc(F)cc4)c23)c1

>  <Name>  (616) 
nan

>  <Pocket>  (616) 
nan

>  <ATP_Site>  (616) 
nan

>  <Peripheral>  (616) 
nan

>  <Num_H_Atoms_ProtBoundConf>  (616) 
nan

>  <Num_Resolved_Atoms>  (616) 
nan

>  <Num_Not_Resolved_Atoms>  (616) 
nan

$$$$
CHEMBL4859912
     RDKit          3D

  0  0  0  0  0  0  0  0  0  0999 V3000
M  V30 BEGIN CTAB
M  V30 COUNTS 37 40 0 0 0
M  V30 BEGIN ATOM
M  V30 1 C 1.326425 -2.472067 1.814738 0
M  V30 2 C 0.102705 -2.919922 1.067024 0
M  V30 3 C 0.038033 -4.423674 1.104343 0
M  V30 4 C 0.821699 -4.777236 -0.151280 0
M  V30 5 C 0.187484 -3.820855 -1.139544 0
M  V30 6 N 0.141324 -2.589516 -0.340884 0
M  V30 7 C 0.137620 -1.312762 -0.917459 0
M  V30 8 N 0.177561 -1.178635 -2.266199 0
M  V30 9 C 0.175911 0.023191 -2.867118 0
M  V30 10 C 0.131385 1.143774 -2.054346 0
M  V30 11 C 0.090155 1.037829 -0.679722 0
M  V30 12 C 0.044353 2.257876 0.120164 0
M  V30 13 C 0.036658 3.557403 -0.341167 0
M  V30 14 N -0.010827 4.372374 0.732789 0
M  V30 15 N -0.033334 3.642055 1.849583 0
M  V30 16 N -0.080182 4.042841 3.128832 0
M  V30 17 C -0.091897 3.041625 4.048447 0
M  V30 18 C -0.060367 1.685469 3.779006 0
M  V30 19 C -0.011923 1.320703 2.429045 0
M  V30 20 C -0.000220 2.341852 1.498924 0
M  V30 21 N 0.093963 -0.200179 -0.128072 0
M  V30 22 H 1.997007 -3.335379 2.077081 0
M  V30 23 H 1.939834 -1.734179 1.282843 0
M  V30 24 H 0.983250 -2.068175 2.806419 0
M  V30 25 H -0.836050 -2.525698 1.549550 0
M  V30 26 H -1.000145 -4.796737 0.925876 0
M  V30 27 H 0.526051 -4.865150 1.975579 0
M  V30 28 H 1.861606 -4.442964 0.007848 0
M  V30 29 H 0.712781 -5.834131 -0.447574 0
M  V30 30 H -0.849312 -4.086554 -1.400032 0
M  V30 31 H 0.833460 -3.693581 -2.030980 0
M  V30 32 H 0.209382 0.071481 -3.962239 0
M  V30 33 H 0.131133 2.098531 -2.565418 0
M  V30 34 H 0.063185 3.901618 -1.376036 0
M  V30 35 H -0.129498 3.332780 5.091691 0
M  V30 36 H -0.074217 0.982706 4.604204 0
M  V30 37 H 0.012652 0.266860 2.217056 0
M  V30 END ATOM
M  V30 BEGIN BOND
M  V30 1 1 1 2
M  V30 2 1 2 3
M  V30 3 1 3 4
M  V30 4 1 4 5
M  V30 5 1 5 6
M  V30 6 1 6 7
M  V30 7 2 7 8
M  V30 8 1 8 9
M  V30 9 2 9 10
M  V30 10 1 10 11
M  V30 11 1 11 12
M  V30 12 1 12 13
M  V30 13 2 13 14
M  V30 14 1 14 15
M  V30 15 1 15 16
M  V30 16 2 16 17
M  V30 17 1 17 18
M  V30 18 2 18 19
M  V30 19 1 19 20
M  V30 20 2 11 21
M  V30 21 1 6 2
M  V30 22 1 21 7
M  V30 23 2 20 12
M  V30 24 1 20 15
M  V30 25 1 1 22
M  V30 26 1 1 23
M  V30 27 1 1 24
M  V30 28 1 2 25
M  V30 29 1 3 26
M  V30 30 1 3 27
M  V30 31 1 4 28
M  V30 32 1 4 29
M  V30 33 1 5 30
M  V30 34 1 5 31
M  V30 35 1 9 32
M  V30 36 1 10 33
M  V30 37 1 13 34
M  V30 38 1 17 35
M  V30 39 1 18 36
M  V30 40 1 19 37
M  V30 END BOND
M  V30 END CTAB
M  END
>  <Dataset>  (617) 
ChEMBL_Kinases

>  <Ligand_Instance>  (617) 
nan

>  <PDB_ID>  (617) 
nan

>  <Standardized_SMILES>  (617) 
CC1CCCN1c1nccc(-c2cnn3ncccc23)n1

>  <Name>  (617) 
nan

>  <Pocket>  (617) 
nan

>  <ATP_Site>  (617) 
nan

>  <Peripheral>  (617) 
nan

>  <Num_H_Atoms_ProtBoundConf>  (617) 
nan

>  <Num_Resolved_Atoms>  (617) 
nan

>  <Num_Not_Resolved_Atoms>  (617) 
nan

$$$$
CHEMBL4071797
     RDKit          3D

  0  0  0  0  0  0  0  0  0  0999 V3000
M  V30 BEGIN CTAB
M  V30 COUNTS 63 64 0 0 0
M  V30 BEGIN ATOM
M  V30 1 C 0.335765 2.505898 3.631149 0
M  V30 2 C 0.700526 1.386255 2.661533 0
M  V30 3 C 1.981886 0.705567 3.139497 0
M  V30 4 C 3.122113 1.653515 3.202026 0
M  V30 5 C 3.510666 2.299194 1.899100 0
M  V30 6 C 3.938548 1.360967 0.826097 0
M  V30 7 C 4.322194 2.109176 -0.423229 0
M  V30 8 C 3.226720 2.919055 -1.037415 0
M  V30 9 C 2.065444 2.002879 -1.448536 0
M  V30 10 C 0.951522 2.789283 -2.069874 0
M  V30 11 C -0.222783 1.983460 -2.518300 0
M  V30 12 C -0.904820 1.219742 -1.472640 0
M  V30 13 O -0.955143 0.901211 -0.254337 0
M  V30 14 N -2.018118 0.496188 -2.041018 0
M  V30 15 N -2.841178 -0.322231 -1.227924 0
M  V30 16 C -2.295469 -1.630315 -1.213676 0
M  V30 17 O -1.241838 -1.721436 -1.914369 0
M  V30 18 C -2.745158 -2.834986 -0.542610 0
M  V30 19 C -1.987797 -3.965693 -0.730987 0
M  V30 20 O -0.824340 -4.027532 -1.520095 0
M  V30 21 C -2.385469 -5.151657 -0.101146 0
M  V30 22 C -1.618591 -6.296498 -0.291910 0
M  V30 23 C -1.941704 -7.502829 0.292178 0
M  V30 24 C -3.075849 -7.594462 1.106681 0
M  V30 25 C -3.837734 -6.460878 1.297450 0
M  V30 26 C -3.495942 -5.265680 0.703679 0
M  V30 27 N -4.202804 -4.142248 0.859190 0
M  V30 28 C -5.403140 -4.167635 1.700069 0
M  V30 29 C -3.843396 -2.992145 0.266602 0
M  V30 30 O -4.560940 -1.983444 0.463704 0
M  V30 31 H 0.847224 3.458711 3.351518 0
M  V30 32 H -0.764703 2.711939 3.608557 0
M  V30 33 H 0.599393 2.233711 4.672193 0
M  V30 34 H -0.099158 0.622444 2.721704 0
M  V30 35 H 0.810486 1.773046 1.642758 0
M  V30 36 H 2.154071 -0.191818 2.533249 0
M  V30 37 H 1.770716 0.373424 4.176684 0
M  V30 38 H 3.991741 1.199556 3.715676 0
M  V30 39 H 2.807176 2.498257 3.868919 0
M  V30 40 H 2.745168 3.000681 1.545787 0
M  V30 41 H 4.400727 2.941638 2.142346 0
M  V30 42 H 4.837997 0.775432 1.116711 0
M  V30 43 H 3.137715 0.613640 0.603513 0
M  V30 44 H 4.687119 1.417349 -1.225232 0
M  V30 45 H 5.205435 2.773961 -0.224552 0
M  V30 46 H 2.888636 3.703686 -0.339181 0
M  V30 47 H 3.576054 3.456814 -1.964015 0
M  V30 48 H 1.713008 1.510063 -0.546861 0
M  V30 49 H 2.472348 1.235834 -2.144759 0
M  V30 50 H 1.375092 3.264962 -3.003408 0
M  V30 51 H 0.667078 3.651267 -1.435440 0
M  V30 52 H -0.941213 2.710664 -2.991362 0
M  V30 53 H 0.041541 1.285632 -3.353134 0
M  V30 54 H -2.442023 0.394175 -3.012429 0
M  V30 55 H -3.705964 -0.189764 -0.670334 0
M  V30 56 H -0.929717 -4.239824 -2.523453 0
M  V30 57 H -0.713775 -6.301480 -0.918308 0
M  V30 58 H -1.337880 -8.403455 0.141863 0
M  V30 59 H -3.333924 -8.545160 1.569272 0
M  V30 60 H -4.735089 -6.506853 1.934003 0
M  V30 61 H -6.200087 -4.762004 1.209799 0
M  V30 62 H -5.775318 -3.130623 1.851662 0
M  V30 63 H -5.158508 -4.541196 2.725658 0
M  V30 END ATOM
M  V30 BEGIN BOND
M  V30 1 1 1 2
M  V30 2 1 2 3
M  V30 3 1 3 4
M  V30 4 1 4 5
M  V30 5 1 5 6
M  V30 6 1 6 7
M  V30 7 1 7 8
M  V30 8 1 8 9
M  V30 9 1 9 10
M  V30 10 1 10 11
M  V30 11 1 11 12
M  V30 12 2 12 13
M  V30 13 1 12 14
M  V30 14 1 14 15
M  V30 15 1 15 16
M  V30 16 2 16 17
M  V30 17 1 16 18
M  V30 18 2 18 19
M  V30 19 1 19 20
M  V30 20 1 19 21
M  V30 21 2 21 22
M  V30 22 1 22 23
M  V30 23 2 23 24
M  V30 24 1 24 25
M  V30 25 2 25 26
M  V30 26 1 26 27
M  V30 27 1 27 28
M  V30 28 1 27 29
M  V30 29 2 29 30
M  V30 30 1 29 18
M  V30 31 1 26 21
M  V30 32 1 1 31
M  V30 33 1 1 32
M  V30 34 1 1 33
M  V30 35 1 2 34
M  V30 36 1 2 35
M  V30 37 1 3 36
M  V30 38 1 3 37
M  V30 39 1 4 38
M  V30 40 1 4 39
M  V30 41 1 5 40
M  V30 42 1 5 41
M  V30 43 1 6 42
M  V30 44 1 6 43
M  V30 45 1 7 44
M  V30 46 1 7 45
M  V30 47 1 8 46
M  V30 48 1 8 47
M  V30 49 1 9 48
M  V30 50 1 9 49
M  V30 51 1 10 50
M  V30 52 1 10 51
M  V30 53 1 11 52
M  V30 54 1 11 53
M  V30 55 1 14 54
M  V30 56 1 15 55
M  V30 57 1 20 56
M  V30 58 1 22 57
M  V30 59 1 23 58
M  V30 60 1 24 59
M  V30 61 1 25 60
M  V30 62 1 28 61
M  V30 63 1 28 62
M  V30 64 1 28 63
M  V30 END BOND
M  V30 END CTAB
M  END
>  <Dataset>  (618) 
ChEMBL_Kinases

>  <Ligand_Instance>  (618) 
nan

>  <PDB_ID>  (618) 
nan

>  <Standardized_SMILES>  (618) 
CCCCCCCCCCCC(=O)NNC(=O)c1c(O)c2ccccc2n(C)c1=O

>  <Name>  (618) 
nan

>  <Pocket>  (618) 
nan

>  <ATP_Site>  (618) 
nan

>  <Peripheral>  (618) 
nan

>  <Num_H_Atoms_ProtBoundConf>  (618) 
nan

>  <Num_Resolved_Atoms>  (618) 
nan

>  <Num_Not_Resolved_Atoms>  (618) 
nan

$$$$
CHEMBL4071773
     RDKit          3D

  0  0  0  0  0  0  0  0  0  0999 V3000
M  V30 BEGIN CTAB
M  V30 COUNTS 51 54 0 0 0
M  V30 BEGIN ATOM
M  V30 1 C -1.888551 2.213529 1.035867 0
M  V30 2 C -0.914751 1.070751 1.331592 0 CFG=2
M  V30 3 C 0.363562 1.538558 1.952616 0
M  V30 4 N 1.555480 1.062619 1.289087 0
M  V30 5 C 2.636021 0.338465 1.908487 0
M  V30 6 O 2.455093 0.134820 3.158490 0
M  V30 7 C 3.716656 -0.016621 0.989888 0
M  V30 8 C 4.009727 -1.310177 0.618692 0
M  V30 9 C 5.023672 -1.642890 -0.245103 0
M  V30 10 C 5.792825 -0.628938 -0.771817 0
M  V30 11 C 5.493072 0.684097 -0.393282 0
M  V30 12 C 4.479812 1.032226 0.471653 0
M  V30 13 C 1.494455 1.429934 -0.105490 0
M  V30 14 C 0.122477 1.311763 -0.694006 0
M  V30 15 N -0.654001 0.372794 0.054930 0
M  V30 16 C -1.170510 -0.941876 -0.075771 0
M  V30 17 N -2.037622 -1.356067 0.834326 0
M  V30 18 C -2.634513 -2.547295 0.900858 0
M  V30 19 C -3.574590 -2.873760 1.965769 0
M  V30 20 C -3.865207 -1.939718 2.939798 0
M  V30 21 C -4.781019 -2.404518 3.882142 0
M  V30 22 N -5.372332 -3.617843 3.920713 0
M  V30 23 C -5.025103 -4.468871 2.922887 0
M  V30 24 N -4.138175 -4.118093 1.948618 0
M  V30 25 C -2.294950 -3.424254 -0.097474 0
M  V30 26 C -1.402241 -3.070507 -1.078109 0
M  V30 27 O -1.088626 -3.873004 -1.995552 0
M  V30 28 N -0.877570 -1.836115 -1.020406 0
M  V30 29 C 0.080277 -1.505268 -2.054397 0
M  V30 30 H -2.788514 2.160904 1.702872 0
M  V30 31 H -1.378743 3.194209 1.139338 0
M  V30 32 H -2.289074 2.112732 0.005962 0
M  V30 33 H -1.449375 0.377697 2.028210 0
M  V30 34 H 0.390129 2.642380 2.111805 0
M  V30 35 H 0.434129 1.121448 2.999992 0
M  V30 36 H 3.356204 -2.062264 1.078314 0
M  V30 37 H 5.153533 -2.700789 -0.458607 0
M  V30 38 H 6.587727 -0.873091 -1.447165 0
M  V30 39 H 6.099286 1.477888 -0.809434 0
M  V30 40 H 4.333945 2.083336 0.699105 0
M  V30 41 H 2.182028 0.798078 -0.713283 0
M  V30 42 H 1.880793 2.475571 -0.189594 0
M  V30 43 H -0.330060 2.351742 -0.601364 0
M  V30 44 H 0.154661 1.083385 -1.787178 0
M  V30 45 H -3.436603 -0.953643 2.977626 0
M  V30 46 H -5.070983 -1.741269 4.687377 0
M  V30 47 H -5.462134 -5.457799 2.893112 0
M  V30 48 H -2.724612 -4.405800 -0.129914 0
M  V30 49 H 0.456812 -2.459276 -2.550143 0
M  V30 50 H -0.340481 -0.904284 -2.881537 0
M  V30 51 H 0.985667 -1.061603 -1.625835 0
M  V30 END ATOM
M  V30 BEGIN BOND
M  V30 1 1 1 2
M  V30 2 1 2 3
M  V30 3 1 3 4
M  V30 4 1 4 5
M  V30 5 2 5 6
M  V30 6 1 5 7
M  V30 7 2 7 8
M  V30 8 1 8 9
M  V30 9 2 9 10
M  V30 10 1 10 11
M  V30 11 2 11 12
M  V30 12 1 4 13
M  V30 13 1 13 14
M  V30 14 1 14 15
M  V30 15 1 15 16
M  V30 16 2 16 17
M  V30 17 1 17 18
M  V30 18 1 18 19
M  V30 19 2 19 20
M  V30 20 1 20 21
M  V30 21 2 21 22
M  V30 22 1 22 23
M  V30 23 2 23 24
M  V30 24 2 18 25
M  V30 25 1 25 26
M  V30 26 2 26 27
M  V30 27 1 26 28
M  V30 28 1 28 29
M  V30 29 1 15 2
M  V30 30 1 28 16
M  V30 31 1 12 7
M  V30 32 1 24 19
M  V30 33 1 1 30
M  V30 34 1 1 31
M  V30 35 1 1 32
M  V30 36 1 2 33 CFG=1
M  V30 37 1 3 34
M  V30 38 1 3 35
M  V30 39 1 8 36
M  V30 40 1 9 37
M  V30 41 1 10 38
M  V30 42 1 11 39
M  V30 43 1 12 40
M  V30 44 1 13 41
M  V30 45 1 13 42
M  V30 46 1 14 43
M  V30 47 1 14 44
M  V30 48 1 20 45
M  V30 49 1 21 46
M  V30 50 1 23 47
M  V30 51 1 25 48
M  V30 52 1 29 49
M  V30 53 1 29 50
M  V30 54 1 29 51
M  V30 END BOND
M  V30 END CTAB
M  END
>  <Dataset>  (619) 
ChEMBL_Kinases

>  <Ligand_Instance>  (619) 
nan

>  <PDB_ID>  (619) 
nan

>  <Standardized_SMILES>  (619) 
C[C@@H]1CN(C(=O)c2ccccc2)CCN1c1nc(-c2ccncn2)cc(=O)n1C

>  <Name>  (619) 
nan

>  <Pocket>  (619) 
nan

>  <ATP_Site>  (619) 
nan

>  <Peripheral>  (619) 
nan

>  <Num_H_Atoms_ProtBoundConf>  (619) 
nan

>  <Num_Resolved_Atoms>  (619) 
nan

>  <Num_Not_Resolved_Atoms>  (619) 
nan

$$$$
CHEMBL4071706
     RDKit          3D

  0  0  0  0  0  0  0  0  0  0999 V3000
M  V30 BEGIN CTAB
M  V30 COUNTS 36 39 0 0 0
M  V30 BEGIN ATOM
M  V30 1 C 2.082339 -5.992907 2.291030 0
M  V30 2 C 2.380657 -4.622674 1.799328 0
M  V30 3 C 2.388204 -3.527651 2.653416 0
M  V30 4 C 2.664765 -2.235144 2.215784 0
M  V30 5 C 2.936454 -2.083396 0.872246 0
M  V30 6 S 3.284686 -0.380777 0.382638 0
M  V30 7 C 1.692203 0.344650 -0.065133 0
M  V30 8 C 1.397176 0.172581 -1.406041 0
M  V30 9 C 0.214644 0.665276 -1.927301 0
M  V30 10 C -0.636929 1.324068 -1.054872 0
M  V30 11 C -1.821500 1.825457 -1.544854 0
M  V30 12 C -2.657833 2.482080 -0.648576 0
M  V30 13 N -2.342988 2.633689 0.650981 0
M  V30 14 C -1.188517 2.152259 1.158146 0
M  V30 15 O -0.896579 2.293131 2.364361 0
M  V30 16 C -0.344440 1.495026 0.276020 0
M  V30 17 C 0.836663 1.002525 0.794996 0
M  V30 18 C -3.434045 3.349585 1.242613 0
M  V30 19 S -3.477487 3.761500 2.839977 0
M  V30 20 N -4.436467 3.637542 0.268332 0
M  V30 21 C -3.950396 3.085318 -0.952827 0
M  V30 22 O -4.603604 3.167896 -2.018949 0
M  V30 23 C 2.950787 -3.110580 -0.044588 0
M  V30 24 C 2.666775 -4.356815 0.471101 0
M  V30 25 H 2.636190 -6.222323 3.228257 0
M  V30 26 H 2.451317 -6.722040 1.518279 0
M  V30 27 H 1.013565 -6.193888 2.406024 0
M  V30 28 H 2.170954 -3.654921 3.722942 0
M  V30 29 H 2.656501 -1.421607 2.925254 0
M  V30 30 H 2.017886 -0.330260 -2.134890 0
M  V30 31 H -0.062409 0.558258 -2.962522 0
M  V30 32 H -2.054182 1.690612 -2.598848 0
M  V30 33 H 1.169286 1.074578 1.806253 0
M  V30 34 H -5.317116 4.162850 0.530230 0
M  V30 35 H 3.168701 -2.926634 -1.071346 0
M  V30 36 H 2.658409 -5.224136 -0.192477 0
M  V30 END ATOM
M  V30 BEGIN BOND
M  V30 1 1 1 2
M  V30 2 2 2 3
M  V30 3 1 3 4
M  V30 4 2 4 5
M  V30 5 1 5 6
M  V30 6 1 6 7
M  V30 7 2 7 8
M  V30 8 1 8 9
M  V30 9 2 9 10
M  V30 10 1 10 11
M  V30 11 2 11 12
M  V30 12 1 12 13
M  V30 13 1 13 14
M  V30 14 2 14 15
M  V30 15 1 14 16
M  V30 16 2 16 17
M  V30 17 1 13 18
M  V30 18 2 18 19
M  V30 19 1 18 20
M  V30 20 1 20 21
M  V30 21 2 21 22
M  V30 22 1 5 23
M  V30 23 2 23 24
M  V30 24 1 24 2
M  V30 25 1 17 7
M  V30 26 1 16 10
M  V30 27 1 21 12
M  V30 28 1 1 25
M  V30 29 1 1 26
M  V30 30 1 1 27
M  V30 31 1 3 28
M  V30 32 1 4 29
M  V30 33 1 8 30
M  V30 34 1 9 31
M  V30 35 1 11 32
M  V30 36 1 17 33
M  V30 37 1 20 34
M  V30 38 1 23 35
M  V30 39 1 24 36
M  V30 END BOND
M  V30 END CTAB
M  END
>  <Dataset>  (620) 
ChEMBL_Kinases

>  <Ligand_Instance>  (620) 
nan

>  <PDB_ID>  (620) 
nan

>  <Standardized_SMILES>  (620) 
Cc1ccc(Sc2ccc3cc4n(c(=O)c3c2)C(=S)NC4=O)cc1

>  <Name>  (620) 
nan

>  <Pocket>  (620) 
nan

>  <ATP_Site>  (620) 
nan

>  <Peripheral>  (620) 
nan

>  <Num_H_Atoms_ProtBoundConf>  (620) 
nan

>  <Num_Resolved_Atoms>  (620) 
nan

>  <Num_Not_Resolved_Atoms>  (620) 
nan

$$$$
CHEMBL4071667
     RDKit          3D

  0  0  0  0  0  0  0  0  0  0999 V3000
M  V30 BEGIN CTAB
M  V30 COUNTS 39 41 0 0 0
M  V30 BEGIN ATOM
M  V30 1 C -1.645774 -4.083332 3.143884 0
M  V30 2 N -0.446514 -3.655875 2.527121 0
M  V30 3 C -0.266630 -3.897399 1.162020 0
M  V30 4 C 0.146547 -2.756723 0.292884 0
M  V30 5 N 0.425086 -1.565864 1.059202 0
M  V30 6 C 0.053154 -0.229824 0.702839 0
M  V30 7 N 0.938808 0.498039 -0.039670 0
M  V30 8 C 0.661900 1.758605 -0.413367 0
M  V30 9 C 1.636113 2.499453 -1.205536 0
M  V30 10 C 2.833059 1.920351 -1.572136 0
M  V30 11 C 3.751916 2.650205 -2.332354 0
M  V30 12 N 3.446312 3.893550 -2.685353 0
M  V30 13 C 2.282748 4.470487 -2.334618 0
M  V30 14 N 1.378741 3.767902 -1.593033 0
M  V30 15 C -0.526703 2.364416 -0.061200 0
M  V30 16 C -1.416243 1.608357 0.694750 0
M  V30 17 O -2.518862 2.124771 1.040077 0
M  V30 18 N -1.134117 0.334395 1.071256 0
M  V30 19 C -2.060806 -0.439675 1.852615 0
M  V30 20 C 1.155978 -1.804605 2.302939 0
M  V30 21 C 0.302862 -2.663238 3.173373 0
M  V30 22 H -2.067597 -3.248619 3.753417 0
M  V30 23 H -2.469142 -4.365243 2.442734 0
M  V30 24 H -1.449460 -4.907751 3.882611 0
M  V30 25 H 0.413419 -4.787228 1.038455 0
M  V30 26 H -1.243967 -4.274411 0.740792 0
M  V30 27 H -0.545948 -2.573179 -0.566640 0
M  V30 28 H 1.113351 -3.022398 -0.199919 0
M  V30 29 H 3.082430 0.910305 -1.285737 0
M  V30 30 H 4.721473 2.246685 -2.656226 0
M  V30 31 H 1.906616 5.461936 -2.549230 0
M  V30 32 H -0.733995 3.368017 -0.365410 0
M  V30 33 H -2.069235 -1.508664 1.585267 0
M  V30 34 H -1.966347 -0.308236 2.944703 0
M  V30 35 H -3.098081 -0.078450 1.589182 0
M  V30 36 H 2.101386 -2.373521 2.095329 0
M  V30 37 H 1.417958 -0.854637 2.807900 0
M  V30 38 H 0.886424 -3.149030 3.996862 0
M  V30 39 H -0.409895 -1.970377 3.706331 0
M  V30 END ATOM
M  V30 BEGIN BOND
M  V30 1 1 1 2
M  V30 2 1 2 3
M  V30 3 1 3 4
M  V30 4 1 4 5
M  V30 5 1 5 6
M  V30 6 2 6 7
M  V30 7 1 7 8
M  V30 8 1 8 9
M  V30 9 2 9 10
M  V30 10 1 10 11
M  V30 11 2 11 12
M  V30 12 1 12 13
M  V30 13 2 13 14
M  V30 14 2 8 15
M  V30 15 1 15 16
M  V30 16 2 16 17
M  V30 17 1 16 18
M  V30 18 1 18 19
M  V30 19 1 5 20
M  V30 20 1 20 21
M  V30 21 1 21 2
M  V30 22 1 18 6
M  V30 23 1 14 9
M  V30 24 1 1 22
M  V30 25 1 1 23
M  V30 26 1 1 24
M  V30 27 1 3 25
M  V30 28 1 3 26
M  V30 29 1 4 27
M  V30 30 1 4 28
M  V30 31 1 10 29
M  V30 32 1 11 30
M  V30 33 1 13 31
M  V30 34 1 15 32
M  V30 35 1 19 33
M  V30 36 1 19 34
M  V30 37 1 19 35
M  V30 38 1 20 36
M  V30 39 1 20 37
M  V30 40 1 21 38
M  V30 41 1 21 39
M  V30 END BOND
M  V30 END CTAB
M  END
>  <Dataset>  (621) 
ChEMBL_Kinases

>  <Ligand_Instance>  (621) 
nan

>  <PDB_ID>  (621) 
nan

>  <Standardized_SMILES>  (621) 
CN1CCN(c2nc(-c3ccncn3)cc(=O)n2C)CC1

>  <Name>  (621) 
nan

>  <Pocket>  (621) 
nan

>  <ATP_Site>  (621) 
nan

>  <Peripheral>  (621) 
nan

>  <Num_H_Atoms_ProtBoundConf>  (621) 
nan

>  <Num_Resolved_Atoms>  (621) 
nan

>  <Num_Not_Resolved_Atoms>  (621) 
nan

$$$$
CHEMBL4071631
     RDKit          3D

  0  0  0  0  0  0  0  0  0  0999 V3000
M  V30 BEGIN CTAB
M  V30 COUNTS 49 52 0 0 0
M  V30 BEGIN ATOM
M  V30 1 C 1.455486 -4.977143 6.247574 0
M  V30 2 N 1.011954 -4.669083 4.901263 0
M  V30 3 C 1.307496 -3.470490 4.326613 0
M  V30 4 C 0.750981 -3.472963 3.046044 0
M  V30 5 C 0.796617 -2.415573 2.044179 0
M  V30 6 C 1.907847 -1.611366 2.017199 0
M  V30 7 C 1.902432 -0.631179 1.055634 0
M  V30 8 C 0.921912 -0.368163 0.129421 0
M  V30 9 O 0.844369 0.562730 -0.833937 0
M  V30 10 C 1.680506 1.563082 -1.232900 0
M  V30 11 C 2.005648 2.613844 -0.255625 0
M  V30 12 C 1.014923 3.608104 -0.218652 0
M  V30 13 C 1.074552 4.717909 0.597253 0
M  V30 14 C 2.148005 4.892797 1.433044 0
M  V30 15 F 2.367432 5.913200 2.293765 0
M  V30 16 C 3.132755 3.933269 1.415805 0
M  V30 17 C 3.061066 2.834208 0.599033 0
M  V30 18 C -0.200329 -1.204182 0.179818 0
M  V30 19 C -1.406646 -1.209873 -0.640070 0
M  V30 20 O -2.358048 -2.028845 -0.490450 0
M  V30 21 N -1.757059 -0.368760 -1.701970 0
M  V30 22 C -3.053074 -0.775723 -2.191351 0
M  V30 23 C -3.129320 -1.730329 -3.202898 0
M  V30 24 C -4.410045 -2.089270 -3.640408 0
M  V30 25 C -5.506326 -1.486499 -3.053635 0
M  V30 26 N -5.386784 -0.560936 -2.070627 0
M  V30 27 C -4.156510 -0.181557 -1.614057 0
M  V30 28 C -0.228560 -2.217822 1.150938 0
M  V30 29 C 0.129907 -4.699406 2.899551 0
M  V30 30 N 0.309457 -5.401704 4.049529 0
M  V30 31 H 0.771797 -4.595098 7.032893 0
M  V30 32 H 2.461054 -4.550171 6.420570 0
M  V30 33 H 1.475735 -6.096942 6.376247 0
M  V30 34 H 1.864684 -2.629091 4.729392 0
M  V30 35 H 2.745733 -1.715612 2.690827 0
M  V30 36 H 2.767859 0.008224 1.012328 0
M  V30 37 H 2.668312 1.103885 -1.533472 0
M  V30 38 H 1.255832 2.025958 -2.170756 0
M  V30 39 H 0.098370 3.607859 -0.827497 0
M  V30 40 H 0.321452 5.487742 0.634879 0
M  V30 41 H 4.038301 3.948531 2.028418 0
M  V30 42 H 3.798042 2.048686 0.524044 0
M  V30 43 H -1.077002 0.376346 -1.964137 0
M  V30 44 H -2.238220 -2.175669 -3.632547 0
M  V30 45 H -4.527562 -2.833272 -4.432229 0
M  V30 46 H -6.529007 -1.745401 -3.373230 0
M  V30 47 H -4.062316 0.557277 -0.829174 0
M  V30 48 H -1.060167 -2.930042 1.278752 0
M  V30 49 H -0.410640 -5.068935 2.040207 0
M  V30 END ATOM
M  V30 BEGIN BOND
M  V30 1 1 1 2
M  V30 2 1 2 3
M  V30 3 2 3 4
M  V30 4 1 4 5
M  V30 5 2 5 6
M  V30 6 1 6 7
M  V30 7 2 7 8
M  V30 8 1 8 9
M  V30 9 1 9 10
M  V30 10 1 10 11
M  V30 11 2 11 12
M  V30 12 1 12 13
M  V30 13 2 13 14
M  V30 14 1 14 15
M  V30 15 1 14 16
M  V30 16 2 16 17
M  V30 17 1 8 18
M  V30 18 1 18 19
M  V30 19 2 19 20
M  V30 20 1 19 21
M  V30 21 1 21 22
M  V30 22 2 22 23
M  V30 23 1 23 24
M  V30 24 2 24 25
M  V30 25 1 25 26
M  V30 26 2 26 27
M  V30 27 2 18 28
M  V30 28 1 4 29
M  V30 29 2 29 30
M  V30 30 1 30 2
M  V30 31 1 28 5
M  V30 32 1 17 11
M  V30 33 1 27 22
M  V30 34 1 1 31
M  V30 35 1 1 32
M  V30 36 1 1 33
M  V30 37 1 3 34
M  V30 38 1 6 35
M  V30 39 1 7 36
M  V30 40 1 10 37
M  V30 41 1 10 38
M  V30 42 1 12 39
M  V30 43 1 13 40
M  V30 44 1 16 41
M  V30 45 1 17 42
M  V30 46 1 21 43
M  V30 47 1 23 44
M  V30 48 1 24 45
M  V30 49 1 25 46
M  V30 50 1 27 47
M  V30 51 1 28 48
M  V30 52 1 29 49
M  V30 END BOND
M  V30 END CTAB
M  END
>  <Dataset>  (622) 
ChEMBL_Kinases

>  <Ligand_Instance>  (622) 
nan

>  <PDB_ID>  (622) 
nan

>  <Standardized_SMILES>  (622) 
Cn1cc(-c2ccc(OCc3ccc(F)cc3)c(C(=O)Nc3cccnc3)c2)cn1

>  <Name>  (622) 
nan

>  <Pocket>  (622) 
nan

>  <ATP_Site>  (622) 
nan

>  <Peripheral>  (622) 
nan

>  <Num_H_Atoms_ProtBoundConf>  (622) 
nan

>  <Num_Resolved_Atoms>  (622) 
nan

>  <Num_Not_Resolved_Atoms>  (622) 
nan

$$$$
CHEMBL4071599
     RDKit          3D

  0  0  0  0  0  0  0  0  0  0999 V3000
M  V30 BEGIN CTAB
M  V30 COUNTS 68 72 0 0 0
M  V30 BEGIN ATOM
M  V30 1 O 0.190880 2.019707 -5.172207 0
M  V30 2 C 0.578632 0.815224 -5.208382 0
M  V30 3 N 0.561362 0.235337 -6.505478 0
M  V30 4 C 0.145578 0.926135 -7.695512 0
M  V30 5 C -1.283182 1.413731 -7.649356 0
M  V30 6 O -1.651109 2.078217 -8.824263 0
M  V30 7 C 0.246654 -0.003578 -8.883363 0
M  V30 8 O 1.570301 -0.418925 -9.018269 0
M  V30 9 C 0.999077 2.144598 -8.014071 0
M  V30 10 O 2.337657 1.815293 -8.211185 0
M  V30 11 C 1.001276 0.105873 -4.008977 0
M  V30 12 C 1.434977 -1.197676 -3.959929 0
M  V30 13 C 1.830071 -1.849908 -2.820660 0
M  V30 14 C 1.798459 -1.159022 -1.605672 0
M  V30 15 C 1.364284 0.156505 -1.634423 0
M  V30 16 C 0.968445 0.791809 -2.812476 0
M  V30 17 C 1.241229 1.088353 -0.504688 0
M  V30 18 O 1.276152 2.321769 -0.768680 0
M  V30 19 C 1.081920 0.660035 0.895213 0
M  V30 20 C 0.815016 1.752992 1.695989 0
M  V30 21 C 0.623643 1.618276 3.054912 0
M  V30 22 C 0.713445 0.339578 3.565293 0
M  V30 23 N 0.523886 0.162392 4.964811 0
M  V30 24 C 0.535496 -0.980753 5.810726 0
M  V30 25 C -0.558966 -1.345945 6.556318 0
M  V30 26 C -0.638189 -2.414578 7.388135 0
M  V30 27 N -1.750665 -2.816228 8.168986 0
M  V30 28 C -3.015658 -2.244104 8.292360 0
M  V30 29 O -3.273686 -1.215376 7.640505 0
M  V30 30 C -4.052608 -2.739179 9.108833 0
M  V30 31 C -4.092069 -3.818755 9.927143 0
M  V30 32 C -5.197642 -4.147667 10.649834 0
M  V30 33 C -6.345893 -3.219254 10.458184 0
M  V30 34 S -5.655591 -1.956657 9.222353 0
M  V30 35 C 0.522031 -3.152241 7.436906 0
M  V30 36 F 0.585891 -4.264799 8.239527 0
M  V30 37 C 1.643807 -2.853154 6.728691 0
M  V30 38 C 1.676032 -1.749332 5.891256 0
M  V30 39 F 2.804284 -1.482094 5.204676 0
M  V30 40 C 0.978717 -0.774119 2.793063 0
M  V30 41 C 1.168011 -0.624067 1.434156 0
M  V30 42 O 1.432142 -1.779570 0.707562 0
M  V30 43 C 2.250610 -1.976083 -0.443872 0
M  V30 44 H 0.881724 -0.772502 -6.560555 0
M  V30 45 H -1.907769 0.478224 -7.573069 0
M  V30 46 H -1.523744 1.999916 -6.751551 0
M  V30 47 H -2.631433 2.023871 -8.948411 0
M  V30 48 H -0.453979 -0.858089 -8.772545 0
M  V30 49 H -0.037237 0.526571 -9.817556 0
M  V30 50 H 1.553961 -1.325327 -9.412623 0
M  V30 51 H 0.622566 2.551961 -8.968616 0
M  V30 52 H 0.879128 2.933927 -7.248460 0
M  V30 53 H 2.568897 1.692030 -9.168753 0
M  V30 54 H 1.468654 -1.746880 -4.873775 0
M  V30 55 H 2.164057 -2.879196 -2.837715 0
M  V30 56 H 0.635487 1.839072 -2.753256 0
M  V30 57 H 0.755054 2.739181 1.244614 0
M  V30 58 H 0.411357 2.462967 3.712521 0
M  V30 59 H 0.332264 0.956101 5.593554 0
M  V30 60 H -1.413978 -0.698343 6.443303 0
M  V30 61 H -1.641603 -3.682847 8.765194 0
M  V30 62 H -3.229315 -4.459256 10.028894 0
M  V30 63 H -5.383662 -4.956129 11.330725 0
M  V30 64 H -7.340192 -3.340920 10.978170 0
M  V30 65 H 2.528030 -3.466403 6.804078 0
M  V30 66 H 1.053403 -1.779793 3.164175 0
M  V30 67 H 3.308077 -1.647720 -0.227720 0
M  V30 68 H 2.198325 -3.034040 -0.709826 0
M  V30 END ATOM
M  V30 BEGIN BOND
M  V30 1 2 1 2
M  V30 2 1 2 3
M  V30 3 1 3 4
M  V30 4 1 4 5
M  V30 5 1 5 6
M  V30 6 1 4 7
M  V30 7 1 7 8
M  V30 8 1 4 9
M  V30 9 1 9 10
M  V30 10 1 2 11
M  V30 11 2 11 12
M  V30 12 1 12 13
M  V30 13 2 13 14
M  V30 14 1 14 15
M  V30 15 2 15 16
M  V30 16 1 15 17
M  V30 17 2 17 18
M  V30 18 1 17 19
M  V30 19 2 19 20
M  V30 20 1 20 21
M  V30 21 2 21 22
M  V30 22 1 22 23
M  V30 23 1 23 24
M  V30 24 2 24 25
M  V30 25 1 25 26
M  V30 26 1 26 27
M  V30 27 1 27 28
M  V30 28 2 28 29
M  V30 29 1 28 30
M  V30 30 2 30 31
M  V30 31 1 31 32
M  V30 32 2 32 33
M  V30 33 1 33 34
M  V30 34 2 26 35
M  V30 35 1 35 36
M  V30 36 1 35 37
M  V30 37 2 37 38
M  V30 38 1 38 39
M  V30 39 1 22 40
M  V30 40 2 40 41
M  V30 41 1 41 42
M  V30 42 1 42 43
M  V30 43 1 16 11
M  V30 44 1 41 19
M  V30 45 1 43 14
M  V30 46 1 38 24
M  V30 47 1 34 30
M  V30 48 1 3 44
M  V30 49 1 5 45
M  V30 50 1 5 46
M  V30 51 1 6 47
M  V30 52 1 7 48
M  V30 53 1 7 49
M  V30 54 1 8 50
M  V30 55 1 9 51
M  V30 56 1 9 52
M  V30 57 1 10 53
M  V30 58 1 12 54
M  V30 59 1 13 55
M  V30 60 1 16 56
M  V30 61 1 20 57
M  V30 62 1 21 58
M  V30 63 1 23 59
M  V30 64 1 25 60
M  V30 65 1 27 61
M  V30 66 1 31 62
M  V30 67 1 32 63
M  V30 68 1 33 64
M  V30 69 1 37 65
M  V30 70 1 40 66
M  V30 71 1 43 67
M  V30 72 1 43 68
M  V30 END BOND
M  V30 END CTAB
M  END
>  <Dataset>  (623) 
ChEMBL_Kinases

>  <Ligand_Instance>  (623) 
nan

>  <PDB_ID>  (623) 
nan

>  <Standardized_SMILES>  (623) 
O=C(NC(CO)(CO)CO)c1ccc2c(c1)C(=O)c1ccc(Nc3cc(NC(=O)c4cccs4)c(F)cc3F)cc1OC2

>  <Name>  (623) 
nan

>  <Pocket>  (623) 
nan

>  <ATP_Site>  (623) 
nan

>  <Peripheral>  (623) 
nan

>  <Num_H_Atoms_ProtBoundConf>  (623) 
nan

>  <Num_Resolved_Atoms>  (623) 
nan

>  <Num_Not_Resolved_Atoms>  (623) 
nan

$$$$
CHEMBL4071576
     RDKit          3D

  0  0  0  0  0  0  0  0  0  0999 V3000
M  V30 BEGIN CTAB
M  V30 COUNTS 59 63 0 0 0
M  V30 BEGIN ATOM
M  V30 1 C 5.774098 0.006705 3.921231 0
M  V30 2 C 5.966522 -0.898527 2.735203 0
M  V30 3 C 6.755639 -2.026079 2.761614 0
M  V30 4 C 6.876238 -2.817395 1.629540 0
M  V30 5 C 6.201295 -2.462418 0.487127 0
M  V30 6 C 5.412019 -1.334161 0.460911 0
M  V30 7 C 4.583986 -0.800014 -0.675208 0
M  V30 8 N 3.220574 -1.282840 -0.576318 0
M  V30 9 C 2.360091 -0.470454 0.212064 0
M  V30 10 O 2.787472 0.458598 0.968524 0
M  V30 11 C 0.918309 -0.701909 0.162030 0
M  V30 12 C -0.200757 -0.181580 0.774291 0
M  V30 13 C -1.240792 -0.931924 0.262706 0
M  V30 14 C -2.585256 -0.642627 0.727850 0
M  V30 15 N -3.137038 0.576807 0.829578 0
M  V30 16 C -4.381901 0.761343 1.297296 0
M  V30 17 N -5.115514 1.955518 1.456818 0
M  V30 18 C -6.170817 2.522766 0.694288 0
M  V30 19 C -6.752711 3.742943 1.022109 0
M  V30 20 C -7.725503 3.926348 0.064480 0
M  V30 21 N -7.702362 2.863815 -0.771431 0
M  V30 22 N -6.766612 2.014257 -0.395403 0
M  V30 23 C -6.457287 0.758539 -1.048854 0
M  V30 24 N -5.102280 -0.326461 1.677840 0
M  V30 25 C -4.603471 -1.589854 1.599850 0
M  V30 26 C -3.315046 -1.774920 1.115454 0
M  V30 27 C -2.867060 -3.189316 1.074703 0
M  V30 28 C -0.738245 -1.857493 -0.621544 0
M  V30 29 N 0.622882 -1.704582 -0.677662 0
M  V30 30 C 1.403791 -2.544247 -1.544098 0
M  V30 31 C 2.869758 -2.508568 -1.235641 0 CFG=1
M  V30 32 C 3.718068 -2.791194 -2.450316 0
M  V30 33 N 5.315470 -0.579321 1.589997 0
M  V30 34 H 6.624062 0.707321 4.032129 0
M  V30 35 H 5.715563 -0.664128 4.823704 0
M  V30 36 H 4.804848 0.544595 3.844694 0
M  V30 37 H 7.261404 -2.261583 3.671414 0
M  V30 38 H 7.483557 -3.705948 1.615640 0
M  V30 39 H 6.232058 -3.007482 -0.441956 0
M  V30 40 H 5.072995 -1.093049 -1.621563 0
M  V30 41 H 4.577729 0.296843 -0.641794 0
M  V30 42 H -0.089116 0.637424 1.473984 0
M  V30 43 H -4.716494 2.404005 2.307651 0
M  V30 44 H -6.543655 4.439727 1.825802 0
M  V30 45 H -8.394741 4.779420 -0.000410 0
M  V30 46 H -5.382592 0.610127 -1.164042 0
M  V30 47 H -6.957703 0.740699 -2.040873 0
M  V30 48 H -6.894340 -0.066945 -0.446901 0
M  V30 49 H -5.233889 -2.430118 1.921514 0
M  V30 50 H -3.274028 -3.719558 1.978899 0
M  V30 51 H -1.785051 -3.323379 1.116635 0
M  V30 52 H -3.376454 -3.658571 0.214971 0
M  V30 53 H -1.446833 -2.518633 -1.105710 0
M  V30 54 H 1.275863 -2.163351 -2.585935 0
M  V30 55 H 1.049316 -3.616552 -1.494199 0
M  V30 56 H 3.031982 -3.326196 -0.466439 0
M  V30 57 H 3.164888 -3.520484 -3.112344 0
M  V30 58 H 4.624612 -3.343054 -2.148555 0
M  V30 59 H 3.921328 -1.927823 -3.075796 0
M  V30 END ATOM
M  V30 BEGIN BOND
M  V30 1 1 1 2
M  V30 2 2 2 3
M  V30 3 1 3 4
M  V30 4 2 4 5
M  V30 5 1 5 6
M  V30 6 1 6 7
M  V30 7 1 7 8
M  V30 8 1 8 9
M  V30 9 2 9 10
M  V30 10 1 9 11
M  V30 11 2 11 12
M  V30 12 1 12 13
M  V30 13 1 13 14
M  V30 14 2 14 15
M  V30 15 1 15 16
M  V30 16 1 16 17
M  V30 17 1 17 18
M  V30 18 2 18 19
M  V30 19 1 19 20
M  V30 20 2 20 21
M  V30 21 1 21 22
M  V30 22 1 22 23
M  V30 23 2 16 24
M  V30 24 1 24 25
M  V30 25 2 25 26
M  V30 26 1 26 27
M  V30 27 2 13 28
M  V30 28 1 28 29
M  V30 29 1 29 30
M  V30 30 1 30 31
M  V30 31 1 31 32
M  V30 32 2 6 33
M  V30 33 1 33 2
M  V30 34 1 31 8
M  V30 35 1 29 11
M  V30 36 1 26 14
M  V30 37 1 22 18
M  V30 38 1 1 34
M  V30 39 1 1 35
M  V30 40 1 1 36
M  V30 41 1 3 37
M  V30 42 1 4 38
M  V30 43 1 5 39
M  V30 44 1 7 40
M  V30 45 1 7 41
M  V30 46 1 12 42
M  V30 47 1 17 43
M  V30 48 1 19 44
M  V30 49 1 20 45
M  V30 50 1 23 46
M  V30 51 1 23 47
M  V30 52 1 23 48
M  V30 53 1 25 49
M  V30 54 1 27 50
M  V30 55 1 27 51
M  V30 56 1 27 52
M  V30 57 1 28 53
M  V30 58 1 30 54
M  V30 59 1 30 55
M  V30 60 1 31 56 CFG=1
M  V30 61 1 32 57
M  V30 62 1 32 58
M  V30 63 1 32 59
M  V30 END BOND
M  V30 END CTAB
M  END
>  <Dataset>  (624) 
ChEMBL_Kinases

>  <Ligand_Instance>  (624) 
nan

>  <PDB_ID>  (624) 
nan

>  <Standardized_SMILES>  (624) 
Cc1cccc(CN2C(=O)c3cc(-c4nc(Nc5ccnn5C)ncc4C)cn3C[C@H]2C)n1

>  <Name>  (624) 
nan

>  <Pocket>  (624) 
nan

>  <ATP_Site>  (624) 
nan

>  <Peripheral>  (624) 
nan

>  <Num_H_Atoms_ProtBoundConf>  (624) 
nan

>  <Num_Resolved_Atoms>  (624) 
nan

>  <Num_Not_Resolved_Atoms>  (624) 
nan

$$$$
CHEMBL4859914
     RDKit          3D

  0  0  0  0  0  0  0  0  0  0999 V3000
M  V30 BEGIN CTAB
M  V30 COUNTS 88 94 0 0 0
M  V30 BEGIN ATOM
M  V30 1 C -0.593062 -2.486393 6.320314 0
M  V30 2 O -1.606203 -2.210635 5.376519 0
M  V30 3 C -1.372870 -1.465201 4.235543 0
M  V30 4 C -0.087212 -0.962781 4.006971 0
M  V30 5 C 0.161850 -0.220901 2.878083 0
M  V30 6 N 1.476990 0.214110 2.562507 0
M  V30 7 C 2.442758 1.256962 2.807851 0
M  V30 8 C 3.563861 1.176628 1.799562 0
M  V30 9 N 4.310020 -0.073915 1.860949 0
M  V30 10 C 4.770096 -0.351173 0.490889 0
M  V30 11 C 3.390109 -1.169701 2.174868 0
M  V30 12 C 2.005863 -0.810474 1.660817 0
M  V30 13 C -0.801200 0.070120 1.938980 0
M  V30 14 C -2.069112 -0.420814 2.156084 0
M  V30 15 C -2.319663 -1.168063 3.279390 0
M  V30 16 N -3.583329 -1.783907 3.528519 0
M  V30 17 C -4.482034 -2.078666 2.423208 0
M  V30 18 N -5.695922 -2.621628 2.645542 0
M  V30 19 C -6.482169 -3.014204 1.592895 0
M  V30 20 C -5.988005 -2.831719 0.324157 0
M  V30 21 C -6.733085 -3.250292 -0.781135 0
M  V30 22 C -8.062423 -3.879142 -0.630986 0
M  V30 23 C -6.149851 -3.062563 -2.040965 0
M  V30 24 C -4.879112 -2.483016 -2.198674 0
M  V30 25 O -4.622177 -2.448657 -3.428143 0
M  V30 26 N -4.168657 -2.080891 -1.122097 0
M  V30 27 C -2.909452 -1.468684 -1.394835 0 CFG=1
M  V30 28 C -1.704860 -2.204242 -0.931046 0
M  V30 29 C -0.411600 -1.639865 -1.449194 0
M  V30 30 C -0.454535 -0.271391 -2.002946 0 CFG=1
M  V30 31 N 0.834991 -0.006538 -2.676150 0
M  V30 32 C 1.517283 1.267583 -2.682612 0
M  V30 33 O 0.803137 2.081033 -2.036909 0
M  V30 34 C 2.797917 1.406652 -3.365101 0
M  V30 35 C 3.056384 0.808236 -4.564898 0
M  V30 36 C 4.298918 0.941347 -5.161157 0
M  V30 37 C 5.340609 1.680847 -4.581232 0
M  V30 38 C 5.079932 2.282175 -3.376792 0
M  V30 39 C 6.062666 3.037345 -2.732280 0
M  V30 40 C 5.854410 3.668412 -1.514526 0
M  V30 41 C 4.596795 3.532748 -0.917530 0
M  V30 42 C 3.664590 2.777859 -1.595994 0
M  V30 43 C 3.838242 2.139605 -2.799048 0
M  V30 44 C -1.629781 0.025189 -2.897375 0
M  V30 45 C -2.709861 -1.022042 -2.812453 0
M  V30 46 C -4.753526 -2.276397 0.069838 0
M  V30 47 N -4.080445 -1.934400 1.163517 0
M  V30 48 H -0.427215 -1.624970 7.021977 0
M  V30 49 H 0.346498 -2.720532 5.801394 0
M  V30 50 H -0.838768 -3.357269 6.972359 0
M  V30 51 H 0.761459 -1.104668 4.651007 0
M  V30 52 H 1.903071 2.223784 2.558681 0
M  V30 53 H 2.763671 1.355180 3.840088 0
M  V30 54 H 4.275449 1.979326 2.070471 0
M  V30 55 H 3.214022 1.303915 0.775403 0
M  V30 56 H 4.495891 0.462321 -0.212990 0
M  V30 57 H 5.854316 -0.517560 0.475989 0
M  V30 58 H 4.304699 -1.269774 0.067353 0
M  V30 59 H 3.687652 -2.128374 1.722901 0
M  V30 60 H 3.310710 -1.312394 3.265156 0
M  V30 61 H 2.052169 -0.354699 0.657394 0
M  V30 62 H 1.424593 -1.739802 1.611003 0
M  V30 63 H -0.586763 0.654801 1.085230 0
M  V30 64 H -2.809747 -0.159862 1.437939 0
M  V30 65 H -3.914374 -2.051008 4.488862 0
M  V30 66 H -7.445693 -3.450371 1.671709 0
M  V30 67 H -7.993140 -4.942586 -0.318920 0
M  V30 68 H -8.606421 -3.801596 -1.621225 0
M  V30 69 H -8.669340 -3.257852 0.059504 0
M  V30 70 H -6.793541 -3.415611 -2.837927 0
M  V30 71 H -2.924575 -0.490370 -0.809498 0
M  V30 72 H -1.722716 -2.409903 0.156933 0
M  V30 73 H -1.802333 -3.245056 -1.379176 0
M  V30 74 H 0.016930 -2.298610 -2.271594 0
M  V30 75 H 0.342533 -1.688878 -0.625212 0
M  V30 76 H -0.491732 0.523686 -1.218066 0
M  V30 77 H 1.249935 -0.849322 -3.179059 0
M  V30 78 H 2.293236 0.241121 -5.035457 0
M  V30 79 H 4.554383 0.476090 -6.125981 0
M  V30 80 H 6.324241 1.798614 -5.026499 0
M  V30 81 H 7.051930 3.174317 -3.146557 0
M  V30 82 H 6.616968 4.251746 -1.021082 0
M  V30 83 H 4.445616 4.027286 0.032613 0
M  V30 84 H 2.729873 2.744682 -1.037129 0
M  V30 85 H -2.088070 1.039031 -2.678215 0
M  V30 86 H -1.329357 0.074244 -3.974051 0
M  V30 87 H -2.355368 -1.854770 -3.444540 0
M  V30 88 H -3.613433 -0.494724 -3.219068 0
M  V30 END ATOM
M  V30 BEGIN BOND
M  V30 1 1 1 2
M  V30 2 1 2 3
M  V30 3 2 3 4
M  V30 4 1 4 5
M  V30 5 1 5 6
M  V30 6 1 6 7
M  V30 7 1 7 8
M  V30 8 1 8 9
M  V30 9 1 9 10
M  V30 10 1 9 11
M  V30 11 1 11 12
M  V30 12 2 5 13
M  V30 13 1 13 14
M  V30 14 2 14 15
M  V30 15 1 15 16
M  V30 16 1 16 17
M  V30 17 2 17 18
M  V30 18 1 18 19
M  V30 19 2 19 20
M  V30 20 1 20 21
M  V30 21 1 21 22
M  V30 22 2 21 23
M  V30 23 1 23 24
M  V30 24 2 24 25
M  V30 25 1 24 26
M  V30 26 1 26 27
M  V30 27 1 27 28
M  V30 28 1 28 29
M  V30 29 1 29 30
M  V30 30 1 30 31
M  V30 31 1 31 32
M  V30 32 2 32 33
M  V30 33 1 32 34
M  V30 34 2 34 35
M  V30 35 1 35 36
M  V30 36 2 36 37
M  V30 37 1 37 38
M  V30 38 2 38 39
M  V30 39 1 39 40
M  V30 40 2 40 41
M  V30 41 1 41 42
M  V30 42 2 42 43
M  V30 43 1 30 44
M  V30 44 1 44 45
M  V30 45 1 26 46
M  V30 46 2 46 47
M  V30 47 1 15 3
M  V30 48 1 47 17
M  V30 49 1 12 6
M  V30 50 1 46 20
M  V30 51 1 45 27
M  V30 52 1 43 34
M  V30 53 1 43 38
M  V30 54 1 1 48
M  V30 55 1 1 49
M  V30 56 1 1 50
M  V30 57 1 4 51
M  V30 58 1 7 52
M  V30 59 1 7 53
M  V30 60 1 8 54
M  V30 61 1 8 55
M  V30 62 1 10 56
M  V30 63 1 10 57
M  V30 64 1 10 58
M  V30 65 1 11 59
M  V30 66 1 11 60
M  V30 67 1 12 61
M  V30 68 1 12 62
M  V30 69 1 13 63
M  V30 70 1 14 64
M  V30 71 1 16 65
M  V30 72 1 19 66
M  V30 73 1 22 67
M  V30 74 1 22 68
M  V30 75 1 22 69
M  V30 76 1 23 70
M  V30 77 1 27 71 CFG=1
M  V30 78 1 28 72
M  V30 79 1 28 73
M  V30 80 1 29 74
M  V30 81 1 29 75
M  V30 82 1 30 76 CFG=1
M  V30 83 1 31 77
M  V30 84 1 35 78
M  V30 85 1 36 79
M  V30 86 1 37 80
M  V30 87 1 39 81
M  V30 88 1 40 82
M  V30 89 1 41 83
M  V30 90 1 42 84
M  V30 91 1 44 85
M  V30 92 1 44 86
M  V30 93 1 45 87
M  V30 94 1 45 88
M  V30 END BOND
M  V30 END CTAB
M  END
>  <Dataset>  (625) 
ChEMBL_Kinases

>  <Ligand_Instance>  (625) 
nan

>  <PDB_ID>  (625) 
nan

>  <Standardized_SMILES>  (625) 
COc1cc(N2CCN(C)CC2)ccc1Nc1ncc2c(C)cc(=O)n([C@H]3CC[C@@H](NC(=O)c4cccc5ccccc45)CC3)c2n1

>  <Name>  (625) 
nan

>  <Pocket>  (625) 
nan

>  <ATP_Site>  (625) 
nan

>  <Peripheral>  (625) 
nan

>  <Num_H_Atoms_ProtBoundConf>  (625) 
nan

>  <Num_Resolved_Atoms>  (625) 
nan

>  <Num_Not_Resolved_Atoms>  (625) 
nan

$$$$
CHEMBL4071151
     RDKit          3D

  0  0  0  0  0  0  0  0  0  0999 V3000
M  V30 BEGIN CTAB
M  V30 COUNTS 38 40 0 0 0
M  V30 BEGIN ATOM
M  V30 1 C -0.982622 -5.307177 3.751928 0
M  V30 2 C -0.849672 -4.294715 3.073621 0
M  V30 3 C -0.704393 -3.111147 2.261369 0
M  V30 4 N 0.138119 -2.911127 1.228078 0
M  V30 5 N -0.006938 -1.700119 0.718682 0
M  V30 6 C 0.753159 -1.177330 -0.402326 0 CFG=2
M  V30 7 C 2.115048 -1.780067 -0.496160 0
M  V30 8 C 3.235879 -0.797520 -0.326220 0
M  V30 9 C 3.062080 0.404620 -1.253041 0
M  V30 10 N 1.796190 0.984459 -0.944179 0
M  V30 11 C 1.749897 2.324384 -1.410858 0
M  V30 12 O 2.736160 2.830036 -1.999474 0
M  V30 13 C 0.538022 3.097402 -1.192871 0
M  V30 14 C -0.472679 3.928376 -1.078577 0
M  V30 15 C 0.742547 0.313584 -0.269984 0
M  V30 16 C -0.970421 -1.104724 1.445487 0
M  V30 17 N -1.522313 0.113815 1.377455 0
M  V30 18 C -2.499034 0.519026 2.223616 0
M  V30 19 N -2.983485 -0.277846 3.194065 0
M  V30 20 C -2.444682 -1.524035 3.291661 0
M  V30 21 N -2.858536 -2.471592 4.267846 0
M  V30 22 C -1.449306 -1.948657 2.435829 0
M  V30 23 H -1.104704 -6.189826 4.324792 0
M  V30 24 H 0.194638 -1.485434 -1.324498 0
M  V30 25 H 2.218936 -2.550638 0.294811 0
M  V30 26 H 2.287278 -2.314475 -1.466027 0
M  V30 27 H 4.174366 -1.302891 -0.657688 0
M  V30 28 H 3.375949 -0.497001 0.724919 0
M  V30 29 H 3.922138 1.064333 -1.155074 0
M  V30 30 H 2.966153 -0.039732 -2.277947 0
M  V30 31 H -0.319581 2.677823 -0.686506 0
M  V30 32 H -0.354929 4.940227 -1.493657 0
M  V30 33 H -0.421350 4.943672 -1.467621 0
M  V30 34 H 0.724049 0.631939 0.791938 0
M  V30 35 H -0.230573 0.649312 -0.715084 0
M  V30 36 H -2.912673 1.517540 2.125540 0
M  V30 37 H -3.246943 -3.360177 3.867600 0
M  V30 38 H -2.921057 -2.615451 5.300735 0
M  V30 END ATOM
M  V30 BEGIN BOND
M  V30 1 3 1 2
M  V30 2 1 2 3
M  V30 3 2 3 4
M  V30 4 1 4 5
M  V30 5 1 5 6
M  V30 6 1 6 7
M  V30 7 1 7 8
M  V30 8 1 8 9
M  V30 9 1 9 10
M  V30 10 1 10 11
M  V30 11 2 11 12
M  V30 12 1 11 13
M  V30 13 2 13 14
M  V30 14 1 10 15
M  V30 15 1 5 16
M  V30 16 2 16 17
M  V30 17 1 17 18
M  V30 18 2 18 19
M  V30 19 1 19 20
M  V30 20 1 20 21
M  V30 21 2 20 22
M  V30 22 1 22 3
M  V30 23 1 15 6
M  V30 24 1 22 16
M  V30 25 1 1 23
M  V30 26 1 6 24 CFG=3
M  V30 27 1 7 25
M  V30 28 1 7 26
M  V30 29 1 8 27
M  V30 30 1 8 28
M  V30 31 1 9 29
M  V30 32 1 9 30
M  V30 33 1 13 31
M  V30 34 1 14 32
M  V30 35 1 14 33
M  V30 36 1 15 34
M  V30 37 1 15 35
M  V30 38 1 18 36
M  V30 39 1 21 37
M  V30 40 1 21 38
M  V30 END BOND
M  V30 END CTAB
M  END
>  <Dataset>  (626) 
ChEMBL_Kinases

>  <Ligand_Instance>  (626) 
nan

>  <PDB_ID>  (626) 
nan

>  <Standardized_SMILES>  (626) 
C#Cc1nn([C@@H]2CCCN(C(=O)C=C)C2)c2ncnc(N)c12

>  <Name>  (626) 
nan

>  <Pocket>  (626) 
nan

>  <ATP_Site>  (626) 
nan

>  <Peripheral>  (626) 
nan

>  <Num_H_Atoms_ProtBoundConf>  (626) 
nan

>  <Num_Resolved_Atoms>  (626) 
nan

>  <Num_Not_Resolved_Atoms>  (626) 
nan

$$$$
CHEMBL4071429
     RDKit          3D

  0  0  0  0  0  0  0  0  0  0999 V3000
M  V30 BEGIN CTAB
M  V30 COUNTS 50 53 0 0 0
M  V30 BEGIN ATOM
M  V30 1 C 0.141301 -2.612414 -1.964126 0
M  V30 2 O 0.556748 -1.322343 -1.564596 0
M  V30 3 C 1.792768 -1.031402 -1.055321 0
M  V30 4 C 2.751508 -2.014041 -0.892167 0
M  V30 5 C 3.997266 -1.746081 -0.383942 0
M  V30 6 F 4.963964 -2.694596 -0.211567 0
M  V30 7 C 4.328383 -0.448950 -0.013695 0
M  V30 8 C 3.357900 0.498832 -0.187686 0
M  V30 9 F 3.640279 1.777985 0.161919 0
M  V30 10 C 2.076527 0.291240 -0.697524 0
M  V30 11 C 1.099073 1.408918 -0.843607 0
M  V30 12 C 0.278535 1.497016 0.378346 0
M  V30 13 N -1.138527 1.139774 0.190026 0
M  V30 14 C -1.654282 0.094089 0.992158 0
M  V30 15 N -0.747554 -0.403365 1.850277 0
M  V30 16 C -1.012050 -1.415323 2.718422 0
M  V30 17 C 0.029495 -1.890326 3.611817 0
M  V30 18 C -0.157571 -2.895788 4.505804 0
M  V30 19 C 0.910302 -3.268402 5.312432 0
M  V30 20 N 2.126396 -2.659757 5.232401 0
M  V30 21 C 2.281826 -1.672440 4.342996 0
M  V30 22 N 1.252034 -1.319628 3.571393 0
M  V30 23 C -2.277807 -1.912724 2.672305 0
M  V30 24 C -3.243879 -1.441184 1.814527 0
M  V30 25 O -4.418226 -1.890002 1.759209 0
M  V30 26 N -2.876190 -0.445187 1.004783 0
M  V30 27 C -3.834840 0.100458 0.074182 0
M  V30 28 C -1.569821 2.050889 -0.835524 0
M  V30 29 C -0.953546 1.489045 -2.125972 0
M  V30 30 N 0.442350 1.371801 -2.087770 0
M  V30 31 H -0.969951 -2.684435 -2.026121 0
M  V30 32 H 0.549701 -2.778689 -2.981979 0
M  V30 33 H 0.507098 -3.430641 -1.335525 0
M  V30 34 H 2.549650 -3.044656 -1.163916 0
M  V30 35 H 5.289995 -0.155692 0.394352 0
M  V30 36 H 1.738553 2.342646 -0.861835 0
M  V30 37 H 0.683826 0.852105 1.181858 0
M  V30 38 H 0.283428 2.530378 0.839083 0
M  V30 39 H -1.112697 -3.357748 4.553020 0
M  V30 40 H 0.751134 -4.062113 6.013411 0
M  V30 41 H 3.192413 -1.097842 4.167370 0
M  V30 42 H -2.569756 -2.707206 3.318313 0
M  V30 43 H -4.205474 1.093059 0.368177 0
M  V30 44 H -3.537485 -0.002988 -0.989604 0
M  V30 45 H -4.774196 -0.543661 0.124512 0
M  V30 46 H -1.175102 3.101997 -0.663440 0
M  V30 47 H -2.652603 2.151636 -0.977051 0
M  V30 48 H -1.510576 0.530517 -2.287362 0
M  V30 49 H -1.235732 2.171515 -2.952751 0
M  V30 50 H 0.956934 1.814288 -2.880752 0
M  V30 END ATOM
M  V30 BEGIN BOND
M  V30 1 1 1 2
M  V30 2 1 2 3
M  V30 3 2 3 4
M  V30 4 1 4 5
M  V30 5 1 5 6
M  V30 6 2 5 7
M  V30 7 1 7 8
M  V30 8 1 8 9
M  V30 9 2 8 10
M  V30 10 1 10 11
M  V30 11 1 11 12
M  V30 12 1 12 13
M  V30 13 1 13 14
M  V30 14 2 14 15
M  V30 15 1 15 16
M  V30 16 1 16 17
M  V30 17 2 17 18
M  V30 18 1 18 19
M  V30 19 2 19 20
M  V30 20 1 20 21
M  V30 21 2 21 22
M  V30 22 2 16 23
M  V30 23 1 23 24
M  V30 24 2 24 25
M  V30 25 1 24 26
M  V30 26 1 26 27
M  V30 27 1 13 28
M  V30 28 1 28 29
M  V30 29 1 29 30
M  V30 30 1 10 3
M  V30 31 1 30 11
M  V30 32 1 26 14
M  V30 33 1 22 17
M  V30 34 1 1 31
M  V30 35 1 1 32
M  V30 36 1 1 33
M  V30 37 1 4 34
M  V30 38 1 7 35
M  V30 39 1 11 36
M  V30 40 1 12 37
M  V30 41 1 12 38
M  V30 42 1 18 39
M  V30 43 1 19 40
M  V30 44 1 21 41
M  V30 45 1 23 42
M  V30 46 1 27 43
M  V30 47 1 27 44
M  V30 48 1 27 45
M  V30 49 1 28 46
M  V30 50 1 28 47
M  V30 51 1 29 48
M  V30 52 1 29 49
M  V30 53 1 30 50
M  V30 END BOND
M  V30 END CTAB
M  END
>  <Dataset>  (627) 
ChEMBL_Kinases

>  <Ligand_Instance>  (627) 
nan

>  <PDB_ID>  (627) 
nan

>  <Standardized_SMILES>  (627) 
COc1cc(F)cc(F)c1C1CN(c2nc(-c3ccncn3)cc(=O)n2C)CCN1

>  <Name>  (627) 
nan

>  <Pocket>  (627) 
nan

>  <ATP_Site>  (627) 
nan

>  <Peripheral>  (627) 
nan

>  <Num_H_Atoms_ProtBoundConf>  (627) 
nan

>  <Num_Resolved_Atoms>  (627) 
nan

>  <Num_Not_Resolved_Atoms>  (627) 
nan

$$$$
CHEMBL4071415
     RDKit          3D

  0  0  0  0  0  0  0  0  0  0999 V3000
M  V30 BEGIN CTAB
M  V30 COUNTS 45 49 0 0 0
M  V30 BEGIN ATOM
M  V30 1 C -1.293674 -4.659557 2.183761 0
M  V30 2 C -1.797972 -5.855139 1.727800 0
M  V30 3 N -2.161007 -5.922869 0.451423 0
M  V30 4 N -2.056889 -4.887484 -0.397317 0
M  V30 5 C -1.572131 -3.693673 -0.012291 0
M  V30 6 C -1.492557 -2.620931 -0.997579 0
M  V30 7 C -1.929320 -2.921580 -2.271174 0
M  V30 8 C -1.886305 -1.946966 -3.275946 0
M  V30 9 C -1.400581 -0.692509 -2.960017 0
M  V30 10 N -1.220938 0.450965 -3.655832 0
M  V30 11 N -0.710195 1.392648 -2.872273 0
M  V30 12 C -0.524903 0.927592 -1.623248 0
M  V30 13 C 0.018163 1.684304 -0.497384 0
M  V30 14 C -0.479359 2.952455 -0.334922 0
M  V30 15 C 0.024539 3.683390 0.727283 0
M  V30 16 N 0.953879 3.191005 1.566019 0
M  V30 17 C 1.457836 1.952893 1.429723 0
M  V30 18 N 2.436797 1.453209 2.325013 0
M  V30 19 C 3.045893 0.146188 2.273447 0
M  V30 20 C 2.671083 -0.547360 3.563559 0
M  V30 21 O 3.204591 0.233077 4.586161 0
M  V30 22 C 2.652132 1.491828 4.686102 0
M  V30 23 C 2.896671 2.302877 3.408411 0
M  V30 24 C 0.973845 1.204261 0.381124 0
M  V30 25 C -0.956826 -0.383669 -1.670085 0
M  V30 26 C -1.010289 -1.363861 -0.697691 0
M  V30 27 C -1.190602 -3.606137 1.309556 0
M  V30 28 H -0.990655 -4.575044 3.215689 0
M  V30 29 H -1.909600 -6.727394 2.353409 0
M  V30 30 H -2.322700 -3.881451 -2.594092 0
M  V30 31 H -2.224441 -2.163515 -4.281335 0
M  V30 32 H -1.444342 0.599476 -4.668766 0
M  V30 33 H -1.228570 3.416777 -0.970068 0
M  V30 34 H -0.308757 4.705097 0.940903 0
M  V30 35 H 4.160393 0.311055 2.357397 0
M  V30 36 H 2.873267 -0.426049 1.368976 0
M  V30 37 H 1.556212 -0.567903 3.641525 0
M  V30 38 H 3.123664 -1.539621 3.633267 0
M  V30 39 H 3.119120 1.972644 5.560767 0
M  V30 40 H 1.549781 1.446789 4.831597 0
M  V30 41 H 3.999187 2.434262 3.363271 0
M  V30 42 H 2.365791 3.249552 3.467691 0
M  V30 43 H 1.324891 0.197556 0.198285 0
M  V30 44 H -0.669153 -1.133239 0.302256 0
M  V30 45 H -0.797140 -2.656949 1.645749 0
M  V30 END ATOM
M  V30 BEGIN BOND
M  V30 1 2 1 2
M  V30 2 1 2 3
M  V30 3 2 3 4
M  V30 4 1 4 5
M  V30 5 1 5 6
M  V30 6 2 6 7
M  V30 7 1 7 8
M  V30 8 2 8 9
M  V30 9 1 9 10
M  V30 10 1 10 11
M  V30 11 2 11 12
M  V30 12 1 12 13
M  V30 13 2 13 14
M  V30 14 1 14 15
M  V30 15 2 15 16
M  V30 16 1 16 17
M  V30 17 1 17 18
M  V30 18 1 18 19
M  V30 19 1 19 20
M  V30 20 1 20 21
M  V30 21 1 21 22
M  V30 22 1 22 23
M  V30 23 2 17 24
M  V30 24 1 12 25
M  V30 25 2 25 26
M  V30 26 2 5 27
M  V30 27 1 27 1
M  V30 28 1 26 6
M  V30 29 1 25 9
M  V30 30 1 24 13
M  V30 31 1 23 18
M  V30 32 1 1 28
M  V30 33 1 2 29
M  V30 34 1 7 30
M  V30 35 1 8 31
M  V30 36 1 10 32
M  V30 37 1 14 33
M  V30 38 1 15 34
M  V30 39 1 19 35
M  V30 40 1 19 36
M  V30 41 1 20 37
M  V30 42 1 20 38
M  V30 43 1 22 39
M  V30 44 1 22 40
M  V30 45 1 23 41
M  V30 46 1 23 42
M  V30 47 1 24 43
M  V30 48 1 26 44
M  V30 49 1 27 45
M  V30 END BOND
M  V30 END CTAB
M  END
>  <Dataset>  (628) 
ChEMBL_Kinases

>  <Ligand_Instance>  (628) 
nan

>  <PDB_ID>  (628) 
nan

>  <Standardized_SMILES>  (628) 
c1cnnc(-c2ccc3[nH]nc(-c4ccnc(N5CCOCC5)c4)c3c2)c1

>  <Name>  (628) 
nan

>  <Pocket>  (628) 
nan

>  <ATP_Site>  (628) 
nan

>  <Peripheral>  (628) 
nan

>  <Num_H_Atoms_ProtBoundConf>  (628) 
nan

>  <Num_Resolved_Atoms>  (628) 
nan

>  <Num_Not_Resolved_Atoms>  (628) 
nan

$$$$
CHEMBL4860037
     RDKit          3D

  0  0  0  0  0  0  0  0  0  0999 V3000
M  V30 BEGIN CTAB
M  V30 COUNTS 45 48 0 0 0
M  V30 BEGIN ATOM
M  V30 1 C -0.061203 -3.812073 2.763013 0
M  V30 2 C -0.484868 -3.510799 1.340556 0 CFG=2
M  V30 3 N 0.310191 -2.479131 0.739349 0
M  V30 4 C 1.136000 -2.567241 -0.394573 0
M  V30 5 O 1.035435 -3.779361 -0.795844 0
M  V30 6 C 1.987221 -1.683926 -1.134004 0
M  V30 7 C 2.624016 -2.197392 -2.244644 0
M  V30 8 N 3.373196 -1.231331 -2.804354 0
M  V30 9 C 3.249968 -0.103553 -2.099857 0
M  V30 10 C 3.766051 1.169584 -2.194932 0
M  V30 11 C 3.438645 2.148885 -1.281809 0
M  V30 12 C 2.564943 1.795897 -0.260813 0
M  V30 13 C 2.164402 2.786289 0.757909 0
M  V30 14 C 2.813208 3.863233 1.326185 0
M  V30 15 N 1.948860 4.422035 2.220004 0
M  V30 16 N 0.809883 3.753231 2.233897 0
M  V30 17 C -0.363543 4.031681 3.049581 0
M  V30 18 C 0.900640 2.740365 1.349941 0
M  V30 19 C 2.074291 0.511143 -0.205949 0
M  V30 20 N 2.410500 -0.418293 -1.107403 0
M  V30 21 C -1.937763 -3.137109 1.371551 0
M  V30 22 C -2.276295 -1.847764 1.783758 0
M  V30 23 C -3.615106 -1.477094 1.821039 0
M  V30 24 C -4.616221 -2.350551 1.461182 0
M  V30 25 Cl -6.272499 -1.833045 1.527281 0
M  V30 26 C -4.217538 -3.618068 1.060146 0
M  V30 27 C -2.921394 -4.040944 1.002628 0
M  V30 28 H 0.698570 -4.618036 2.806597 0
M  V30 29 H 0.251360 -2.875991 3.277908 0
M  V30 30 H -0.958218 -4.198470 3.288956 0
M  V30 31 H -0.352643 -4.440860 0.767276 0
M  V30 32 H 0.291762 -1.539101 1.174317 0
M  V30 33 H 2.708536 -3.136896 -2.806877 0
M  V30 34 H 4.438139 1.401244 -2.999185 0
M  V30 35 H 3.818569 3.157909 -1.317543 0
M  V30 36 H 3.816756 4.114735 1.034014 0
M  V30 37 H -1.288326 3.622216 2.562184 0
M  V30 38 H -0.547243 5.105610 3.165417 0
M  V30 39 H -0.323510 3.486104 4.031268 0
M  V30 40 H 0.102968 2.030318 1.160005 0
M  V30 41 H 1.405677 0.300101 0.605237 0
M  V30 42 H -1.552676 -1.103131 2.082230 0
M  V30 43 H -3.881460 -0.469568 2.142729 0
M  V30 44 H -4.991615 -4.300470 0.779337 0
M  V30 45 H -2.648834 -5.043386 0.682439 0
M  V30 END ATOM
M  V30 BEGIN BOND
M  V30 1 1 1 2
M  V30 2 1 2 3
M  V30 3 1 3 4
M  V30 4 2 4 5
M  V30 5 1 4 6
M  V30 6 2 6 7
M  V30 7 1 7 8
M  V30 8 2 8 9
M  V30 9 1 9 10
M  V30 10 2 10 11
M  V30 11 1 11 12
M  V30 12 1 12 13
M  V30 13 1 13 14
M  V30 14 2 14 15
M  V30 15 1 15 16
M  V30 16 1 16 17
M  V30 17 1 16 18
M  V30 18 2 12 19
M  V30 19 1 19 20
M  V30 20 1 2 21
M  V30 21 2 21 22
M  V30 22 1 22 23
M  V30 23 2 23 24
M  V30 24 1 24 25
M  V30 25 1 24 26
M  V30 26 2 26 27
M  V30 27 1 20 6
M  V30 28 1 27 21
M  V30 29 1 20 9
M  V30 30 2 18 13
M  V30 31 1 1 28
M  V30 32 1 1 29
M  V30 33 1 1 30
M  V30 34 1 2 31 CFG=3
M  V30 35 1 3 32
M  V30 36 1 7 33
M  V30 37 1 10 34
M  V30 38 1 11 35
M  V30 39 1 14 36
M  V30 40 1 17 37
M  V30 41 1 17 38
M  V30 42 1 17 39
M  V30 43 1 18 40
M  V30 44 1 19 41
M  V30 45 1 22 42
M  V30 46 1 23 43
M  V30 47 1 26 44
M  V30 48 1 27 45
M  V30 END BOND
M  V30 END CTAB
M  END
>  <Dataset>  (629) 
ChEMBL_Kinases

>  <Ligand_Instance>  (629) 
nan

>  <PDB_ID>  (629) 
nan

>  <Standardized_SMILES>  (629) 
C[C@H](NC(=O)c1cnc2ccc(-c3cnn(C)c3)cn12)c1ccc(Cl)cc1

>  <Name>  (629) 
nan

>  <Pocket>  (629) 
nan

>  <ATP_Site>  (629) 
nan

>  <Peripheral>  (629) 
nan

>  <Num_H_Atoms_ProtBoundConf>  (629) 
nan

>  <Num_Resolved_Atoms>  (629) 
nan

>  <Num_Not_Resolved_Atoms>  (629) 
nan

$$$$
CHEMBL4860117
     RDKit          3D

  0  0  0  0  0  0  0  0  0  0999 V3000
M  V30 BEGIN CTAB
M  V30 COUNTS 61 66 0 0 0
M  V30 BEGIN ATOM
M  V30 1 C 5.958656 2.122617 1.378144 0
M  V30 2 O 4.672892 2.251961 0.745888 0
M  V30 3 C 3.696075 1.337486 1.198119 0
M  V30 4 N 4.024753 0.415150 2.160772 0
M  V30 5 C 3.077605 -0.428605 2.559180 0
M  V30 6 C 1.822910 -0.349675 2.005088 0
M  V30 7 C 1.405312 0.531538 1.048111 0
M  V30 8 C 2.388750 1.398899 0.639939 0
M  V30 9 N 2.276256 2.437278 -0.359300 0
M  V30 10 S 2.035200 2.728885 -2.032213 0
M  V30 11 O 3.185277 2.177800 -2.850152 0
M  V30 12 O 2.094803 4.234705 -2.246539 0
M  V30 13 C 0.530385 2.181118 -2.637517 0
M  V30 14 C 0.091284 2.691048 -3.854131 0
M  V30 15 C -1.119786 2.361496 -4.491920 0
M  V30 16 C -2.007579 1.445062 -3.903698 0
M  V30 17 C -1.685899 0.864231 -2.691197 0
M  V30 18 C -0.502835 1.397790 -2.399897 0
M  V30 19 C -2.504390 -0.036375 -2.005802 0
M  V30 20 O -3.478866 -0.465540 -2.661594 0
M  V30 21 N -2.729050 -0.705543 -0.833004 0
M  V30 22 C -3.523718 -1.604058 -0.080068 0
M  V30 23 C -3.668529 -2.995446 -0.604603 0 CFG=1
M  V30 24 C -2.320460 -3.505809 -1.044734 0
M  V30 25 C -1.986852 -4.563057 0.045351 0
M  V30 26 N -2.701816 -4.116164 1.204080 0
M  V30 27 C -4.012775 -3.946428 0.556492 0
M  V30 28 C -1.968948 -4.007015 2.376246 0
M  V30 29 N -2.270403 -4.785086 3.367761 0
M  V30 30 C -1.599513 -4.733931 4.539217 0
M  V30 31 N -0.589923 -3.861347 4.700887 0
M  V30 32 C -0.206280 -3.013270 3.727665 0
M  V30 33 C 0.800263 -2.086731 3.724317 0
M  V30 34 C 1.671949 -1.827217 4.925449 0
M  V30 35 C 0.991004 -1.361783 2.577373 0
M  V30 36 S -0.197801 -1.899236 1.427900 0
M  V30 37 C -0.933461 -3.106609 2.534338 0
M  V30 38 H 5.825656 2.293203 2.492980 0
M  V30 39 H 6.291254 1.067435 1.316148 0
M  V30 40 H 6.666274 2.859715 0.990293 0
M  V30 41 H 3.465271 -1.087505 3.300971 0
M  V30 42 H 0.398223 0.458555 0.731835 0
M  V30 43 H 2.387722 3.297009 0.260884 0
M  V30 44 H 0.673522 3.431911 -4.451757 0
M  V30 45 H -1.443604 2.788372 -5.466485 0
M  V30 46 H -2.951744 1.213951 -4.430318 0
M  V30 47 H -0.098645 1.031119 -1.473183 0
M  V30 48 H -1.889120 -0.282281 -0.397367 0
M  V30 49 H -3.179440 -1.619722 1.008624 0
M  V30 50 H -4.593694 -1.213856 0.002751 0
M  V30 51 H -4.400753 -3.063996 -1.400008 0
M  V30 52 H -2.458438 -4.018112 -2.010210 0
M  V30 53 H -1.540594 -2.737309 -1.099498 0
M  V30 54 H -2.462277 -5.508058 -0.371697 0
M  V30 55 H -0.911561 -4.683170 0.107369 0
M  V30 56 H -4.407061 -4.891395 0.183338 0
M  V30 57 H -4.714729 -3.384504 1.189403 0
M  V30 58 H -1.927120 -5.421762 5.302194 0
M  V30 59 H 1.871630 -0.759168 5.052826 0
M  V30 60 H 1.111310 -2.105597 5.874759 0
M  V30 61 H 2.545612 -2.503587 4.975627 0
M  V30 END ATOM
M  V30 BEGIN BOND
M  V30 1 1 1 2
M  V30 2 1 2 3
M  V30 3 2 3 4
M  V30 4 1 4 5
M  V30 5 2 5 6
M  V30 6 1 6 7
M  V30 7 2 7 8
M  V30 8 1 8 9
M  V30 9 1 9 10
M  V30 10 2 10 11
M  V30 11 2 10 12
M  V30 12 1 10 13
M  V30 13 2 13 14
M  V30 14 1 14 15
M  V30 15 2 15 16
M  V30 16 1 16 17
M  V30 17 2 17 18
M  V30 18 1 17 19
M  V30 19 2 19 20
M  V30 20 1 19 21
M  V30 21 1 21 22
M  V30 22 1 22 23
M  V30 23 1 23 24
M  V30 24 1 24 25
M  V30 25 1 25 26
M  V30 26 1 26 27
M  V30 27 1 26 28
M  V30 28 1 28 29
M  V30 29 2 29 30
M  V30 30 1 30 31
M  V30 31 2 31 32
M  V30 32 1 32 33
M  V30 33 1 33 34
M  V30 34 2 33 35
M  V30 35 1 35 36
M  V30 36 1 36 37
M  V30 37 1 8 3
M  V30 38 1 18 13
M  V30 39 1 27 23
M  V30 40 2 37 28
M  V30 41 1 35 6
M  V30 42 1 37 32
M  V30 43 1 1 38
M  V30 44 1 1 39
M  V30 45 1 1 40
M  V30 46 1 5 41
M  V30 47 1 7 42
M  V30 48 1 9 43
M  V30 49 1 14 44
M  V30 50 1 15 45
M  V30 51 1 16 46
M  V30 52 1 18 47
M  V30 53 1 21 48
M  V30 54 1 22 49
M  V30 55 1 22 50
M  V30 56 1 23 51 CFG=3
M  V30 57 1 24 52
M  V30 58 1 24 53
M  V30 59 1 25 54
M  V30 60 1 25 55
M  V30 61 1 27 56
M  V30 62 1 27 57
M  V30 63 1 30 58
M  V30 64 1 34 59
M  V30 65 1 34 60
M  V30 66 1 34 61
M  V30 END BOND
M  V30 END CTAB
M  END
>  <Dataset>  (630) 
ChEMBL_Kinases

>  <Ligand_Instance>  (630) 
nan

>  <PDB_ID>  (630) 
nan

>  <Standardized_SMILES>  (630) 
COc1ncc2cc1NS(=O)(=O)c1cccc(c1)C(=O)NC[C@H]1CCN(C1)c1ncnc3c(C)c-2sc13

>  <Name>  (630) 
nan

>  <Pocket>  (630) 
nan

>  <ATP_Site>  (630) 
nan

>  <Peripheral>  (630) 
nan

>  <Num_H_Atoms_ProtBoundConf>  (630) 
nan

>  <Num_Resolved_Atoms>  (630) 
nan

>  <Num_Not_Resolved_Atoms>  (630) 
nan

$$$$
CHEMBL4860121
     RDKit          3D

  0  0  0  0  0  0  0  0  0  0999 V3000
M  V30 BEGIN CTAB
M  V30 COUNTS 54 58 0 0 0
M  V30 BEGIN ATOM
M  V30 1 C 1.667482 0.518342 2.795226 0
M  V30 2 C 2.136262 -0.717867 2.043898 0
M  V30 3 C 2.380310 -1.796566 3.108700 0
M  V30 4 N 3.359580 -0.444933 1.314377 0
M  V30 5 C 4.517173 -1.142404 1.290583 0
M  V30 6 N 5.381421 -0.515425 0.472420 0
M  V30 7 N 4.753527 0.566965 -0.005683 0
M  V30 8 C 3.490587 0.625609 0.510056 0
M  V30 9 C 2.546837 1.687961 0.185110 0
M  V30 10 C 2.899669 3.028489 0.378560 0
M  V30 11 C 2.021414 4.054984 0.077742 0
M  V30 12 C 0.762378 3.796327 -0.425160 0
M  V30 13 N -0.313538 4.512188 -0.816120 0
M  V30 14 N -1.288967 3.709649 -1.230678 0
M  V30 15 C -0.892332 2.427384 -1.128729 0
M  V30 16 C -1.715704 1.293730 -1.497564 0
M  V30 17 C -2.398649 1.378200 -2.698018 0
M  V30 18 C -3.209264 0.336117 -3.125692 0
M  V30 19 C -3.339408 -0.799316 -2.349242 0
M  V30 20 C -2.662781 -0.893850 -1.150430 0
M  V30 21 C -2.707762 -2.037344 -0.226487 0
M  V30 22 O -2.071869 -2.099872 0.877261 0
M  V30 23 N -3.470033 -3.219246 -0.452453 0
M  V30 24 C -3.258680 -4.103287 0.667954 0
M  V30 25 C -3.869105 -4.307516 1.890068 0
M  V30 26 N -3.181131 -5.298419 2.486850 0
M  V30 27 N -2.194691 -5.709584 1.710258 0
M  V30 28 C -1.291450 -6.789439 2.136365 0
M  V30 29 C -2.189903 -4.998526 0.553671 0
M  V30 30 C -1.859692 0.151236 -0.737792 0
M  V30 31 C 0.391473 2.476482 -0.624820 0
M  V30 32 C 1.279427 1.465428 -0.319567 0
M  V30 33 H 2.467782 1.282174 2.704917 0
M  V30 34 H 0.671077 0.872252 2.453796 0
M  V30 35 H 1.550810 0.341751 3.888279 0
M  V30 36 H 1.326661 -1.132525 1.391052 0
M  V30 37 H 1.578997 -1.753571 3.874581 0
M  V30 38 H 3.322894 -1.527771 3.670324 0
M  V30 39 H 2.452637 -2.767630 2.618957 0
M  V30 40 H 4.600146 -2.058807 1.893117 0
M  V30 41 H 3.892766 3.242262 0.775630 0
M  V30 42 H 2.278299 5.084266 0.220801 0
M  V30 43 H -0.268882 5.563435 -0.755119 0
M  V30 44 H -2.378537 2.221440 -3.400884 0
M  V30 45 H -3.776079 0.320845 -4.047516 0
M  V30 46 H -3.955894 -1.656078 -2.618411 0
M  V30 47 H -4.041163 -3.273223 -1.347636 0
M  V30 48 H -4.722946 -3.693496 2.144953 0
M  V30 49 H -1.721672 -7.787157 1.961688 0
M  V30 50 H -0.347121 -6.667150 1.529963 0
M  V30 51 H -0.997352 -6.627548 3.193257 0
M  V30 52 H -1.421931 -5.239642 -0.178652 0
M  V30 53 H -1.298117 0.144910 0.194196 0
M  V30 54 H 1.006000 0.432311 -0.469260 0
M  V30 END ATOM
M  V30 BEGIN BOND
M  V30 1 1 1 2
M  V30 2 1 2 3
M  V30 3 1 2 4
M  V30 4 1 4 5
M  V30 5 2 5 6
M  V30 6 1 6 7
M  V30 7 2 7 8
M  V30 8 1 8 9
M  V30 9 2 9 10
M  V30 10 1 10 11
M  V30 11 2 11 12
M  V30 12 1 12 13
M  V30 13 1 13 14
M  V30 14 2 14 15
M  V30 15 1 15 16
M  V30 16 2 16 17
M  V30 17 1 17 18
M  V30 18 2 18 19
M  V30 19 1 19 20
M  V30 20 1 20 21
M  V30 21 2 21 22
M  V30 22 1 21 23
M  V30 23 1 23 24
M  V30 24 1 24 25
M  V30 25 2 25 26
M  V30 26 1 26 27
M  V30 27 1 27 28
M  V30 28 1 27 29
M  V30 29 2 20 30
M  V30 30 1 15 31
M  V30 31 2 31 32
M  V30 32 1 8 4
M  V30 33 1 32 9
M  V30 34 1 31 12
M  V30 35 1 30 16
M  V30 36 2 29 24
M  V30 37 1 1 33
M  V30 38 1 1 34
M  V30 39 1 1 35
M  V30 40 1 2 36
M  V30 41 1 3 37
M  V30 42 1 3 38
M  V30 43 1 3 39
M  V30 44 1 5 40
M  V30 45 1 10 41
M  V30 46 1 11 42
M  V30 47 1 13 43
M  V30 48 1 17 44
M  V30 49 1 18 45
M  V30 50 1 19 46
M  V30 51 1 23 47
M  V30 52 1 25 48
M  V30 53 1 28 49
M  V30 54 1 28 50
M  V30 55 1 28 51
M  V30 56 1 29 52
M  V30 57 1 30 53
M  V30 58 1 32 54
M  V30 END BOND
M  V30 END CTAB
M  END
>  <Dataset>  (631) 
ChEMBL_Kinases

>  <Ligand_Instance>  (631) 
nan

>  <PDB_ID>  (631) 
nan

>  <Standardized_SMILES>  (631) 
CC(C)n1cnnc1-c1ccc2[nH]nc(-c3cccc(C(=O)Nc4cnn(C)c4)c3)c2c1

>  <Name>  (631) 
nan

>  <Pocket>  (631) 
nan

>  <ATP_Site>  (631) 
nan

>  <Peripheral>  (631) 
nan

>  <Num_H_Atoms_ProtBoundConf>  (631) 
nan

>  <Num_Resolved_Atoms>  (631) 
nan

>  <Num_Not_Resolved_Atoms>  (631) 
nan

$$$$
CHEMBL4860143
     RDKit          3D

  0  0  0  0  0  0  0  0  0  0999 V3000
M  V30 BEGIN CTAB
M  V30 COUNTS 39 42 0 0 0
M  V30 BEGIN ATOM
M  V30 1 C 4.073396 -6.085357 3.813313 0
M  V30 2 O 3.670329 -4.817920 3.299294 0
M  V30 3 C 2.597047 -4.682004 2.458307 0
M  V30 4 O 1.983114 -5.762527 2.170114 0
M  V30 5 C 2.104728 -3.440720 1.874691 0
M  V30 6 O 2.644077 -2.253840 2.090663 0
M  V30 7 C 1.973250 -1.326575 1.420698 0
M  V30 8 C 2.077763 0.042750 1.271492 0
M  V30 9 C 1.177942 0.706774 0.468024 0
M  V30 10 C 0.164437 0.050025 -0.201560 0
M  V30 11 N -0.754211 0.748536 -1.031526 0
M  V30 12 C -0.831669 2.158420 -1.186281 0
M  V30 13 N -0.040095 2.849108 -2.058700 0
M  V30 14 C -0.202527 4.202919 -2.135303 0
M  V30 15 N -1.109153 4.843291 -1.380841 0
M  V30 16 C -1.902501 4.160673 -0.508489 0
M  V30 17 C -2.854480 4.821241 0.279404 0
M  V30 18 C -3.647620 4.103086 1.152235 0
M  V30 19 C -3.459060 2.733236 1.207396 0
M  V30 20 Cl -4.384001 1.669166 2.263109 0
M  V30 21 N -2.557912 2.082111 0.465933 0
M  V30 22 C -1.773905 2.780737 -0.394912 0
M  V30 23 C 0.020529 -1.314377 -0.082462 0
M  V30 24 C 0.940334 -1.945556 0.731118 0
M  V30 25 C 1.045425 -3.291587 1.037108 0
M  V30 26 C 0.176935 -4.397622 0.559481 0
M  V30 27 H 4.010076 -6.080137 4.901079 0
M  V30 28 H 5.144569 -6.287950 3.539202 0
M  V30 29 H 3.386884 -6.843320 3.405394 0
M  V30 30 H 2.886402 0.567395 1.805460 0
M  V30 31 H 1.264045 1.778645 0.354099 0
M  V30 32 H -1.464661 0.253414 -1.608363 0
M  V30 33 H 0.420348 4.783322 -2.826176 0
M  V30 34 H -2.963109 5.892587 0.198752 0
M  V30 35 H -4.398305 4.550068 1.785327 0
M  V30 36 H -0.761170 -1.851541 -0.592445 0
M  V30 37 H 0.774379 -5.003925 -0.149442 0
M  V30 38 H -0.173001 -5.051248 1.390188 0
M  V30 39 H -0.671665 -3.982104 -0.039269 0
M  V30 END ATOM
M  V30 BEGIN BOND
M  V30 1 1 1 2
M  V30 2 1 2 3
M  V30 3 2 3 4
M  V30 4 1 3 5
M  V30 5 1 5 6
M  V30 6 1 6 7
M  V30 7 2 7 8
M  V30 8 1 8 9
M  V30 9 2 9 10
M  V30 10 1 10 11
M  V30 11 1 11 12
M  V30 12 2 12 13
M  V30 13 1 13 14
M  V30 14 2 14 15
M  V30 15 1 15 16
M  V30 16 2 16 17
M  V30 17 1 17 18
M  V30 18 2 18 19
M  V30 19 1 19 20
M  V30 20 1 19 21
M  V30 21 2 21 22
M  V30 22 1 10 23
M  V30 23 2 23 24
M  V30 24 1 24 25
M  V30 25 1 25 26
M  V30 26 2 25 5
M  V30 27 1 24 7
M  V30 28 1 22 12
M  V30 29 1 22 16
M  V30 30 1 1 27
M  V30 31 1 1 28
M  V30 32 1 1 29
M  V30 33 1 8 30
M  V30 34 1 9 31
M  V30 35 1 11 32
M  V30 36 1 14 33
M  V30 37 1 17 34
M  V30 38 1 18 35
M  V30 39 1 23 36
M  V30 40 1 26 37
M  V30 41 1 26 38
M  V30 42 1 26 39
M  V30 END BOND
M  V30 END CTAB
M  END
>  <Dataset>  (632) 
ChEMBL_Kinases

>  <Ligand_Instance>  (632) 
nan

>  <PDB_ID>  (632) 
nan

>  <Standardized_SMILES>  (632) 
COC(=O)c1oc2ccc(Nc3ncnc4ccc(Cl)nc34)cc2c1C

>  <Name>  (632) 
nan

>  <Pocket>  (632) 
nan

>  <ATP_Site>  (632) 
nan

>  <Peripheral>  (632) 
nan

>  <Num_H_Atoms_ProtBoundConf>  (632) 
nan

>  <Num_Resolved_Atoms>  (632) 
nan

>  <Num_Not_Resolved_Atoms>  (632) 
nan

$$$$
CHEMBL4860173
     RDKit          3D

  0  0  0  0  0  0  0  0  0  0999 V3000
M  V30 BEGIN CTAB
M  V30 COUNTS 42 45 0 0 0
M  V30 BEGIN ATOM
M  V30 1 C -0.384478 -4.141156 -0.508450 0
M  V30 2 O 0.309228 -2.997732 -0.955533 0
M  V30 3 C 1.678428 -2.876504 -0.893652 0
M  V30 4 C 2.418164 -3.922515 -0.368739 0
M  V30 5 C 3.783831 -3.889448 -0.268179 0
M  V30 6 C 4.481535 -2.781335 -0.699318 0
M  V30 7 C 3.778554 -1.714195 -1.230471 0
M  V30 8 C 2.402725 -1.765799 -1.323692 0
M  V30 9 N 1.671849 -0.673642 -1.868315 0
M  V30 10 C 0.658837 0.182988 -1.353546 0
M  V30 11 C 0.140143 1.173966 -2.159284 0
M  V30 12 N -0.808176 1.929889 -1.588183 0
M  V30 13 C -1.282927 1.809076 -0.335700 0
M  V30 14 O -2.181458 2.573586 0.111964 0
M  V30 15 C -0.776869 0.823588 0.486530 0
M  V30 16 C -1.237829 0.623830 1.862256 0
M  V30 17 C -2.293030 -0.216059 2.197230 0
M  V30 18 C -2.671590 -0.354040 3.518926 0
M  V30 19 C -1.980134 0.358573 4.492944 0
M  V30 20 C -0.929062 1.196276 4.167376 0
M  V30 21 N -0.100963 1.988947 4.886821 0
M  V30 22 C 0.779665 2.617663 4.075976 0
M  V30 23 C 0.516626 2.220811 2.780321 0
M  V30 24 C -0.546239 1.337772 2.845223 0
M  V30 25 C 0.212632 0.011297 -0.063807 0
M  V30 26 H -1.419324 -4.144579 -0.914109 0
M  V30 27 H 0.141071 -5.081951 -0.827930 0
M  V30 28 H -0.446232 -4.113991 0.604843 0
M  V30 29 H 1.988215 -4.856017 0.007786 0
M  V30 30 H 4.382156 -4.697128 0.139426 0
M  V30 31 H 5.564857 -2.738224 -0.627008 0
M  V30 32 H 4.314601 -0.825828 -1.578071 0
M  V30 33 H 2.023807 -0.558654 -2.844460 0
M  V30 34 H 0.467428 1.336858 -3.176823 0
M  V30 35 H -1.238412 2.701051 -2.158141 0
M  V30 36 H -2.778303 -0.732546 1.393181 0
M  V30 37 H -3.500649 -1.013847 3.782752 0
M  V30 38 H -2.290459 0.240148 5.537343 0
M  V30 39 H -0.171342 2.070331 5.919860 0
M  V30 40 H 1.542272 3.306399 4.435124 0
M  V30 41 H 1.055730 2.555788 1.916776 0
M  V30 42 H 0.590013 -0.756191 0.612465 0
M  V30 END ATOM
M  V30 BEGIN BOND
M  V30 1 1 1 2
M  V30 2 1 2 3
M  V30 3 2 3 4
M  V30 4 1 4 5
M  V30 5 2 5 6
M  V30 6 1 6 7
M  V30 7 2 7 8
M  V30 8 1 8 9
M  V30 9 1 9 10
M  V30 10 2 10 11
M  V30 11 1 11 12
M  V30 12 1 12 13
M  V30 13 2 13 14
M  V30 14 1 13 15
M  V30 15 1 15 16
M  V30 16 2 16 17
M  V30 17 1 17 18
M  V30 18 2 18 19
M  V30 19 1 19 20
M  V30 20 1 20 21
M  V30 21 1 21 22
M  V30 22 2 22 23
M  V30 23 1 23 24
M  V30 24 2 15 25
M  V30 25 1 8 3
M  V30 26 1 25 10
M  V30 27 1 24 16
M  V30 28 2 24 20
M  V30 29 1 1 26
M  V30 30 1 1 27
M  V30 31 1 1 28
M  V30 32 1 4 29
M  V30 33 1 5 30
M  V30 34 1 6 31
M  V30 35 1 7 32
M  V30 36 1 9 33
M  V30 37 1 11 34
M  V30 38 1 12 35
M  V30 39 1 17 36
M  V30 40 1 18 37
M  V30 41 1 19 38
M  V30 42 1 21 39
M  V30 43 1 22 40
M  V30 44 1 23 41
M  V30 45 1 25 42
M  V30 END BOND
M  V30 END CTAB
M  END
>  <Dataset>  (633) 
ChEMBL_Kinases

>  <Ligand_Instance>  (633) 
nan

>  <PDB_ID>  (633) 
nan

>  <Standardized_SMILES>  (633) 
COc1ccccc1Nc1c[nH]c(=O)c(-c2cccc3[nH]ccc23)c1

>  <Name>  (633) 
nan

>  <Pocket>  (633) 
nan

>  <ATP_Site>  (633) 
nan

>  <Peripheral>  (633) 
nan

>  <Num_H_Atoms_ProtBoundConf>  (633) 
nan

>  <Num_Resolved_Atoms>  (633) 
nan

>  <Num_Not_Resolved_Atoms>  (633) 
nan

$$$$
CHEMBL4071328
     RDKit          3D

  0  0  0  0  0  0  0  0  0  0999 V3000
M  V30 BEGIN CTAB
M  V30 COUNTS 52 56 0 0 0
M  V30 BEGIN ATOM
M  V30 1 N 0.518002 -2.807110 -2.003082 0
M  V30 2 C 1.966323 -2.632167 -1.834531 0
M  V30 3 C 2.267647 -1.361450 -1.074412 0
M  V30 4 C 2.203847 -1.624464 0.424824 0
M  V30 5 N 1.226382 -2.682072 0.586743 0
M  V30 6 C -0.123486 -2.570109 0.980260 0
M  V30 7 N -0.713942 -1.389839 1.213185 0
M  V30 8 C -1.995859 -1.280699 1.590366 0
M  V30 9 N -2.654338 -0.058800 1.841804 0
M  V30 10 C -2.060863 1.226604 1.709457 0
M  V30 11 C -0.776748 1.481238 1.308530 0
M  V30 12 N -0.520316 2.800885 1.287003 0
M  V30 13 C 0.662533 3.513926 0.939341 0
M  V30 14 C 1.022660 4.710630 1.521366 0
M  V30 15 C 2.173823 5.382479 1.167597 0
M  V30 16 C 2.985111 4.811227 0.184490 0
M  V30 17 C 2.648475 3.601518 -0.423601 0
M  V30 18 C 1.486347 2.957559 -0.042283 0
M  V30 19 C -1.659018 3.399002 1.680528 0
M  V30 20 N -2.566180 2.442933 1.928024 0
M  V30 21 C -2.686002 -2.463593 1.728435 0
M  V30 22 C -4.007342 -2.562858 2.106209 0
M  V30 23 C -4.704697 -3.725962 2.247457 0
M  V30 24 Cl -6.387664 -3.785336 2.731904 0
M  V30 25 C -4.079218 -4.918423 2.003769 0
M  V30 26 C -2.754939 -4.893079 1.621228 0
M  V30 27 C -2.096151 -3.687971 1.493380 0
M  V30 28 N -0.807158 -3.719215 1.118148 0
M  V30 29 C 1.839822 -3.960143 0.271510 0
M  V30 30 C 2.467506 -3.858842 -1.091162 0
M  V30 31 H 0.122910 -2.100010 -2.681268 0
M  V30 32 H 0.274597 -3.780039 -2.225115 0
M  V30 33 H 2.396584 -2.632005 -2.852170 0
M  V30 34 H 1.473128 -0.578219 -1.249043 0
M  V30 35 H 3.219313 -0.882870 -1.384439 0
M  V30 36 H 1.802596 -0.745450 0.975796 0
M  V30 37 H 3.221589 -1.898792 0.771023 0
M  V30 38 H -3.640971 0.018799 2.149728 0
M  V30 39 H 0.022852 0.833483 1.020816 0
M  V30 40 H 0.394589 5.151880 2.281727 0
M  V30 41 H 2.492880 6.316803 1.594987 0
M  V30 42 H 3.918854 5.241056 -0.183499 0
M  V30 43 H 3.257251 3.135474 -1.186837 0
M  V30 44 H 1.191604 2.014814 -0.493108 0
M  V30 45 H -1.845548 4.478284 1.790252 0
M  V30 46 H -4.571833 -1.670054 2.315873 0
M  V30 47 H -4.578063 -5.872622 2.098413 0
M  V30 48 H -2.270316 -5.843609 1.430625 0
M  V30 49 H 1.107301 -4.799043 0.321261 0
M  V30 50 H 2.679690 -4.118462 1.006415 0
M  V30 51 H 3.585173 -3.769863 -1.028827 0
M  V30 52 H 2.235604 -4.741970 -1.705412 0
M  V30 END ATOM
M  V30 BEGIN BOND
M  V30 1 1 1 2
M  V30 2 1 2 3
M  V30 3 1 3 4
M  V30 4 1 4 5
M  V30 5 1 5 6
M  V30 6 2 6 7
M  V30 7 1 7 8
M  V30 8 1 8 9
M  V30 9 1 9 10
M  V30 10 2 10 11
M  V30 11 1 11 12
M  V30 12 1 12 13
M  V30 13 2 13 14
M  V30 14 1 14 15
M  V30 15 2 15 16
M  V30 16 1 16 17
M  V30 17 2 17 18
M  V30 18 1 12 19
M  V30 19 2 19 20
M  V30 20 2 8 21
M  V30 21 1 21 22
M  V30 22 2 22 23
M  V30 23 1 23 24
M  V30 24 1 23 25
M  V30 25 2 25 26
M  V30 26 1 26 27
M  V30 27 2 27 28
M  V30 28 1 5 29
M  V30 29 1 29 30
M  V30 30 1 30 2
M  V30 31 1 28 6
M  V30 32 1 20 10
M  V30 33 1 27 21
M  V30 34 1 18 13
M  V30 35 1 1 31
M  V30 36 1 1 32
M  V30 37 1 2 33
M  V30 38 1 3 34
M  V30 39 1 3 35
M  V30 40 1 4 36
M  V30 41 1 4 37
M  V30 42 1 9 38
M  V30 43 1 11 39
M  V30 44 1 14 40
M  V30 45 1 15 41
M  V30 46 1 16 42
M  V30 47 1 17 43
M  V30 48 1 18 44
M  V30 49 1 19 45
M  V30 50 1 22 46
M  V30 51 1 25 47
M  V30 52 1 26 48
M  V30 53 1 29 49
M  V30 54 1 29 50
M  V30 55 1 30 51
M  V30 56 1 30 52
M  V30 END BOND
M  V30 END CTAB
M  END
>  <Dataset>  (634) 
ChEMBL_Kinases

>  <Ligand_Instance>  (634) 
nan

>  <PDB_ID>  (634) 
nan

>  <Standardized_SMILES>  (634) 
NC1CCN(c2nc(Nc3cn(-c4ccccc4)cn3)c3cc(Cl)ccc3n2)CC1

>  <Name>  (634) 
nan

>  <Pocket>  (634) 
nan

>  <ATP_Site>  (634) 
nan

>  <Peripheral>  (634) 
nan

>  <Num_H_Atoms_ProtBoundConf>  (634) 
nan

>  <Num_Resolved_Atoms>  (634) 
nan

>  <Num_Not_Resolved_Atoms>  (634) 
nan

$$$$
CHEMBL4860202
     RDKit          3D

  0  0  0  0  0  0  0  0  0  0999 V3000
M  V30 BEGIN CTAB
M  V30 COUNTS 50 54 0 0 0
M  V30 BEGIN ATOM
M  V30 1 C 2.256250 -0.194502 4.196410 0
M  V30 2 S 2.414492 -1.789716 3.446740 0
M  V30 3 O 3.402344 -2.634523 4.234640 0
M  V30 4 O 1.084782 -2.475103 3.537411 0
M  V30 5 C 2.969193 -1.590995 1.802901 0
M  V30 6 N 4.288715 -1.560960 1.515176 0
M  V30 7 C 4.731124 -1.410152 0.252707 0
M  V30 8 C 3.765475 -1.285057 -0.752984 0
M  V30 9 C 2.423539 -1.314768 -0.468180 0
M  V30 10 C 1.609941 -1.168747 -1.662315 0
M  V30 11 C 0.763494 -0.087602 -1.660250 0
M  V30 12 C 0.337338 1.039015 -0.849248 0
M  V30 13 C 0.501753 2.384418 -1.086427 0
M  V30 14 C 0.005896 3.319937 -0.180826 0
M  V30 15 C -0.659330 2.859833 0.968537 0
M  V30 16 C -0.839126 1.492241 1.232299 0
M  V30 17 O -1.510047 1.457300 2.408105 0
M  V30 18 C -1.942735 0.337062 3.105683 0
M  V30 19 C -2.910775 -0.532867 2.411634 0
M  V30 20 C -4.220205 -0.049841 2.556723 0
M  V30 21 C -5.323542 -0.678283 2.022015 0
M  V30 22 C -5.179474 -1.847640 1.297880 0
M  V30 23 C -3.895180 -2.328366 1.151570 0
M  V30 24 C -2.812164 -1.686249 1.692756 0
M  V30 25 C -0.319621 0.639693 0.289076 0
M  V30 26 N 0.097530 -0.094384 -2.820942 0
M  V30 27 C 0.527462 -1.181193 -3.550042 0
M  V30 28 S 0.413717 -2.169584 -5.085402 0
M  V30 29 C 1.725682 -3.415647 -4.505919 0
M  V30 30 C 2.078627 -2.920516 -3.225010 0
M  V30 31 N 1.456863 -1.831100 -2.823851 0
M  V30 32 N 2.044135 -1.467480 0.807276 0
M  V30 33 H 2.395899 0.617178 3.435588 0
M  V30 34 H 3.014588 -0.106863 5.008315 0
M  V30 35 H 1.262786 -0.052461 4.658302 0
M  V30 36 H 5.795499 -1.390688 0.060475 0
M  V30 37 H 4.213327 -1.167803 -1.730401 0
M  V30 38 H 1.021407 2.611411 -1.991008 0
M  V30 39 H 0.211287 4.315180 -0.503806 0
M  V30 40 H -0.950364 3.772354 1.514088 0
M  V30 41 H -2.361722 0.625894 4.122120 0
M  V30 42 H -1.052604 -0.306110 3.420856 0
M  V30 43 H -4.505224 0.860660 3.099775 0
M  V30 44 H -6.334590 -0.325124 2.121384 0
M  V30 45 H -5.947896 -2.430131 0.833002 0
M  V30 46 H -3.690313 -3.236787 0.601150 0
M  V30 47 H -1.803693 -2.028038 1.614070 0
M  V30 48 H -0.509987 -0.371179 0.601325 0
M  V30 49 H 2.029175 -4.270732 -5.141058 0
M  V30 50 H 2.827794 -3.572423 -2.813053 0
M  V30 END ATOM
M  V30 BEGIN BOND
M  V30 1 1 1 2
M  V30 2 2 2 3
M  V30 3 2 2 4
M  V30 4 1 2 5
M  V30 5 2 5 6
M  V30 6 1 6 7
M  V30 7 2 7 8
M  V30 8 1 8 9
M  V30 9 1 9 10
M  V30 10 2 10 11
M  V30 11 1 11 12
M  V30 12 2 12 13
M  V30 13 1 13 14
M  V30 14 2 14 15
M  V30 15 1 15 16
M  V30 16 1 16 17
M  V30 17 1 17 18
M  V30 18 1 18 19
M  V30 19 2 19 20
M  V30 20 1 20 21
M  V30 21 2 21 22
M  V30 22 1 22 23
M  V30 23 2 23 24
M  V30 24 2 16 25
M  V30 25 1 11 26
M  V30 26 2 26 27
M  V30 27 1 27 28
M  V30 28 1 28 29
M  V30 29 2 29 30
M  V30 30 1 30 31
M  V30 31 2 9 32
M  V30 32 1 32 5
M  V30 33 1 31 10
M  V30 34 1 25 12
M  V30 35 1 31 27
M  V30 36 1 24 19
M  V30 37 1 1 33
M  V30 38 1 1 34
M  V30 39 1 1 35
M  V30 40 1 7 36
M  V30 41 1 8 37
M  V30 42 1 13 38
M  V30 43 1 14 39
M  V30 44 1 15 40
M  V30 45 1 18 41
M  V30 46 1 18 42
M  V30 47 1 20 43
M  V30 48 1 21 44
M  V30 49 1 22 45
M  V30 50 1 23 46
M  V30 51 1 24 47
M  V30 52 1 25 48
M  V30 53 1 29 49
M  V30 54 1 30 50
M  V30 END BOND
M  V30 END CTAB
M  END
>  <Dataset>  (635) 
ChEMBL_Kinases

>  <Ligand_Instance>  (635) 
nan

>  <PDB_ID>  (635) 
nan

>  <Standardized_SMILES>  (635) 
CS(=O)(=O)c1nccc(-c2c(-c3cccc(OCc4ccccc4)c3)nc3sccn23)n1

>  <Name>  (635) 
nan

>  <Pocket>  (635) 
nan

>  <ATP_Site>  (635) 
nan

>  <Peripheral>  (635) 
nan

>  <Num_H_Atoms_ProtBoundConf>  (635) 
nan

>  <Num_Resolved_Atoms>  (635) 
nan

>  <Num_Not_Resolved_Atoms>  (635) 
nan

$$$$
CHEMBL4860226
     RDKit          3D

  0  0  0  0  0  0  0  0  0  0999 V3000
M  V30 BEGIN CTAB
M  V30 COUNTS 49 52 0 0 0
M  V30 BEGIN ATOM
M  V30 1 C -0.421876 -1.862768 5.417979 0
M  V30 2 C -1.124710 -2.889030 4.597445 0
M  V30 3 C -0.214314 -3.478791 3.549467 0
M  V30 4 C -0.011147 -3.021557 2.246829 0
M  V30 5 C 0.906904 -3.862110 1.647799 0
M  V30 6 N 1.407699 -3.761743 0.316381 0
M  V30 7 C 0.863227 -2.658358 -0.427063 0
M  V30 8 N 1.485019 -1.456206 -0.317282 0
M  V30 9 C 1.089003 -0.344429 -0.952289 0
M  V30 10 N 1.880589 0.809449 -0.698680 0
M  V30 11 C 1.907081 1.904998 0.249980 0 CFG=1
M  V30 12 C 3.104176 2.795048 -0.061418 0
M  V30 13 C 0.648921 2.683471 0.230932 0
M  V30 14 C 0.014610 3.060759 1.405840 0
M  V30 15 C -1.155742 3.788939 1.473862 0
M  V30 16 C -1.745255 4.174337 0.289997 0
M  V30 17 F -2.891429 4.886198 0.439558 0
M  V30 18 C -1.158049 3.826798 -0.911570 0
M  V30 19 C 0.012357 3.097746 -0.924058 0
M  V30 20 N 0.010038 -0.412438 -1.750385 0
M  V30 21 C -0.671115 -1.574651 -1.917501 0
M  V30 22 C -1.776042 -1.648212 -2.736004 0
M  V30 23 C -2.425269 -2.867225 -2.863951 0
M  V30 24 C -1.971162 -3.992749 -2.180342 0
M  V30 25 F -2.621346 -5.166532 -2.322371 0
M  V30 26 C -0.849220 -3.934483 -1.344022 0
M  V30 27 C -0.240709 -2.700708 -1.251943 0
M  V30 28 N 1.228053 -4.791032 2.592115 0
M  V30 29 N 0.572362 -4.561349 3.694525 0
M  V30 30 H -0.353899 -2.209575 6.476727 0
M  V30 31 H -1.023847 -0.935939 5.446994 0
M  V30 32 H 0.568712 -1.592334 5.002815 0
M  V30 33 H -1.509428 -3.706620 5.261467 0
M  V30 34 H -2.025918 -2.437999 4.137288 0
M  V30 35 H -0.507235 -2.170259 1.848313 0
M  V30 36 H 2.107667 -4.485687 0.014878 0
M  V30 37 H 2.577802 0.718836 -1.463998 0
M  V30 38 H 2.061968 1.547035 1.292912 0
M  V30 39 H 3.839260 2.163804 -0.595848 0
M  V30 40 H 3.585491 3.150133 0.879825 0
M  V30 41 H 2.848522 3.648564 -0.713891 0
M  V30 42 H 0.517005 2.733725 2.329324 0
M  V30 43 H -1.517552 3.998220 2.481172 0
M  V30 44 H -1.678711 4.164784 -1.777495 0
M  V30 45 H 0.459694 2.834419 -1.892282 0
M  V30 46 H -2.049839 -0.722670 -3.222863 0
M  V30 47 H -3.288055 -2.888046 -3.514386 0
M  V30 48 H -0.514057 -4.820771 -0.822519 0
M  V30 49 H 0.642666 -5.140441 4.583337 0
M  V30 END ATOM
M  V30 BEGIN BOND
M  V30 1 1 1 2
M  V30 2 1 2 3
M  V30 3 2 3 4
M  V30 4 1 4 5
M  V30 5 1 5 6
M  V30 6 1 6 7
M  V30 7 2 7 8
M  V30 8 1 8 9
M  V30 9 1 9 10
M  V30 10 1 10 11
M  V30 11 1 11 12
M  V30 12 1 11 13
M  V30 13 2 13 14
M  V30 14 1 14 15
M  V30 15 2 15 16
M  V30 16 1 16 17
M  V30 17 1 16 18
M  V30 18 2 18 19
M  V30 19 2 9 20
M  V30 20 1 20 21
M  V30 21 2 21 22
M  V30 22 1 22 23
M  V30 23 2 23 24
M  V30 24 1 24 25
M  V30 25 1 24 26
M  V30 26 2 26 27
M  V30 27 2 5 28
M  V30 28 1 28 29
M  V30 29 1 29 3
M  V30 30 1 27 7
M  V30 31 1 19 13
M  V30 32 1 27 21
M  V30 33 1 1 30
M  V30 34 1 1 31
M  V30 35 1 1 32
M  V30 36 1 2 33
M  V30 37 1 2 34
M  V30 38 1 4 35
M  V30 39 1 6 36
M  V30 40 1 10 37
M  V30 41 1 11 38 CFG=1
M  V30 42 1 12 39
M  V30 43 1 12 40
M  V30 44 1 12 41
M  V30 45 1 14 42
M  V30 46 1 15 43
M  V30 47 1 18 44
M  V30 48 1 19 45
M  V30 49 1 22 46
M  V30 50 1 23 47
M  V30 51 1 26 48
M  V30 52 1 29 49
M  V30 END BOND
M  V30 END CTAB
M  END
>  <Dataset>  (636) 
ChEMBL_Kinases

>  <Ligand_Instance>  (636) 
nan

>  <PDB_ID>  (636) 
nan

>  <Standardized_SMILES>  (636) 
CCc1cc(Nc2nc(N[C@@H](C)c3ccc(F)cc3)nc3ccc(F)cc23)n[nH]1

>  <Name>  (636) 
nan

>  <Pocket>  (636) 
nan

>  <ATP_Site>  (636) 
nan

>  <Peripheral>  (636) 
nan

>  <Num_H_Atoms_ProtBoundConf>  (636) 
nan

>  <Num_Resolved_Atoms>  (636) 
nan

>  <Num_Not_Resolved_Atoms>  (636) 
nan

$$$$
CHEMBL4860241
     RDKit          3D

  0  0  0  0  0  0  0  0  0  0999 V3000
M  V30 BEGIN CTAB
M  V30 COUNTS 43 44 0 0 0
M  V30 BEGIN ATOM
M  V30 1 C -3.827360 -4.943186 1.167030 0
M  V30 2 C -2.426247 -4.554354 1.560049 0
M  V30 3 C -2.255941 -3.031564 1.529850 0
M  V30 4 C -2.545796 -2.602089 0.106205 0
M  V30 5 C -2.431355 -1.137558 -0.129279 0 CFG=2
M  V30 6 N -2.715089 -0.744548 -1.509482 0
M  V30 7 C -1.206755 -0.505805 0.390661 0
M  V30 8 O -0.577127 -0.542608 1.502709 0
M  V30 9 N -0.478351 0.371705 -0.472106 0
M  V30 10 C 0.700854 0.930134 0.145121 0
M  V30 11 C 0.539449 2.124804 0.818444 0
M  V30 12 C 1.660622 2.675621 1.417166 0
M  V30 13 C 2.901245 2.067941 1.354016 0
M  V30 14 C 4.078135 2.658935 1.990127 0
M  V30 15 C 4.076959 3.847912 2.698564 0
M  V30 16 N 5.351127 4.061990 3.133477 0
M  V30 17 C 6.081076 3.022839 2.690109 0
M  V30 18 O 5.307247 2.200796 2.013474 0
M  V30 19 C 3.052280 0.862140 0.671552 0
M  V30 20 O 4.259279 0.199042 0.567255 0
M  V30 21 C 4.443789 -1.011021 -0.109681 0
M  V30 22 C 1.931944 0.308202 0.071172 0
M  V30 23 H -3.935317 -5.226599 0.099946 0
M  V30 24 H -4.534045 -4.136131 1.452796 0
M  V30 25 H -4.178061 -5.857484 1.727266 0
M  V30 26 H -1.661703 -5.055949 0.968533 0
M  V30 27 H -2.258558 -4.844952 2.634836 0
M  V30 28 H -1.250863 -2.748809 1.879953 0
M  V30 29 H -3.016138 -2.539135 2.157200 0
M  V30 30 H -1.975002 -3.229968 -0.602121 0
M  V30 31 H -3.629154 -2.866777 -0.059531 0
M  V30 32 H -3.273615 -0.662168 0.455381 0
M  V30 33 H -3.581871 -1.257318 -1.784421 0
M  V30 34 H -2.963714 0.270329 -1.497537 0
M  V30 35 H -0.747778 0.611462 -1.471148 0
M  V30 36 H -0.402530 2.672814 0.918036 0
M  V30 37 H 1.596242 3.616237 1.962410 0
M  V30 38 H 3.238547 4.525046 2.899984 0
M  V30 39 H 7.147130 2.769282 2.796077 0
M  V30 40 H 3.725624 -1.779317 0.289455 0
M  V30 41 H 4.318588 -0.893031 -1.216851 0
M  V30 42 H 5.461539 -1.379529 0.147757 0
M  V30 43 H 1.975661 -0.626714 -0.475663 0
M  V30 END ATOM
M  V30 BEGIN BOND
M  V30 1 1 1 2
M  V30 2 1 2 3
M  V30 3 1 3 4
M  V30 4 1 4 5
M  V30 5 1 5 6
M  V30 6 1 5 7
M  V30 7 2 7 8
M  V30 8 1 7 9
M  V30 9 1 9 10
M  V30 10 2 10 11
M  V30 11 1 11 12
M  V30 12 2 12 13
M  V30 13 1 13 14
M  V30 14 2 14 15
M  V30 15 1 15 16
M  V30 16 2 16 17
M  V30 17 1 17 18
M  V30 18 1 13 19
M  V30 19 1 19 20
M  V30 20 1 20 21
M  V30 21 2 19 22
M  V30 22 1 22 10
M  V30 23 1 18 14
M  V30 24 1 1 23
M  V30 25 1 1 24
M  V30 26 1 1 25
M  V30 27 1 2 26
M  V30 28 1 2 27
M  V30 29 1 3 28
M  V30 30 1 3 29
M  V30 31 1 4 30
M  V30 32 1 4 31
M  V30 33 1 5 32 CFG=1
M  V30 34 1 6 33
M  V30 35 1 6 34
M  V30 36 1 9 35
M  V30 37 1 11 36
M  V30 38 1 12 37
M  V30 39 1 15 38
M  V30 40 1 17 39
M  V30 41 1 21 40
M  V30 42 1 21 41
M  V30 43 1 21 42
M  V30 44 1 22 43
M  V30 END BOND
M  V30 END CTAB
M  END
>  <Dataset>  (637) 
ChEMBL_Kinases

>  <Ligand_Instance>  (637) 
nan

>  <PDB_ID>  (637) 
nan

>  <Standardized_SMILES>  (637) 
CCCC[C@H](N)C(=O)Nc1ccc(-c2cnco2)c(OC)c1

>  <Name>  (637) 
nan

>  <Pocket>  (637) 
nan

>  <ATP_Site>  (637) 
nan

>  <Peripheral>  (637) 
nan

>  <Num_H_Atoms_ProtBoundConf>  (637) 
nan

>  <Num_Resolved_Atoms>  (637) 
nan

>  <Num_Not_Resolved_Atoms>  (637) 
nan

$$$$
CHEMBL4860246
     RDKit          3D

  0  0  0  0  0  0  0  0  0  0999 V3000
M  V30 BEGIN CTAB
M  V30 COUNTS 48 50 0 0 0
M  V30 BEGIN ATOM
M  V30 1 C -2.383306 -0.655195 3.645391 0
M  V30 2 N -1.580936 -1.885800 3.686288 0
M  V30 3 C -0.205824 -1.463709 3.744683 0
M  V30 4 C 0.774602 -2.564059 3.432221 0
M  V30 5 C 0.500468 -3.090829 2.040492 0
M  V30 6 C 0.515599 -1.978169 1.022341 0
M  V30 7 N 0.249566 -2.492696 -0.327745 0
M  V30 8 C 0.230786 -1.555563 -1.401272 0
M  V30 9 N 0.445464 -0.248322 -1.205144 0
M  V30 10 C 0.449598 0.706672 -2.133773 0
M  V30 11 N 0.676452 2.090809 -1.926986 0
M  V30 12 C 0.945292 2.774688 -0.716953 0
M  V30 13 C 1.150089 4.135906 -0.639496 0
M  V30 14 C 1.409081 4.768310 0.553813 0
M  V30 15 C 1.482789 4.096160 1.750541 0
M  V30 16 C 1.755392 4.811574 2.957161 0
M  V30 17 N 1.985007 5.383650 3.927924 0
M  V30 18 N 1.282293 2.769131 1.668985 0
M  V30 19 C 1.029192 2.149169 0.504766 0
M  V30 20 N 0.211175 0.286305 -3.386101 0
M  V30 21 C -0.018145 -0.992872 -3.713168 0
M  V30 22 C -0.008349 -1.929497 -2.705112 0
M  V30 23 C -0.252880 -3.369535 -2.978405 0
M  V30 24 F 0.810780 -4.165470 -2.610375 0
M  V30 25 F -1.374661 -3.839707 -2.296320 0
M  V30 26 F -0.458426 -3.602414 -4.323997 0
M  V30 27 C -0.919681 -3.659322 2.094965 0
M  V30 28 C -1.932391 -2.649572 2.526802 0
M  V30 29 H -1.850358 0.115909 4.233177 0
M  V30 30 H -2.433174 -0.371123 2.558395 0
M  V30 31 H -3.416449 -0.839457 3.954213 0
M  V30 32 H 0.004252 -1.155382 4.794673 0
M  V30 33 H -0.093544 -0.560694 3.125525 0
M  V30 34 H 0.629064 -3.362323 4.162342 0
M  V30 35 H 1.782177 -2.095648 3.512433 0
M  V30 36 H 1.147607 -3.919672 1.758230 0
M  V30 37 H -0.239149 -1.215117 1.197127 0
M  V30 38 H 1.524019 -1.516677 1.051150 0
M  V30 39 H 0.076679 -3.482525 -0.546427 0
M  V30 40 H 0.650097 2.727045 -2.755410 0
M  V30 41 H 1.105464 4.737396 -1.559620 0
M  V30 42 H 1.558025 5.845648 0.522360 0
M  V30 43 H 0.898121 1.099522 0.634476 0
M  V30 44 H -0.206770 -1.294954 -4.734416 0
M  V30 45 H -1.151515 -3.978756 1.064762 0
M  V30 46 H -0.903198 -4.498915 2.820770 0
M  V30 47 H -2.259787 -1.995369 1.697866 0
M  V30 48 H -2.846564 -3.235763 2.811575 0
M  V30 END ATOM
M  V30 BEGIN BOND
M  V30 1 1 1 2
M  V30 2 1 2 3
M  V30 3 1 3 4
M  V30 4 1 4 5
M  V30 5 1 5 6
M  V30 6 1 6 7
M  V30 7 1 7 8
M  V30 8 2 8 9
M  V30 9 1 9 10
M  V30 10 1 10 11
M  V30 11 1 11 12
M  V30 12 2 12 13
M  V30 13 1 13 14
M  V30 14 2 14 15
M  V30 15 1 15 16
M  V30 16 3 16 17
M  V30 17 1 15 18
M  V30 18 2 18 19
M  V30 19 2 10 20
M  V30 20 1 20 21
M  V30 21 2 21 22
M  V30 22 1 22 23
M  V30 23 1 23 24
M  V30 24 1 23 25
M  V30 25 1 23 26
M  V30 26 1 5 27
M  V30 27 1 27 28
M  V30 28 1 28 2
M  V30 29 1 22 8
M  V30 30 1 19 12
M  V30 31 1 1 29
M  V30 32 1 1 30
M  V30 33 1 1 31
M  V30 34 1 3 32
M  V30 35 1 3 33
M  V30 36 1 4 34
M  V30 37 1 4 35
M  V30 38 1 5 36
M  V30 39 1 6 37
M  V30 40 1 6 38
M  V30 41 1 7 39
M  V30 42 1 11 40
M  V30 43 1 13 41
M  V30 44 1 14 42
M  V30 45 1 19 43
M  V30 46 1 21 44
M  V30 47 1 27 45
M  V30 48 1 27 46
M  V30 49 1 28 47
M  V30 50 1 28 48
M  V30 END BOND
M  V30 END CTAB
M  END
>  <Dataset>  (638) 
ChEMBL_Kinases

>  <Ligand_Instance>  (638) 
nan

>  <PDB_ID>  (638) 
nan

>  <Standardized_SMILES>  (638) 
CN1CCC(CNc2nc(Nc3ccc(C#N)nc3)ncc2C(F)(F)F)CC1

>  <Name>  (638) 
nan

>  <Pocket>  (638) 
nan

>  <ATP_Site>  (638) 
nan

>  <Peripheral>  (638) 
nan

>  <Num_H_Atoms_ProtBoundConf>  (638) 
nan

>  <Num_Resolved_Atoms>  (638) 
nan

>  <Num_Not_Resolved_Atoms>  (638) 
nan

$$$$
CHEMBL4071494
     RDKit          3D

  0  0  0  0  0  0  0  0  0  0999 V3000
M  V30 BEGIN CTAB
M  V30 COUNTS 50 55 0 0 0
M  V30 BEGIN ATOM
M  V30 1 O 5.246043 -5.157641 -1.806787 0
M  V30 2 C 4.566160 -4.040146 -1.358155 0
M  V30 3 C 3.746092 -4.062580 -0.229541 0
M  V30 4 C 3.092989 -2.914739 0.169582 0
M  V30 5 C 3.235512 -1.736068 -0.530223 0
M  V30 6 C 2.524166 -0.542349 -0.073931 0
M  V30 7 N 2.551808 0.678761 -0.633679 0
M  V30 8 C 1.773674 1.530411 0.058146 0
M  V30 9 C 1.441693 2.943344 -0.095693 0
M  V30 10 C 0.823257 3.551469 -1.185368 0
M  V30 11 C 0.748255 4.882518 -0.817781 0
M  V30 12 C 1.305355 5.044818 0.446138 0
M  V30 13 O 1.684407 3.850545 0.787504 0
M  V30 14 C 1.218884 0.831551 1.109901 0
M  V30 15 C 0.303359 1.129868 2.220831 0
M  V30 16 C 0.474896 2.018240 3.239365 0
M  V30 17 C -0.509320 2.156501 4.203239 0
M  V30 18 N -1.653712 1.427277 4.166769 0
M  V30 19 C -1.843640 0.533188 3.155446 0
M  V30 20 N -2.890593 -0.283218 2.929667 0
M  V30 21 C -2.643958 -0.990175 1.814783 0
M  V30 22 C -3.486126 -2.005061 1.172278 0
M  V30 23 C -3.109868 -2.663827 0.003558 0
M  V30 24 C -3.910064 -3.618920 -0.590895 0
M  V30 25 C -5.126460 -3.903014 0.032067 0
M  V30 26 C -5.559099 -3.289488 1.187600 0
M  V30 27 C -4.701547 -2.335413 1.733805 0
M  V30 28 C -1.407537 -0.580942 1.360635 0
M  V30 29 C -0.873722 0.377692 2.180467 0
M  V30 30 N 1.707881 -0.437834 0.989231 0
M  V30 31 C 4.031090 -1.647337 -1.653926 0
M  V30 32 C 4.674896 -2.834056 -2.023564 0
M  V30 33 H 4.803189 -5.941644 -2.282435 0
M  V30 34 H 3.633624 -4.992381 0.322075 0
M  V30 35 H 2.473606 -2.999431 1.051242 0
M  V30 36 H 0.490628 3.088799 -2.085827 0
M  V30 37 H 0.333285 5.702307 -1.385762 0
M  V30 38 H 1.437014 5.923323 1.078805 0
M  V30 39 H 1.387465 2.559630 3.216057 0
M  V30 40 H -0.345434 2.872881 5.004364 0
M  V30 41 H -3.765956 -0.382832 3.497929 0
M  V30 42 H -2.163320 -2.421327 -0.453258 0
M  V30 43 H -3.589566 -4.109036 -1.493801 0
M  V30 44 H -5.740536 -4.665974 -0.463131 0
M  V30 45 H -6.513163 -3.545152 1.633380 0
M  V30 46 H -5.062613 -1.857221 2.654020 0
M  V30 47 H -0.921401 -0.973391 0.463256 0
M  V30 48 H 1.522187 -1.280454 1.601623 0
M  V30 49 H 4.176695 -0.749510 -2.238006 0
M  V30 50 H 5.311049 -2.783401 -2.912735 0
M  V30 END ATOM
M  V30 BEGIN BOND
M  V30 1 1 1 2
M  V30 2 2 2 3
M  V30 3 1 3 4
M  V30 4 2 4 5
M  V30 5 1 5 6
M  V30 6 2 6 7
M  V30 7 1 7 8
M  V30 8 1 8 9
M  V30 9 2 9 10
M  V30 10 1 10 11
M  V30 11 2 11 12
M  V30 12 1 12 13
M  V30 13 2 8 14
M  V30 14 1 14 15
M  V30 15 2 15 16
M  V30 16 1 16 17
M  V30 17 2 17 18
M  V30 18 1 18 19
M  V30 19 1 19 20
M  V30 20 1 20 21
M  V30 21 1 21 22
M  V30 22 2 22 23
M  V30 23 1 23 24
M  V30 24 2 24 25
M  V30 25 1 25 26
M  V30 26 2 26 27
M  V30 27 2 21 28
M  V30 28 1 28 29
M  V30 29 1 14 30
M  V30 30 1 5 31
M  V30 31 2 31 32
M  V30 32 1 32 2
M  V30 33 1 30 6
M  V30 34 1 13 9
M  V30 35 1 29 15
M  V30 36 2 29 19
M  V30 37 1 27 22
M  V30 38 1 1 33
M  V30 39 1 3 34
M  V30 40 1 4 35
M  V30 41 1 10 36
M  V30 42 1 11 37
M  V30 43 1 12 38
M  V30 44 1 16 39
M  V30 45 1 17 40
M  V30 46 1 20 41
M  V30 47 1 23 42
M  V30 48 1 24 43
M  V30 49 1 25 44
M  V30 50 1 26 45
M  V30 51 1 27 46
M  V30 52 1 28 47
M  V30 53 1 30 48
M  V30 54 1 31 49
M  V30 55 1 32 50
M  V30 END BOND
M  V30 END CTAB
M  END
>  <Dataset>  (639) 
ChEMBL_Kinases

>  <Ligand_Instance>  (639) 
nan

>  <PDB_ID>  (639) 
nan

>  <Standardized_SMILES>  (639) 
Oc1ccc(-c2nc(-c3ccco3)c(-c3ccnc4[nH]c(-c5ccccc5)cc34)[nH]2)cc1

>  <Name>  (639) 
nan

>  <Pocket>  (639) 
nan

>  <ATP_Site>  (639) 
nan

>  <Peripheral>  (639) 
nan

>  <Num_H_Atoms_ProtBoundConf>  (639) 
nan

>  <Num_Resolved_Atoms>  (639) 
nan

>  <Num_Not_Resolved_Atoms>  (639) 
nan

$$$$
CHEMBL4857123
     RDKit          3D

  0  0  0  0  0  0  0  0  0  0999 V3000
M  V30 BEGIN CTAB
M  V30 COUNTS 51 53 0 0 0
M  V30 BEGIN ATOM
M  V30 1 C 6.921772 -2.031078 1.257932 0
M  V30 2 C 5.680968 -2.855916 1.160984 0
M  V30 3 N 5.725683 -4.211311 1.111755 0
M  V30 4 C 4.628769 -4.985290 1.024388 0
M  V30 5 C 3.373226 -4.400850 0.980352 0
M  V30 6 C 3.292754 -3.028338 1.028347 0
M  V30 7 C 4.433086 -2.256752 1.117913 0
M  V30 8 C 4.393804 -0.878517 1.168301 0
M  V30 9 O 5.374639 -0.113788 1.249180 0
M  V30 10 N 3.202798 -0.286820 1.127959 0
M  V30 11 C 3.057180 1.156139 1.175182 0
M  V30 12 C 2.088313 -1.034072 1.040692 0
M  V30 13 C 0.852036 -0.391379 0.999927 0
M  V30 14 C -0.323905 -1.107137 0.910633 0
M  V30 15 O -1.538669 -0.437179 0.872046 0
M  V30 16 C -1.609624 0.987428 0.922518 0
M  V30 17 C -3.059224 1.444972 0.863525 0 CFG=1
M  V30 18 N -3.061878 2.885495 0.918169 0
M  V30 19 C -3.666141 0.913534 -0.403696 0
M  V30 20 C -5.123302 1.323725 -0.548449 0
M  V30 21 C -5.888835 0.776590 0.622601 0
M  V30 22 C -5.631310 0.764696 -1.861559 0
M  V30 23 C -0.308842 -2.492478 0.858690 0
M  V30 24 C -1.557312 -3.222034 0.765036 0
M  V30 25 N -2.559717 -3.816152 0.676314 0
M  V30 26 C 0.921741 -3.157664 0.898298 0
M  V30 27 C 2.065319 -2.411438 0.987044 0
M  V30 28 H 7.784156 -2.753133 1.308645 0
M  V30 29 H 7.112241 -1.410036 0.376445 0
M  V30 30 H 6.992781 -1.482349 2.233736 0
M  V30 31 H 4.888417 -6.042278 0.997850 0
M  V30 32 H 2.573392 -5.082908 0.912171 0
M  V30 33 H 2.575402 1.477750 0.248145 0
M  V30 34 H 2.391298 1.443537 2.028367 0
M  V30 35 H 4.015723 1.675981 1.254752 0
M  V30 36 H 0.768132 0.689042 1.036639 0
M  V30 37 H -1.134077 1.374088 1.857602 0
M  V30 38 H -1.040118 1.395758 0.067087 0
M  V30 39 H -3.588956 1.002729 1.742151 0
M  V30 40 H -2.204400 3.203915 1.422616 0
M  V30 41 H -3.863254 3.259611 1.505455 0
M  V30 42 H -3.058386 1.215702 -1.278533 0
M  V30 43 H -3.648509 -0.191826 -0.336388 0
M  V30 44 H -5.248706 2.410592 -0.598036 0
M  V30 45 H -5.877004 1.456872 1.498093 0
M  V30 46 H -5.452095 -0.193278 0.962665 0
M  V30 47 H -6.923576 0.571532 0.281227 0
M  V30 48 H -5.200960 -0.238134 -2.073616 0
M  V30 49 H -6.755770 0.721198 -1.785793 0
M  V30 50 H -5.389212 1.432675 -2.715492 0
M  V30 51 H 0.847855 -4.198132 0.854791 0
M  V30 END ATOM
M  V30 BEGIN BOND
M  V30 1 1 1 2
M  V30 2 2 2 3
M  V30 3 1 3 4
M  V30 4 2 4 5
M  V30 5 1 5 6
M  V30 6 2 6 7
M  V30 7 1 7 8
M  V30 8 2 8 9
M  V30 9 1 8 10
M  V30 10 1 10 11
M  V30 11 1 10 12
M  V30 12 2 12 13
M  V30 13 1 13 14
M  V30 14 1 14 15
M  V30 15 1 15 16
M  V30 16 1 16 17
M  V30 17 1 17 18
M  V30 18 1 17 19
M  V30 19 1 19 20
M  V30 20 1 20 21
M  V30 21 1 20 22
M  V30 22 2 14 23
M  V30 23 1 23 24
M  V30 24 3 24 25
M  V30 25 1 23 26
M  V30 26 2 26 27
M  V30 27 1 7 2
M  V30 28 1 27 12
M  V30 29 1 27 6
M  V30 30 1 1 28
M  V30 31 1 1 29
M  V30 32 1 1 30
M  V30 33 1 4 31
M  V30 34 1 5 32
M  V30 35 1 11 33
M  V30 36 1 11 34
M  V30 37 1 11 35
M  V30 38 1 13 36
M  V30 39 1 16 37
M  V30 40 1 16 38
M  V30 41 1 17 39 CFG=1
M  V30 42 1 18 40
M  V30 43 1 18 41
M  V30 44 1 19 42
M  V30 45 1 19 43
M  V30 46 1 20 44
M  V30 47 1 21 45
M  V30 48 1 21 46
M  V30 49 1 21 47
M  V30 50 1 22 48
M  V30 51 1 22 49
M  V30 52 1 22 50
M  V30 53 1 26 51
M  V30 END BOND
M  V30 END CTAB
M  END
>  <Dataset>  (640) 
ChEMBL_Kinases

>  <Ligand_Instance>  (640) 
nan

>  <PDB_ID>  (640) 
nan

>  <Standardized_SMILES>  (640) 
Cc1nccc2c1c(=O)n(C)c1cc(OC[C@@H](N)CC(C)C)c(C#N)cc21

>  <Name>  (640) 
nan

>  <Pocket>  (640) 
nan

>  <ATP_Site>  (640) 
nan

>  <Peripheral>  (640) 
nan

>  <Num_H_Atoms_ProtBoundConf>  (640) 
nan

>  <Num_Resolved_Atoms>  (640) 
nan

>  <Num_Not_Resolved_Atoms>  (640) 
nan

$$$$
CHEMBL4857148
     RDKit          3D

  0  0  0  0  0  0  0  0  0  0999 V3000
M  V30 BEGIN CTAB
M  V30 COUNTS 46 47 0 0 0
M  V30 BEGIN ATOM
M  V30 1 C -3.501034 -3.985086 -0.549702 0
M  V30 2 O -3.242473 -3.650191 0.787808 0
M  V30 3 C -2.107841 -3.074980 1.288120 0
M  V30 4 C -1.088242 -2.780068 0.404901 0
M  V30 5 C 0.083993 -2.198858 0.843262 0
M  V30 6 N 1.209079 -1.844126 0.044384 0
M  V30 7 C 1.233847 -0.526571 -0.519678 0
M  V30 8 O 0.156484 0.055059 -0.139083 0
M  V30 9 C 2.329985 -0.060079 -1.348430 0 CFG=2
M  V30 10 N 3.296203 -1.166078 -1.471088 0
M  V30 11 C 3.099003 1.130367 -0.860465 0
M  V30 12 C 2.130265 2.288746 -0.738138 0
M  V30 13 C 2.810467 3.546668 -0.253238 0
M  V30 14 C 1.735549 4.628019 -0.173642 0
M  V30 15 C 3.425048 3.423929 1.106022 0
M  V30 16 C 0.210364 -1.919822 2.189656 0
M  V30 17 C -0.833022 -2.230890 3.037784 0
M  V30 18 C -2.018403 -2.811607 2.636568 0
M  V30 19 C -3.057368 -3.099138 3.614303 0
M  V30 20 C -4.299544 -3.666696 3.439426 0
M  V30 21 N -4.955904 -3.753559 4.626234 0
M  V30 22 C -4.080871 -3.227822 5.505621 0
M  V30 23 O -2.983969 -2.854513 4.892207 0
M  V30 24 H -3.234610 -5.034211 -0.793638 0
M  V30 25 H -4.617279 -3.872825 -0.675775 0
M  V30 26 H -3.057132 -3.315393 -1.284663 0
M  V30 27 H -1.150130 -2.981414 -0.642778 0
M  V30 28 H 1.991617 -2.532483 -0.121117 0
M  V30 29 H 1.979113 0.089497 -2.390887 0
M  V30 30 H 2.779303 -1.946541 -1.953183 0
M  V30 31 H 4.073872 -0.878043 -2.103241 0
M  V30 32 H 3.671819 0.962720 0.044708 0
M  V30 33 H 3.829962 1.442273 -1.635738 0
M  V30 34 H 1.301685 2.072732 -0.016492 0
M  V30 35 H 1.651704 2.534171 -1.700258 0
M  V30 36 H 3.520259 3.875805 -1.033547 0
M  V30 37 H 2.008003 5.345826 0.613949 0
M  V30 38 H 0.791475 4.117189 0.117044 0
M  V30 39 H 1.609390 5.149258 -1.147706 0
M  V30 40 H 3.280594 4.368078 1.670565 0
M  V30 41 H 2.875507 2.641354 1.662046 0
M  V30 42 H 4.516107 3.235042 1.072993 0
M  V30 43 H 1.091562 -1.464279 2.631069 0
M  V30 44 H -0.732443 -2.009883 4.102947 0
M  V30 45 H -4.734077 -4.007835 2.521934 0
M  V30 46 H -4.109619 -3.060215 6.586835 0
M  V30 END ATOM
M  V30 BEGIN BOND
M  V30 1 1 1 2
M  V30 2 1 2 3
M  V30 3 2 3 4
M  V30 4 1 4 5
M  V30 5 1 5 6
M  V30 6 1 6 7
M  V30 7 2 7 8
M  V30 8 1 7 9
M  V30 9 1 9 10
M  V30 10 1 9 11
M  V30 11 1 11 12
M  V30 12 1 12 13
M  V30 13 1 13 14
M  V30 14 1 13 15
M  V30 15 2 5 16
M  V30 16 1 16 17
M  V30 17 2 17 18
M  V30 18 1 18 19
M  V30 19 2 19 20
M  V30 20 1 20 21
M  V30 21 2 21 22
M  V30 22 1 22 23
M  V30 23 1 18 3
M  V30 24 1 23 19
M  V30 25 1 1 24
M  V30 26 1 1 25
M  V30 27 1 1 26
M  V30 28 1 4 27
M  V30 29 1 6 28
M  V30 30 1 9 29 CFG=3
M  V30 31 1 10 30
M  V30 32 1 10 31
M  V30 33 1 11 32
M  V30 34 1 11 33
M  V30 35 1 12 34
M  V30 36 1 12 35
M  V30 37 1 13 36
M  V30 38 1 14 37
M  V30 39 1 14 38
M  V30 40 1 14 39
M  V30 41 1 15 40
M  V30 42 1 15 41
M  V30 43 1 15 42
M  V30 44 1 16 43
M  V30 45 1 17 44
M  V30 46 1 20 45
M  V30 47 1 22 46
M  V30 END BOND
M  V30 END CTAB
M  END
>  <Dataset>  (641) 
ChEMBL_Kinases

>  <Ligand_Instance>  (641) 
nan

>  <PDB_ID>  (641) 
nan

>  <Standardized_SMILES>  (641) 
COc1cc(NC(=O)[C@H](N)CCC(C)C)ccc1-c1cnco1

>  <Name>  (641) 
nan

>  <Pocket>  (641) 
nan

>  <ATP_Site>  (641) 
nan

>  <Peripheral>  (641) 
nan

>  <Num_H_Atoms_ProtBoundConf>  (641) 
nan

>  <Num_Resolved_Atoms>  (641) 
nan

>  <Num_Not_Resolved_Atoms>  (641) 
nan

$$$$
CHEMBL4074145
     RDKit          3D

  0  0  0  0  0  0  0  0  0  0999 V3000
M  V30 BEGIN CTAB
M  V30 COUNTS 45 49 0 0 0
M  V30 BEGIN ATOM
M  V30 1 C -1.355119 -4.451388 0.943660 0
M  V30 2 C -0.006849 -4.082693 0.977533 0
M  V30 3 C 0.429431 -2.821267 1.386821 0
M  V30 4 C 1.874357 -2.630180 1.353862 0
M  V30 5 N 2.792560 -3.514581 1.820349 0
M  V30 6 N 4.005926 -3.025740 1.631966 0
M  V30 7 C 3.871823 -1.830474 1.046125 0
M  V30 8 C 4.798712 -0.898219 0.630261 0
M  V30 9 C 4.440099 0.292430 0.036917 0
M  V30 10 C 3.111603 0.597680 -0.165062 0
M  V30 11 O 2.486424 1.697283 -0.724976 0
M  V30 12 C 3.210270 2.786706 -1.225669 0
M  V30 13 C 2.707712 3.541009 -2.415470 0
M  V30 14 C 2.569669 4.182481 -1.064210 0
M  V30 15 C 2.161768 -0.342028 0.253541 0
M  V30 16 C 2.539831 -1.533048 0.847901 0
M  V30 17 C -0.519340 -1.913657 1.770059 0
M  V30 18 C -1.839308 -2.285903 1.732910 0
M  V30 19 N -2.857855 -1.374503 2.122579 0
M  V30 20 C -2.681258 -0.014001 2.587548 0
M  V30 21 C -3.525092 0.864810 1.685567 0
M  V30 22 O -4.087964 0.171047 0.624160 0
M  V30 23 C -4.900499 -0.871089 1.020429 0
M  V30 24 C -4.266154 -1.728922 2.095295 0
M  V30 25 N -2.231457 -3.508341 1.334088 0
M  V30 26 H -1.665620 -5.427038 0.625204 0
M  V30 27 H 0.685683 -4.849211 0.661599 0
M  V30 28 H 4.933398 -3.450373 1.875609 0
M  V30 29 H 5.874908 -1.023184 0.734466 0
M  V30 30 H 5.089664 1.076955 -0.318377 0
M  V30 31 H 4.313762 2.745551 -1.160126 0
M  V30 32 H 1.755239 3.240217 -2.892009 0
M  V30 33 H 3.434087 4.013969 -3.105132 0
M  V30 34 H 1.579799 4.166834 -0.552904 0
M  V30 35 H 3.266433 5.006408 -0.779950 0
M  V30 36 H 1.072705 -0.245963 0.162035 0
M  V30 37 H -0.169073 -0.963834 2.077823 0
M  V30 38 H -3.194364 0.035385 3.593466 0
M  V30 39 H -1.643674 0.307187 2.649247 0
M  V30 40 H -4.308121 1.427394 2.214090 0
M  V30 41 H -2.837997 1.615979 1.243364 0
M  V30 42 H -5.060755 -1.526180 0.139046 0
M  V30 43 H -5.919338 -0.532305 1.321477 0
M  V30 44 H -4.761813 -1.489794 3.070991 0
M  V30 45 H -4.345377 -2.808411 1.854042 0
M  V30 END ATOM
M  V30 BEGIN BOND
M  V30 1 2 1 2
M  V30 2 1 2 3
M  V30 3 1 3 4
M  V30 4 2 4 5
M  V30 5 1 5 6
M  V30 6 1 6 7
M  V30 7 2 7 8
M  V30 8 1 8 9
M  V30 9 2 9 10
M  V30 10 1 10 11
M  V30 11 1 11 12
M  V30 12 1 12 13
M  V30 13 1 13 14
M  V30 14 1 10 15
M  V30 15 2 15 16
M  V30 16 2 3 17
M  V30 17 1 17 18
M  V30 18 1 18 19
M  V30 19 1 19 20
M  V30 20 1 20 21
M  V30 21 1 21 22
M  V30 22 1 22 23
M  V30 23 1 23 24
M  V30 24 2 18 25
M  V30 25 1 25 1
M  V30 26 1 16 4
M  V30 27 1 24 19
M  V30 28 1 16 7
M  V30 29 1 14 12
M  V30 30 1 1 26
M  V30 31 1 2 27
M  V30 32 1 6 28
M  V30 33 1 8 29
M  V30 34 1 9 30
M  V30 35 1 12 31
M  V30 36 1 13 32
M  V30 37 1 13 33
M  V30 38 1 14 34
M  V30 39 1 14 35
M  V30 40 1 15 36
M  V30 41 1 17 37
M  V30 42 1 20 38
M  V30 43 1 20 39
M  V30 44 1 21 40
M  V30 45 1 21 41
M  V30 46 1 23 42
M  V30 47 1 23 43
M  V30 48 1 24 44
M  V30 49 1 24 45
M  V30 END BOND
M  V30 END CTAB
M  END
>  <Dataset>  (642) 
ChEMBL_Kinases

>  <Ligand_Instance>  (642) 
nan

>  <PDB_ID>  (642) 
nan

>  <Standardized_SMILES>  (642) 
c1cc(-c2n[nH]c3ccc(OC4CC4)cc23)cc(N2CCOCC2)n1

>  <Name>  (642) 
nan

>  <Pocket>  (642) 
nan

>  <ATP_Site>  (642) 
nan

>  <Peripheral>  (642) 
nan

>  <Num_H_Atoms_ProtBoundConf>  (642) 
nan

>  <Num_Resolved_Atoms>  (642) 
nan

>  <Num_Not_Resolved_Atoms>  (642) 
nan

$$$$
CHEMBL4074131
     RDKit          3D

  0  0  0  0  0  0  0  0  0  0999 V3000
M  V30 BEGIN CTAB
M  V30 COUNTS 43 46 0 0 0
M  V30 BEGIN ATOM
M  V30 1 C -1.200338 -3.871947 3.136200 0
M  V30 2 C -1.421093 -3.206157 1.970219 0
M  V30 3 C -0.447706 -2.860822 1.061841 0
M  V30 4 C 0.860351 -3.238139 1.392459 0
M  V30 5 O 2.016190 -3.017595 0.663149 0
M  V30 6 C 2.047681 -2.361949 -0.557795 0
M  V30 7 C 1.899183 -3.204075 -1.649188 0
M  V30 8 C 1.924185 -2.594617 -2.893502 0
M  V30 9 C 2.084504 -1.240013 -3.072769 0
M  V30 10 C 2.231222 -0.405891 -1.995683 0
M  V30 11 N 2.414626 0.998714 -2.041484 0
M  V30 12 C 2.555296 1.995673 -1.015100 0
M  V30 13 C 1.347420 2.176451 -0.173575 0
M  V30 14 N 0.839846 1.689084 0.971651 0
M  V30 15 C -0.342336 2.225526 1.284000 0
M  V30 16 C -1.092196 1.843876 2.498699 0
M  V30 17 C -2.447343 1.590682 2.258320 0
M  V30 18 C -3.146093 1.233107 3.414735 0
M  V30 19 N -2.596358 1.136107 4.637619 0
M  V30 20 C -1.264710 1.396041 4.810573 0
M  V30 21 C -0.485247 1.757513 3.732218 0
M  V30 22 N -0.595663 3.095241 0.287754 0
M  V30 23 N 0.405744 3.065591 -0.575105 0
M  V30 24 C 2.209854 -0.988948 -0.747224 0
M  V30 25 C 1.082565 -3.911628 2.572239 0
M  V30 26 C 0.097630 -4.250408 3.471783 0
M  V30 27 H -2.030035 -4.095450 3.779818 0
M  V30 28 H -2.417853 -2.881251 1.649757 0
M  V30 29 H -0.531885 -2.338399 0.122231 0
M  V30 30 H 1.771212 -4.266591 -1.565744 0
M  V30 31 H 1.817518 -3.151879 -3.813839 0
M  V30 32 H 2.101698 -0.779427 -4.058554 0
M  V30 33 H 2.448259 1.338459 -3.048868 0
M  V30 34 H 3.380900 1.633418 -0.344741 0
M  V30 35 H 2.850286 2.948552 -1.459066 0
M  V30 36 H -2.888683 1.665994 1.286828 0
M  V30 37 H -4.216817 1.026986 3.257712 0
M  V30 38 H -0.792793 1.326697 5.785141 0
M  V30 39 H 0.552047 1.980335 3.752221 0
M  V30 40 H 0.369617 3.688397 -1.420116 0
M  V30 41 H 2.313477 -0.515162 0.217265 0
M  V30 42 H 2.071400 -4.245478 2.911373 0
M  V30 43 H 0.199403 -4.766002 4.395338 0
M  V30 END ATOM
M  V30 BEGIN BOND
M  V30 1 2 1 2
M  V30 2 1 2 3
M  V30 3 2 3 4
M  V30 4 1 4 5
M  V30 5 1 5 6
M  V30 6 2 6 7
M  V30 7 1 7 8
M  V30 8 2 8 9
M  V30 9 1 9 10
M  V30 10 1 10 11
M  V30 11 1 11 12
M  V30 12 1 12 13
M  V30 13 2 13 14
M  V30 14 1 14 15
M  V30 15 1 15 16
M  V30 16 2 16 17
M  V30 17 1 17 18
M  V30 18 2 18 19
M  V30 19 1 19 20
M  V30 20 2 20 21
M  V30 21 2 15 22
M  V30 22 1 22 23
M  V30 23 2 10 24
M  V30 24 1 4 25
M  V30 25 2 25 26
M  V30 26 1 26 1
M  V30 27 1 24 6
M  V30 28 1 23 13
M  V30 29 1 21 16
M  V30 30 1 1 27
M  V30 31 1 2 28
M  V30 32 1 3 29
M  V30 33 1 7 30
M  V30 34 1 8 31
M  V30 35 1 9 32
M  V30 36 1 11 33
M  V30 37 1 12 34
M  V30 38 1 12 35
M  V30 39 1 17 36
M  V30 40 1 18 37
M  V30 41 1 20 38
M  V30 42 1 21 39
M  V30 43 1 23 40
M  V30 44 1 24 41
M  V30 45 1 25 42
M  V30 46 1 26 43
M  V30 END BOND
M  V30 END CTAB
M  END
>  <Dataset>  (643) 
ChEMBL_Kinases

>  <Ligand_Instance>  (643) 
nan

>  <PDB_ID>  (643) 
nan

>  <Standardized_SMILES>  (643) 
c1ccc(Oc2cccc(NCc3nc(-c4ccncc4)n[nH]3)c2)cc1

>  <Name>  (643) 
nan

>  <Pocket>  (643) 
nan

>  <ATP_Site>  (643) 
nan

>  <Peripheral>  (643) 
nan

>  <Num_H_Atoms_ProtBoundConf>  (643) 
nan

>  <Num_Resolved_Atoms>  (643) 
nan

>  <Num_Not_Resolved_Atoms>  (643) 
nan

$$$$
CHEMBL4074112
     RDKit          3D

  0  0  0  0  0  0  0  0  0  0999 V3000
M  V30 BEGIN CTAB
M  V30 COUNTS 86 91 0 0 0
M  V30 BEGIN ATOM
M  V30 1 C 8.491302 0.851906 4.993449 0
M  V30 2 C 7.275493 1.537329 4.340948 0
M  V30 3 O 6.251904 0.597842 4.378433 0
M  V30 4 C 4.975809 0.743251 3.910974 0
M  V30 5 O 5.333113 1.893539 3.585144 0
M  V30 6 C 3.870533 -0.171753 3.905026 0
M  V30 7 N 4.100753 -1.393433 4.447629 0
M  V30 8 C 2.973270 -2.115286 4.353447 0
M  V30 9 N 2.070083 -1.321564 3.754094 0
M  V30 10 C 2.582240 -0.100905 3.454551 0
M  V30 11 C 1.900460 1.006803 2.774194 0 CFG=1
M  V30 12 C 2.500718 1.336606 1.429820 0
M  V30 13 C 2.449845 0.187395 0.467021 0
M  V30 14 N 0.483853 0.732676 2.535602 0
M  V30 15 C -0.309940 1.765886 1.986626 0
M  V30 16 C -1.803776 1.518199 1.979147 0
M  V30 17 C -2.414273 2.899672 1.746138 0
M  V30 18 C -1.362422 3.913853 2.040670 0
M  V30 19 C -0.259887 3.091811 2.713740 0
M  V30 20 C -0.067535 -0.571931 2.839946 0
M  V30 21 N -1.331063 -0.900074 2.555897 0
M  V30 22 C -1.887245 -2.092014 2.798887 0
M  V30 23 N -3.255297 -2.048058 2.346767 0
M  V30 24 C -3.436441 -2.099513 0.914103 0
M  V30 25 C -2.332171 -2.186632 0.059725 0
M  V30 26 C -2.384909 -2.216827 -1.315066 0
M  V30 27 C -3.627081 -2.155598 -1.867515 0
M  V30 28 C -3.847787 -2.174827 -3.298628 0
M  V30 29 O -4.957623 -2.137821 -3.884104 0
M  V30 30 N -2.749704 -2.240979 -4.197078 0
M  V30 31 C -2.724218 -2.270644 -5.627987 0
M  V30 32 C -1.926515 -3.399023 -6.218254 0
M  V30 33 C -0.630073 -2.890060 -6.794750 0
M  V30 34 N 0.038603 -1.947905 -5.934987 0
M  V30 35 C 1.288989 -1.570629 -6.615049 0
M  V30 36 C -0.743398 -0.752734 -5.662636 0
M  V30 37 C -2.148270 -0.961481 -6.166338 0
M  V30 38 C -4.764565 -2.068399 -1.073636 0
M  V30 39 C -4.691628 -2.040241 0.295396 0
M  V30 40 O -5.718509 -1.959133 1.197276 0
M  V30 41 C -7.048388 -1.878554 0.766896 0
M  V30 42 N -1.128489 -3.072011 3.383465 0
M  V30 43 C 0.167663 -2.795693 3.696601 0
M  V30 44 C 0.709372 -1.569746 3.436310 0
M  V30 45 H 9.322794 1.543892 5.095579 0
M  V30 46 H 8.812721 -0.012857 4.362464 0
M  V30 47 H 8.153200 0.426219 5.957242 0
M  V30 48 H 7.607248 1.713791 3.273478 0
M  V30 49 H 7.082157 2.495013 4.827334 0
M  V30 50 H 2.847133 -3.128312 4.698804 0
M  V30 51 H 1.963792 1.908736 3.410035 0
M  V30 52 H 3.549960 1.733101 1.516509 0
M  V30 53 H 1.934515 2.180385 0.996850 0
M  V30 54 H 3.278927 0.219142 -0.282724 0
M  V30 55 H 1.527589 0.234342 -0.186226 0
M  V30 56 H 2.505025 -0.732315 1.058690 0
M  V30 57 H -0.056366 2.017236 0.926379 0
M  V30 58 H -2.199609 1.213662 2.975338 0
M  V30 59 H -2.105034 0.842645 1.161288 0
M  V30 60 H -2.738352 3.009858 0.679282 0
M  V30 61 H -3.285628 3.096776 2.404079 0
M  V30 62 H -1.694133 4.688749 2.766965 0
M  V30 63 H -0.928370 4.342752 1.103626 0
M  V30 64 H -0.401450 3.005465 3.803117 0
M  V30 65 H 0.694692 3.646560 2.475643 0
M  V30 66 H -4.098205 -1.985840 2.928038 0
M  V30 67 H -1.333386 -2.235779 0.496133 0
M  V30 68 H -1.488606 -2.285274 -1.902184 0
M  V30 69 H -1.751223 -2.281454 -3.908239 0
M  V30 70 H -3.763003 -2.305231 -6.033447 0
M  V30 71 H -2.491545 -3.882231 -7.063154 0
M  V30 72 H -1.732081 -4.190899 -5.478500 0
M  V30 73 H 0.073092 -3.764924 -6.878979 0
M  V30 74 H -0.765878 -2.513801 -7.834116 0
M  V30 75 H 2.075478 -2.281952 -6.322926 0
M  V30 76 H 1.158791 -1.628841 -7.732710 0
M  V30 77 H 1.556587 -0.523544 -6.375534 0
M  V30 78 H -0.305329 0.084413 -6.209319 0
M  V30 79 H -0.754729 -0.635053 -4.553732 0
M  V30 80 H -2.819147 -0.145229 -5.902866 0
M  V30 81 H -2.094217 -1.077299 -7.266022 0
M  V30 82 H -5.749717 -2.018933 -1.500312 0
M  V30 83 H -7.744960 -2.310520 1.530147 0
M  V30 84 H -7.162675 -2.519087 -0.134643 0
M  V30 85 H -7.379459 -0.823270 0.589127 0
M  V30 86 H 0.674087 -3.621387 4.144963 0
M  V30 END ATOM
M  V30 BEGIN BOND
M  V30 1 1 1 2
M  V30 2 1 2 3
M  V30 3 1 3 4
M  V30 4 2 4 5
M  V30 5 1 4 6
M  V30 6 1 6 7
M  V30 7 2 7 8
M  V30 8 1 8 9
M  V30 9 1 9 10
M  V30 10 1 10 11
M  V30 11 1 11 12
M  V30 12 1 12 13
M  V30 13 1 11 14
M  V30 14 1 14 15
M  V30 15 1 15 16
M  V30 16 1 16 17
M  V30 17 1 17 18
M  V30 18 1 18 19
M  V30 19 1 14 20
M  V30 20 2 20 21
M  V30 21 1 21 22
M  V30 22 1 22 23
M  V30 23 1 23 24
M  V30 24 2 24 25
M  V30 25 1 25 26
M  V30 26 2 26 27
M  V30 27 1 27 28
M  V30 28 2 28 29
M  V30 29 1 28 30
M  V30 30 1 30 31
M  V30 31 1 31 32
M  V30 32 1 32 33
M  V30 33 1 33 34
M  V30 34 1 34 35
M  V30 35 1 34 36
M  V30 36 1 36 37
M  V30 37 1 27 38
M  V30 38 2 38 39
M  V30 39 1 39 40
M  V30 40 1 40 41
M  V30 41 2 22 42
M  V30 42 1 42 43
M  V30 43 2 43 44
M  V30 44 2 10 6
M  V30 45 1 19 15
M  V30 46 1 44 20
M  V30 47 1 44 9
M  V30 48 1 39 24
M  V30 49 1 37 31
M  V30 50 1 1 45
M  V30 51 1 1 46
M  V30 52 1 1 47
M  V30 53 1 2 48
M  V30 54 1 2 49
M  V30 55 1 8 50
M  V30 56 1 11 51 CFG=1
M  V30 57 1 12 52
M  V30 58 1 12 53
M  V30 59 1 13 54
M  V30 60 1 13 55
M  V30 61 1 13 56
M  V30 62 1 15 57
M  V30 63 1 16 58
M  V30 64 1 16 59
M  V30 65 1 17 60
M  V30 66 1 17 61
M  V30 67 1 18 62
M  V30 68 1 18 63
M  V30 69 1 19 64
M  V30 70 1 19 65
M  V30 71 1 23 66
M  V30 72 1 25 67
M  V30 73 1 26 68
M  V30 74 1 30 69
M  V30 75 1 31 70
M  V30 76 1 32 71
M  V30 77 1 32 72
M  V30 78 1 33 73
M  V30 79 1 33 74
M  V30 80 1 35 75
M  V30 81 1 35 76
M  V30 82 1 35 77
M  V30 83 1 36 78
M  V30 84 1 36 79
M  V30 85 1 37 80
M  V30 86 1 37 81
M  V30 87 1 38 82
M  V30 88 1 41 83
M  V30 89 1 41 84
M  V30 90 1 41 85
M  V30 91 1 43 86
M  V30 END BOND
M  V30 END CTAB
M  END
>  <Dataset>  (644) 
ChEMBL_Kinases

>  <Ligand_Instance>  (644) 
nan

>  <PDB_ID>  (644) 
nan

>  <Standardized_SMILES>  (644) 
CCOC(=O)c1ncn2c1[C@@H](CC)N(C1CCCC1)c1nc(Nc3ccc(C(=O)NC4CCN(C)CC4)cc3OC)ncc1-2

>  <Name>  (644) 
nan

>  <Pocket>  (644) 
nan

>  <ATP_Site>  (644) 
nan

>  <Peripheral>  (644) 
nan

>  <Num_H_Atoms_ProtBoundConf>  (644) 
nan

>  <Num_Resolved_Atoms>  (644) 
nan

>  <Num_Not_Resolved_Atoms>  (644) 
nan

$$$$
CHEMBL4074078
     RDKit          3D

  0  0  0  0  0  0  0  0  0  0999 V3000
M  V30 BEGIN CTAB
M  V30 COUNTS 45 48 0 0 0
M  V30 BEGIN ATOM
M  V30 1 O 2.420081 -7.139588 -2.719412 0
M  V30 2 C 2.623658 -6.233158 -1.845552 0
M  V30 3 N 3.136067 -6.475257 -0.562249 0
M  V30 4 C 3.288068 -5.310464 0.266157 0
M  V30 5 S 4.195644 -5.156978 1.615264 0
M  V30 6 S 2.244118 -4.064319 -0.537040 0
M  V30 7 C 2.316214 -4.854260 -2.168176 0
M  V30 8 C 2.109631 -4.154145 -3.238218 0
M  V30 9 C 1.805392 -2.701982 -3.222109 0
M  V30 10 C 2.282233 -1.803891 -4.176449 0
M  V30 11 S 1.482752 -0.217936 -3.485083 0
M  V30 12 C 0.738704 -1.039868 -2.165846 0
M  V30 13 C -0.114107 -0.370782 -1.123099 0
M  V30 14 C -0.323901 0.988250 -1.215801 0
M  V30 15 C -1.127928 1.522944 -0.196486 0
M  V30 16 C -1.697301 0.811808 0.846030 0
M  V30 17 C -2.522018 1.537664 1.846560 0
M  V30 18 N -1.679296 1.979223 2.923106 0
M  V30 19 C -1.037639 0.934052 3.643866 0
M  V30 20 C -0.653470 1.421747 5.017929 0
M  V30 21 C -0.471456 2.905057 5.078877 0
M  V30 22 C -0.034611 3.503762 3.775964 0
M  V30 23 C -0.837979 3.087822 2.588924 0
M  V30 24 C -1.442927 -0.547783 0.873175 0
M  V30 25 C -0.655638 -1.114721 -0.112314 0
M  V30 26 N 1.027622 -2.262621 -2.224815 0
M  V30 27 H 3.399266 -7.419172 -0.200524 0
M  V30 28 H 2.181673 -4.738895 -4.167726 0
M  V30 29 H 2.915606 -2.119436 -5.000224 0
M  V30 30 H 0.084197 1.606491 -1.994624 0
M  V30 31 H -1.279212 2.609903 -0.299843 0
M  V30 32 H -3.165644 2.308092 1.429433 0
M  V30 33 H -3.223600 0.770306 2.285220 0
M  V30 34 H -0.165112 0.530709 3.094251 0
M  V30 35 H -1.777846 0.093214 3.710983 0
M  V30 36 H 0.225006 0.855778 5.378093 0
M  V30 37 H -1.480246 1.153227 5.736914 0
M  V30 38 H -1.369248 3.422740 5.452665 0
M  V30 39 H 0.353787 3.095536 5.813531 0
M  V30 40 H -0.098304 4.616265 3.873965 0
M  V30 41 H 1.063278 3.291165 3.628316 0
M  V30 42 H -0.124731 2.743796 1.784757 0
M  V30 43 H -1.461887 3.876462 2.143416 0
M  V30 44 H -1.870323 -1.135375 1.668481 0
M  V30 45 H -0.449740 -2.178389 -0.100141 0
M  V30 END ATOM
M  V30 BEGIN BOND
M  V30 1 2 1 2
M  V30 2 1 2 3
M  V30 3 1 3 4
M  V30 4 2 4 5
M  V30 5 1 4 6
M  V30 6 1 6 7
M  V30 7 2 7 8
M  V30 8 1 8 9
M  V30 9 2 9 10
M  V30 10 1 10 11
M  V30 11 1 11 12
M  V30 12 1 12 13
M  V30 13 2 13 14
M  V30 14 1 14 15
M  V30 15 2 15 16
M  V30 16 1 16 17
M  V30 17 1 17 18
M  V30 18 1 18 19
M  V30 19 1 19 20
M  V30 20 1 20 21
M  V30 21 1 21 22
M  V30 22 1 22 23
M  V30 23 1 16 24
M  V30 24 2 24 25
M  V30 25 2 12 26
M  V30 26 1 7 2
M  V30 27 1 26 9
M  V30 28 1 25 13
M  V30 29 1 23 18
M  V30 30 1 3 27
M  V30 31 1 8 28
M  V30 32 1 10 29
M  V30 33 1 14 30
M  V30 34 1 15 31
M  V30 35 1 17 32
M  V30 36 1 17 33
M  V30 37 1 19 34
M  V30 38 1 19 35
M  V30 39 1 20 36
M  V30 40 1 20 37
M  V30 41 1 21 38
M  V30 42 1 21 39
M  V30 43 1 22 40
M  V30 44 1 22 41
M  V30 45 1 23 42
M  V30 46 1 23 43
M  V30 47 1 24 44
M  V30 48 1 25 45
M  V30 END BOND
M  V30 END CTAB
M  END
>  <Dataset>  (645) 
ChEMBL_Kinases

>  <Ligand_Instance>  (645) 
nan

>  <PDB_ID>  (645) 
nan

>  <Standardized_SMILES>  (645) 
O=C1NC(=S)S/C1=C\c1csc(-c2ccc(CN3CCCCC3)cc2)n1

>  <Name>  (645) 
nan

>  <Pocket>  (645) 
nan

>  <ATP_Site>  (645) 
nan

>  <Peripheral>  (645) 
nan

>  <Num_H_Atoms_ProtBoundConf>  (645) 
nan

>  <Num_Resolved_Atoms>  (645) 
nan

>  <Num_Not_Resolved_Atoms>  (645) 
nan

$$$$
CHEMBL4074026
     RDKit          3D

  0  0  0  0  0  0  0  0  0  0999 V3000
M  V30 BEGIN CTAB
M  V30 COUNTS 48 51 0 0 0
M  V30 BEGIN ATOM
M  V30 1 C -0.888200 -6.622652 0.415866 0
M  V30 2 C -0.244879 -5.310532 0.685645 0
M  V30 3 C 0.725524 -5.255445 1.662536 0
M  V30 4 C 1.315004 -4.032746 1.903286 0
M  V30 5 C 0.915750 -2.938168 1.170021 0
M  V30 6 F 1.532736 -1.786592 1.459907 0
M  V30 7 C -0.045343 -2.954963 0.191293 0
M  V30 8 C -0.507423 -1.841300 -0.611891 0
M  V30 9 C -0.098716 -0.533980 -0.581207 0
M  V30 10 C -0.604491 0.453595 -1.391616 0
M  V30 11 N -0.127919 1.774923 -1.293345 0
M  V30 12 C 0.858397 2.313976 -0.434805 0
M  V30 13 C 1.983162 2.896490 -1.007400 0
M  V30 14 C 3.010701 3.457547 -0.246035 0
M  V30 15 N 2.885794 3.422039 1.112538 0
M  V30 16 C 1.814513 2.868084 1.693976 0
M  V30 17 C 1.473224 2.718219 3.018728 0
M  V30 18 N 0.279103 2.086815 3.022321 0
M  V30 19 C -0.530888 1.684565 4.155880 0
M  V30 20 C -0.110774 0.284034 4.540070 0
M  V30 21 O -0.840308 -0.196147 5.632344 0
M  V30 22 N -0.106634 1.853914 1.771216 0
M  V30 23 C 0.820557 2.324660 0.927059 0
M  V30 24 C -1.582375 0.159666 -2.305351 0
M  V30 25 C -2.143233 1.209975 -3.190784 0
M  V30 26 C -1.991081 -1.151373 -2.334980 0
M  V30 27 N -1.465961 -2.078050 -1.522763 0
M  V30 28 C -0.617107 -4.190342 -0.027544 0
M  V30 29 H -0.732912 -7.344358 1.216180 0
M  V30 30 H -0.599521 -6.965850 -0.601567 0
M  V30 31 H -1.990003 -6.388574 0.347694 0
M  V30 32 H 0.985787 -6.158455 2.196709 0
M  V30 33 H 2.079761 -3.958970 2.663995 0
M  V30 34 H 0.668550 -0.262612 0.121962 0
M  V30 35 H -0.500584 2.531738 -1.904338 0
M  V30 36 H 2.157378 2.964443 -2.084402 0
M  V30 37 H 3.881814 3.908329 -0.704504 0
M  V30 38 H 1.992120 3.013436 3.921355 0
M  V30 39 H -0.376392 2.415537 4.975769 0
M  V30 40 H -1.613537 1.695804 3.905881 0
M  V30 41 H 0.982539 0.293529 4.745242 0
M  V30 42 H -0.346447 -0.379102 3.695074 0
M  V30 43 H -0.484598 0.133875 6.490934 0
M  V30 44 H -2.739795 1.907539 -2.541974 0
M  V30 45 H -1.332007 1.817082 -3.642617 0
M  V30 46 H -2.844836 0.801173 -3.916715 0
M  V30 47 H -2.759048 -1.461726 -3.029040 0
M  V30 48 H -1.393377 -4.346266 -0.775879 0
M  V30 END ATOM
M  V30 BEGIN BOND
M  V30 1 1 1 2
M  V30 2 2 2 3
M  V30 3 1 3 4
M  V30 4 2 4 5
M  V30 5 1 5 6
M  V30 6 1 5 7
M  V30 7 1 7 8
M  V30 8 2 8 9
M  V30 9 1 9 10
M  V30 10 1 10 11
M  V30 11 1 11 12
M  V30 12 2 12 13
M  V30 13 1 13 14
M  V30 14 2 14 15
M  V30 15 1 15 16
M  V30 16 2 16 17
M  V30 17 1 17 18
M  V30 18 1 18 19
M  V30 19 1 19 20
M  V30 20 1 20 21
M  V30 21 1 18 22
M  V30 22 2 22 23
M  V30 23 2 10 24
M  V30 24 1 24 25
M  V30 25 1 24 26
M  V30 26 2 26 27
M  V30 27 2 7 28
M  V30 28 1 28 2
M  V30 29 1 27 8
M  V30 30 1 23 12
M  V30 31 1 23 16
M  V30 32 1 1 29
M  V30 33 1 1 30
M  V30 34 1 1 31
M  V30 35 1 3 32
M  V30 36 1 4 33
M  V30 37 1 9 34
M  V30 38 1 11 35
M  V30 39 1 13 36
M  V30 40 1 14 37
M  V30 41 1 17 38
M  V30 42 1 19 39
M  V30 43 1 19 40
M  V30 44 1 20 41
M  V30 45 1 20 42
M  V30 46 1 21 43
M  V30 47 1 25 44
M  V30 48 1 25 45
M  V30 49 1 25 46
M  V30 50 1 26 47
M  V30 51 1 28 48
M  V30 END BOND
M  V30 END CTAB
M  END
>  <Dataset>  (646) 
ChEMBL_Kinases

>  <Ligand_Instance>  (646) 
nan

>  <PDB_ID>  (646) 
nan

>  <Standardized_SMILES>  (646) 
Cc1ccc(F)c(-c2cc(Nc3ccnc4cn(CCO)nc34)c(C)cn2)c1

>  <Name>  (646) 
nan

>  <Pocket>  (646) 
nan

>  <ATP_Site>  (646) 
nan

>  <Peripheral>  (646) 
nan

>  <Num_H_Atoms_ProtBoundConf>  (646) 
nan

>  <Num_Resolved_Atoms>  (646) 
nan

>  <Num_Not_Resolved_Atoms>  (646) 
nan

$$$$
CHEMBL4073997
     RDKit          3D

  0  0  0  0  0  0  0  0  0  0999 V3000
M  V30 BEGIN CTAB
M  V30 COUNTS 26 28 0 0 0
M  V30 BEGIN ATOM
M  V30 1 N -1.699525 -3.662079 2.430862 0
M  V30 2 C -0.453270 -2.988712 2.420329 0
M  V30 3 N 0.586563 -3.407316 3.166233 0
M  V30 4 C 1.781990 -2.784581 3.173971 0
M  V30 5 C 1.908469 -1.659073 2.359154 0
M  V30 6 C 0.854143 -1.214331 1.587227 0
M  V30 7 C 1.006186 -0.033120 0.739976 0
M  V30 8 C 2.151336 0.729177 0.619816 0
M  V30 9 N 1.885494 1.735198 -0.262854 0
M  V30 10 C 0.609853 1.576342 -0.660343 0
M  V30 11 C -0.150800 2.338232 -1.556716 0
M  V30 12 Cl 0.529490 3.740455 -2.358838 0
M  V30 13 C -1.455307 1.947820 -1.787733 0
M  V30 14 C -2.069457 0.861079 -1.201483 0
M  V30 15 C -1.287610 0.119058 -0.311770 0
M  V30 16 C 0.016511 0.491069 -0.066746 0
M  V30 17 N -0.304140 -1.899232 1.642473 0
M  V30 18 H -1.933721 -4.326758 3.192808 0
M  V30 19 H -2.393740 -3.495265 1.671429 0
M  V30 20 H 2.625272 -3.109819 3.767924 0
M  V30 21 H 2.825486 -1.085264 2.291107 0
M  V30 22 H 3.091529 0.568581 1.126504 0
M  V30 23 H 2.585603 2.460352 -0.535763 0
M  V30 24 H -2.090326 2.510936 -2.479912 0
M  V30 25 H -3.093114 0.583365 -1.404823 0
M  V30 26 H -1.750957 -0.733043 0.155312 0
M  V30 END ATOM
M  V30 BEGIN BOND
M  V30 1 1 1 2
M  V30 2 2 2 3
M  V30 3 1 3 4
M  V30 4 2 4 5
M  V30 5 1 5 6
M  V30 6 1 6 7
M  V30 7 2 7 8
M  V30 8 1 8 9
M  V30 9 1 9 10
M  V30 10 2 10 11
M  V30 11 1 11 12
M  V30 12 1 11 13
M  V30 13 2 13 14
M  V30 14 1 14 15
M  V30 15 2 15 16
M  V30 16 2 6 17
M  V30 17 1 17 2
M  V30 18 1 16 7
M  V30 19 1 16 10
M  V30 20 1 1 18
M  V30 21 1 1 19
M  V30 22 1 4 20
M  V30 23 1 5 21
M  V30 24 1 8 22
M  V30 25 1 9 23
M  V30 26 1 13 24
M  V30 27 1 14 25
M  V30 28 1 15 26
M  V30 END BOND
M  V30 END CTAB
M  END
>  <Dataset>  (647) 
ChEMBL_Kinases

>  <Ligand_Instance>  (647) 
nan

>  <PDB_ID>  (647) 
nan

>  <Standardized_SMILES>  (647) 
Nc1nccc(-c2c[nH]c3c(Cl)cccc23)n1

>  <Name>  (647) 
nan

>  <Pocket>  (647) 
nan

>  <ATP_Site>  (647) 
nan

>  <Peripheral>  (647) 
nan

>  <Num_H_Atoms_ProtBoundConf>  (647) 
nan

>  <Num_Resolved_Atoms>  (647) 
nan

>  <Num_Not_Resolved_Atoms>  (647) 
nan

$$$$
CHEMBL4857184
     RDKit          3D

  0  0  0  0  0  0  0  0  0  0999 V3000
M  V30 BEGIN CTAB
M  V30 COUNTS 63 67 0 0 0
M  V30 BEGIN ATOM
M  V30 1 C 5.231408 -0.770929 2.642490 0
M  V30 2 O 4.014490 -0.385015 2.030700 0
M  V30 3 C 2.855803 -0.445147 2.774902 0
M  V30 4 C 2.586504 -0.820814 4.065560 0
M  V30 5 C 1.334103 -0.791914 4.581108 0
M  V30 6 C 0.271973 -0.374700 3.805266 0
M  V30 7 C 0.479255 0.013614 2.506785 0
M  V30 8 C 1.772526 -0.021353 1.988979 0
M  V30 9 N 1.824493 0.396086 0.610721 0
M  V30 10 C 0.723850 0.877808 -0.144852 0
M  V30 11 N 0.727065 2.221438 -0.136463 0
M  V30 12 C -0.170446 2.998791 -0.745291 0
M  V30 13 C -1.178248 2.329707 -1.436779 0
M  V30 14 C -2.166798 3.185958 -2.074727 0
M  V30 15 N -2.085853 4.599708 -2.050588 0
M  V30 16 O -3.187851 2.837198 -2.707891 0
M  V30 17 C -1.223370 0.959966 -1.474405 0
M  V30 18 N -2.211987 0.245442 -2.173463 0
M  V30 19 C -2.543244 -0.539954 -3.277738 0
M  V30 20 C -3.506449 -0.173477 -4.166732 0
M  V30 21 C -3.809408 -0.959586 -5.246903 0
M  V30 22 C -3.131762 -2.141389 -5.441612 0
M  V30 23 C -2.150786 -2.506236 -4.527310 0
M  V30 24 C -1.842196 -1.701788 -3.424074 0
M  V30 25 N -0.820463 -2.329373 -2.677786 0
M  V30 26 C 0.620688 -2.493024 -2.582346 0
M  V30 27 C 0.811888 -3.816653 -1.866701 0
M  V30 28 O -0.314272 -3.867297 -1.002798 0
M  V30 29 C -1.345032 -3.150599 -1.607199 0
M  V30 30 O -2.489302 -3.367425 -1.100714 0
M  V30 31 N -0.262165 0.294259 -0.820858 0
M  V30 32 C -1.046241 -0.416465 4.525119 0
M  V30 33 N -1.188069 -1.761007 5.057836 0
M  V30 34 C -1.126218 -2.739493 3.990970 0
M  V30 35 C -0.211212 -2.032964 6.092108 0
M  V30 36 C 1.033537 -1.188261 5.959863 0
M  V30 37 H 5.853177 -1.184508 1.800131 0
M  V30 38 H 5.026779 -1.582032 3.342480 0
M  V30 39 H 5.765196 0.099772 3.082277 0
M  V30 40 H 3.473025 -1.130898 4.595578 0
M  V30 41 H -0.390651 0.329632 1.951121 0
M  V30 42 H 2.673881 0.386317 0.030649 0
M  V30 43 H -0.140220 4.100465 -0.718361 0
M  V30 44 H -2.155187 5.125975 -1.145387 0
M  V30 45 H -1.955890 5.044431 -2.999140 0
M  V30 46 H -3.041532 0.398417 -1.557868 0
M  V30 47 H -4.080675 0.728906 -4.079272 0
M  V30 48 H -4.593716 -0.649129 -5.958329 0
M  V30 49 H -3.408039 -2.718243 -6.305204 0
M  V30 50 H -1.699461 -3.469225 -4.814379 0
M  V30 51 H 1.092750 -2.647885 -3.594970 0
M  V30 52 H 1.142650 -1.723625 -2.018271 0
M  V30 53 H 1.709731 -3.880095 -1.255926 0
M  V30 54 H 0.798835 -4.668432 -2.555925 0
M  V30 55 H -1.818174 -0.267168 3.767889 0
M  V30 56 H -1.138872 0.322738 5.316164 0
M  V30 57 H -0.698546 -2.213388 3.094861 0
M  V30 58 H -0.396865 -3.511951 4.306711 0
M  V30 59 H -2.117265 -3.129103 3.702692 0
M  V30 60 H -0.681836 -1.841859 7.076024 0
M  V30 61 H 0.058433 -3.095198 6.023341 0
M  V30 62 H 0.863130 -0.259370 6.583676 0
M  V30 63 H 1.927665 -1.662220 6.404554 0
M  V30 END ATOM
M  V30 BEGIN BOND
M  V30 1 1 1 2
M  V30 2 1 2 3
M  V30 3 2 3 4
M  V30 4 1 4 5
M  V30 5 2 5 6
M  V30 6 1 6 7
M  V30 7 2 7 8
M  V30 8 1 8 9
M  V30 9 1 9 10
M  V30 10 2 10 11
M  V30 11 1 11 12
M  V30 12 2 12 13
M  V30 13 1 13 14
M  V30 14 1 14 15
M  V30 15 2 14 16
M  V30 16 1 13 17
M  V30 17 1 17 18
M  V30 18 1 18 19
M  V30 19 2 19 20
M  V30 20 1 20 21
M  V30 21 2 21 22
M  V30 22 1 22 23
M  V30 23 2 23 24
M  V30 24 1 24 25
M  V30 25 1 25 26
M  V30 26 1 26 27
M  V30 27 1 27 28
M  V30 28 1 28 29
M  V30 29 2 29 30
M  V30 30 2 17 31
M  V30 31 1 6 32
M  V30 32 1 32 33
M  V30 33 1 33 34
M  V30 34 1 33 35
M  V30 35 1 35 36
M  V30 36 1 8 3
M  V30 37 1 31 10
M  V30 38 1 36 5
M  V30 39 1 24 19
M  V30 40 1 29 25
M  V30 41 1 1 37
M  V30 42 1 1 38
M  V30 43 1 1 39
M  V30 44 1 4 40
M  V30 45 1 7 41
M  V30 46 1 9 42
M  V30 47 1 12 43
M  V30 48 1 15 44
M  V30 49 1 15 45
M  V30 50 1 18 46
M  V30 51 1 20 47
M  V30 52 1 21 48
M  V30 53 1 22 49
M  V30 54 1 23 50
M  V30 55 1 26 51
M  V30 56 1 26 52
M  V30 57 1 27 53
M  V30 58 1 27 54
M  V30 59 1 32 55
M  V30 60 1 32 56
M  V30 61 1 34 57
M  V30 62 1 34 58
M  V30 63 1 34 59
M  V30 64 1 35 60
M  V30 65 1 35 61
M  V30 66 1 36 62
M  V30 67 1 36 63
M  V30 END BOND
M  V30 END CTAB
M  END
>  <Dataset>  (648) 
ChEMBL_Kinases

>  <Ligand_Instance>  (648) 
nan

>  <PDB_ID>  (648) 
nan

>  <Standardized_SMILES>  (648) 
COc1cc2c(cc1Nc1ncc(C(N)=O)c(Nc3ccccc3N3CCOC3=O)n1)CN(C)CC2

>  <Name>  (648) 
nan

>  <Pocket>  (648) 
nan

>  <ATP_Site>  (648) 
nan

>  <Peripheral>  (648) 
nan

>  <Num_H_Atoms_ProtBoundConf>  (648) 
nan

>  <Num_Resolved_Atoms>  (648) 
nan

>  <Num_Not_Resolved_Atoms>  (648) 
nan

$$$$
CHEMBL4073971
     RDKit          3D

  0  0  0  0  0  0  0  0  0  0999 V3000
M  V30 BEGIN CTAB
M  V30 COUNTS 42 45 0 0 0
M  V30 BEGIN ATOM
M  V30 1 C 0.396764 -6.475053 1.237049 0
M  V30 2 C 1.448769 -5.574193 1.767423 0
M  V30 3 N 2.462118 -6.006898 2.571445 0
M  V30 4 N 3.250605 -5.009916 2.896524 0
M  V30 5 C 2.751609 -3.899800 2.298149 0
M  V30 6 C 1.632043 -4.222741 1.590357 0
M  V30 7 C 0.821636 -3.345300 0.827447 0
M  V30 8 C 1.013968 -1.976872 0.639051 0
M  V30 9 C 0.115879 -1.299921 -0.140866 0
M  V30 10 N 0.076912 0.002414 -0.474608 0
M  V30 11 C -0.898180 0.474974 -1.260274 0
M  V30 12 C -0.795284 1.940551 -1.540593 0
M  V30 13 C 0.419874 2.529270 -0.851022 0
M  V30 14 N 0.379511 2.369654 0.558931 0
M  V30 15 C -0.607287 3.126937 1.267947 0
M  V30 16 C -0.182815 2.762021 2.699996 0
M  V30 17 C 1.276122 3.141470 2.610727 0
M  V30 18 C 1.623247 2.652892 1.205700 0
M  V30 19 N -1.913523 -0.215845 -1.799637 0
M  V30 20 C -1.936139 -1.506784 -1.511213 0
M  V30 21 O -2.797449 -2.328058 -1.912665 0
M  V30 22 C -0.955124 -2.077607 -0.698659 0
M  V30 23 S -0.634178 -3.725714 -0.089632 0
M  V30 24 H 0.032159 -6.145308 0.247907 0
M  V30 25 H -0.407448 -6.574868 2.007003 0
M  V30 26 H 0.877993 -7.466182 1.049749 0
M  V30 27 H 4.105467 -4.960208 3.481268 0
M  V30 28 H 3.168627 -2.894165 2.362112 0
M  V30 29 H 1.856688 -1.484111 1.106633 0
M  V30 30 H -0.787198 2.137880 -2.629768 0
M  V30 31 H -1.688389 2.448623 -1.125891 0
M  V30 32 H 0.583670 3.559243 -1.215531 0
M  V30 33 H 1.283124 1.942377 -1.227643 0
M  V30 34 H -1.645603 2.894507 1.068664 0
M  V30 35 H -0.424373 4.229699 1.175034 0
M  V30 36 H -0.750018 3.299678 3.463088 0
M  V30 37 H -0.277771 1.654290 2.746080 0
M  V30 38 H 1.889728 2.638681 3.383876 0
M  V30 39 H 1.338092 4.249086 2.678177 0
M  V30 40 H 2.202275 1.711294 1.311791 0
M  V30 41 H 2.212076 3.446310 0.663083 0
M  V30 42 H -2.653284 0.185147 -2.405495 0
M  V30 END ATOM
M  V30 BEGIN BOND
M  V30 1 1 1 2
M  V30 2 2 2 3
M  V30 3 1 3 4
M  V30 4 1 4 5
M  V30 5 2 5 6
M  V30 6 1 6 7
M  V30 7 2 7 8
M  V30 8 1 8 9
M  V30 9 1 9 10
M  V30 10 2 10 11
M  V30 11 1 11 12
M  V30 12 1 12 13
M  V30 13 1 13 14
M  V30 14 1 14 15
M  V30 15 1 15 16
M  V30 16 1 16 17
M  V30 17 1 17 18
M  V30 18 1 11 19
M  V30 19 1 19 20
M  V30 20 2 20 21
M  V30 21 1 20 22
M  V30 22 1 22 23
M  V30 23 1 6 2
M  V30 24 1 23 7
M  V30 25 2 22 9
M  V30 26 1 18 14
M  V30 27 1 1 24
M  V30 28 1 1 25
M  V30 29 1 1 26
M  V30 30 1 4 27
M  V30 31 1 5 28
M  V30 32 1 8 29
M  V30 33 1 12 30
M  V30 34 1 12 31
M  V30 35 1 13 32
M  V30 36 1 13 33
M  V30 37 1 15 34
M  V30 38 1 15 35
M  V30 39 1 16 36
M  V30 40 1 16 37
M  V30 41 1 17 38
M  V30 42 1 17 39
M  V30 43 1 18 40
M  V30 44 1 18 41
M  V30 45 1 19 42
M  V30 END BOND
M  V30 END CTAB
M  END
>  <Dataset>  (649) 
ChEMBL_Kinases

>  <Ligand_Instance>  (649) 
nan

>  <PDB_ID>  (649) 
nan

>  <Standardized_SMILES>  (649) 
Cc1n[nH]cc1-c1cc2nc(CCN3CCCC3)[nH]c(=O)c2s1

>  <Name>  (649) 
nan

>  <Pocket>  (649) 
nan

>  <ATP_Site>  (649) 
nan

>  <Peripheral>  (649) 
nan

>  <Num_H_Atoms_ProtBoundConf>  (649) 
nan

>  <Num_Resolved_Atoms>  (649) 
nan

>  <Num_Not_Resolved_Atoms>  (649) 
nan

$$$$
CHEMBL4073938
     RDKit          3D

  0  0  0  0  0  0  0  0  0  0999 V3000
M  V30 BEGIN CTAB
M  V30 COUNTS 47 50 0 0 0
M  V30 BEGIN ATOM
M  V30 1 O -0.070480 -6.059355 1.585944 0
M  V30 2 C 0.392049 -5.047121 1.008263 0
M  V30 3 N 1.255638 -5.048841 -0.101774 0
M  V30 4 C 1.526765 -3.690942 -0.423986 0
M  V30 5 C 2.319857 -3.141654 -1.433607 0
M  V30 6 C 2.391291 -1.758525 -1.500425 0
M  V30 7 C 1.734810 -0.897771 -0.641032 0
M  V30 8 C 1.894552 0.539208 -0.821097 0
M  V30 9 O 2.583317 1.040385 -1.711838 0
M  V30 10 N 1.228775 1.437582 0.067956 0
M  V30 11 C 1.298538 2.870434 0.004942 0 CFG=2
M  V30 12 C 1.988174 3.473132 1.205152 0
M  V30 13 O 3.306077 2.974601 1.276472 0
M  V30 14 C -0.016098 3.468873 -0.259952 0
M  V30 15 C -0.573551 4.566360 0.394221 0
M  V30 16 C -1.806567 5.074416 0.095607 0
M  V30 17 C -2.595464 4.509648 -0.904497 0
M  V30 18 F -3.787107 5.118343 -1.085751 0
M  V30 19 C -2.047735 3.425798 -1.551571 0
M  V30 20 C -0.820826 2.933678 -1.242603 0
M  V30 21 C 0.981224 -1.485618 0.317597 0
M  V30 22 C 0.861486 -2.853357 0.447224 0
M  V30 23 C 0.120018 -3.690235 1.383717 0
M  V30 24 C -0.665943 -3.317124 2.374685 0
M  V30 25 C -1.427380 -4.138118 3.298463 0
M  V30 26 C -2.284066 -5.218693 3.282714 0
M  V30 27 C -2.676256 -5.576031 4.555163 0
M  V30 28 C -2.042257 -4.686100 5.384393 0
M  V30 29 N -1.315192 -3.852874 4.622589 0
M  V30 30 H 1.595647 -5.942435 -0.555912 0
M  V30 31 H 2.857873 -3.766381 -2.136535 0
M  V30 32 H 3.024254 -1.369986 -2.306909 0
M  V30 33 H 0.619107 1.143306 0.861376 0
M  V30 34 H 1.960480 3.128247 -0.867757 0
M  V30 35 H 2.074048 4.571967 1.130969 0
M  V30 36 H 1.525841 3.214464 2.172765 0
M  V30 37 H 3.650922 3.075376 0.331548 0
M  V30 38 H 0.052642 5.006200 1.180582 0
M  V30 39 H -2.128063 5.934535 0.678161 0
M  V30 40 H -2.710902 3.018028 -2.331143 0
M  V30 41 H -0.528466 2.082176 -1.835630 0
M  V30 42 H 0.442915 -0.872225 1.021297 0
M  V30 43 H -0.727643 -2.218489 2.480225 0
M  V30 44 H -2.573560 -5.662295 2.342295 0
M  V30 45 H -3.350471 -6.407025 4.737408 0
M  V30 46 H -2.178485 -4.742522 6.455560 0
M  V30 47 H -0.769700 -3.107312 5.136328 0
M  V30 END ATOM
M  V30 BEGIN BOND
M  V30 1 2 1 2
M  V30 2 1 2 3
M  V30 3 1 3 4
M  V30 4 2 4 5
M  V30 5 1 5 6
M  V30 6 2 6 7
M  V30 7 1 7 8
M  V30 8 2 8 9
M  V30 9 1 8 10
M  V30 10 1 10 11
M  V30 11 1 11 12
M  V30 12 1 12 13
M  V30 13 1 11 14
M  V30 14 2 14 15
M  V30 15 1 15 16
M  V30 16 2 16 17
M  V30 17 1 17 18
M  V30 18 1 17 19
M  V30 19 2 19 20
M  V30 20 1 7 21
M  V30 21 2 21 22
M  V30 22 1 22 23
M  V30 23 2 23 24
M  V30 24 1 24 25
M  V30 25 2 25 26
M  V30 26 1 26 27
M  V30 27 2 27 28
M  V30 28 1 28 29
M  V30 29 1 23 2
M  V30 30 1 29 25
M  V30 31 1 22 4
M  V30 32 1 20 14
M  V30 33 1 3 30
M  V30 34 1 5 31
M  V30 35 1 6 32
M  V30 36 1 10 33
M  V30 37 1 11 34 CFG=3
M  V30 38 1 12 35
M  V30 39 1 12 36
M  V30 40 1 13 37
M  V30 41 1 15 38
M  V30 42 1 16 39
M  V30 43 1 19 40
M  V30 44 1 20 41
M  V30 45 1 21 42
M  V30 46 1 24 43
M  V30 47 1 26 44
M  V30 48 1 27 45
M  V30 49 1 28 46
M  V30 50 1 29 47
M  V30 END BOND
M  V30 END CTAB
M  END
>  <Dataset>  (650) 
ChEMBL_Kinases

>  <Ligand_Instance>  (650) 
nan

>  <PDB_ID>  (650) 
nan

>  <Standardized_SMILES>  (650) 
O=C1Nc2ccc(C(=O)N[C@H](CO)c3ccc(F)cc3)cc2/C1=C/c1ccc[nH]1

>  <Name>  (650) 
nan

>  <Pocket>  (650) 
nan

>  <ATP_Site>  (650) 
nan

>  <Peripheral>  (650) 
nan

>  <Num_H_Atoms_ProtBoundConf>  (650) 
nan

>  <Num_Resolved_Atoms>  (650) 
nan

>  <Num_Not_Resolved_Atoms>  (650) 
nan

$$$$
CHEMBL4858594
     RDKit          3D

  0  0  0  0  0  0  0  0  0  0999 V3000
M  V30 BEGIN CTAB
M  V30 COUNTS 62 66 0 0 0
M  V30 BEGIN ATOM
M  V30 1 C 3.641026 -3.481207 4.620466 0
M  V30 2 C 2.844372 -3.317823 3.343822 0
M  V30 3 C 3.418317 -4.147835 2.215284 0
M  V30 4 N 2.792308 -1.934264 2.953336 0
M  V30 5 C 3.486890 -0.881912 3.388167 0
M  V30 6 O 4.369482 -0.899271 4.254581 0
M  V30 7 C 3.061114 0.231784 2.709310 0
M  V30 8 C 3.329558 1.562782 2.668216 0
M  V30 9 N 2.684390 2.417419 1.848509 0
M  V30 10 C 1.709761 1.956437 1.003942 0
M  V30 11 N 0.967284 2.792898 0.114952 0
M  V30 12 C -0.431424 2.736385 -0.037052 0
M  V30 13 C -1.121988 3.674479 -0.810172 0
M  V30 14 C -2.493221 3.685376 -0.978088 0
M  V30 15 C -3.259981 2.719803 -0.354550 0
M  V30 16 C -2.661476 1.753104 0.424516 0
M  V30 17 C -1.272382 1.816538 0.539617 0
M  V30 18 C -3.426773 0.681066 1.102443 0
M  V30 19 N -4.647709 0.315763 0.468983 0
M  V30 20 C -5.017936 1.091042 -0.667384 0
M  V30 21 C -4.756655 2.553168 -0.374388 0
M  V30 22 N 1.437271 0.647333 1.029598 0
M  V30 23 C 2.083747 -0.195578 1.849907 0
M  V30 24 N 1.957289 -1.544855 2.041417 0
M  V30 25 C 0.973290 -2.274336 1.236291 0
M  V30 26 N 0.681192 -2.149681 0.109921 0
M  V30 27 C -0.222808 -2.813240 -0.573295 0
M  V30 28 C -0.622274 -2.656679 -1.999877 0
M  V30 29 C -0.443811 -3.914056 -2.809650 0
M  V30 30 C 0.278137 -1.613418 -2.687540 0
M  V30 31 C -2.013509 -2.122678 -2.121280 0
M  V30 32 C -0.927733 -3.797228 0.136969 0
M  V30 33 Cl -2.162904 -4.906867 -0.254889 0
M  V30 34 S -0.128276 -3.622545 1.838934 0
M  V30 35 H 4.728565 -3.343042 4.420299 0
M  V30 36 H 3.234794 -2.753595 5.352323 0
M  V30 37 H 3.435897 -4.487598 5.082697 0
M  V30 38 H 1.826701 -3.728258 3.558214 0
M  V30 39 H 4.496662 -4.386438 2.390250 0
M  V30 40 H 3.415148 -3.553530 1.257715 0
M  V30 41 H 2.901936 -5.113373 2.064709 0
M  V30 42 H 4.103591 1.926501 3.333821 0
M  V30 43 H 1.501738 3.487448 -0.467573 0
M  V30 44 H -0.596344 4.458536 -1.331532 0
M  V30 45 H -3.058306 4.381817 -1.551361 0
M  V30 46 H -0.839033 1.044913 1.164154 0
M  V30 47 H -2.751028 -0.228378 1.056475 0
M  V30 48 H -3.650008 0.904751 2.172599 0
M  V30 49 H -4.664430 -0.701039 0.174211 0
M  V30 50 H -4.445668 0.797346 -1.574065 0
M  V30 51 H -6.096138 0.897024 -0.857732 0
M  V30 52 H -5.256661 3.233692 -1.059829 0
M  V30 53 H -5.154250 2.783419 0.651070 0
M  V30 54 H 0.502980 -4.430148 -2.569258 0
M  V30 55 H -1.283617 -4.625370 -2.668973 0
M  V30 56 H -0.419140 -3.624771 -3.894574 0
M  V30 57 H 1.333053 -1.932013 -2.667118 0
M  V30 58 H -0.128272 -1.595702 -3.745616 0
M  V30 59 H 0.099355 -0.662278 -2.175489 0
M  V30 60 H -2.331290 -1.452823 -1.309159 0
M  V30 61 H -2.092359 -1.517445 -3.069207 0
M  V30 62 H -2.719624 -2.963790 -2.284357 0
M  V30 END ATOM
M  V30 BEGIN BOND
M  V30 1 1 1 2
M  V30 2 1 2 3
M  V30 3 1 2 4
M  V30 4 1 4 5
M  V30 5 2 5 6
M  V30 6 1 5 7
M  V30 7 2 7 8
M  V30 8 1 8 9
M  V30 9 2 9 10
M  V30 10 1 10 11
M  V30 11 1 11 12
M  V30 12 2 12 13
M  V30 13 1 13 14
M  V30 14 2 14 15
M  V30 15 1 15 16
M  V30 16 2 16 17
M  V30 17 1 16 18
M  V30 18 1 18 19
M  V30 19 1 19 20
M  V30 20 1 20 21
M  V30 21 1 10 22
M  V30 22 2 22 23
M  V30 23 1 23 24
M  V30 24 1 24 25
M  V30 25 2 25 26
M  V30 26 1 26 27
M  V30 27 1 27 28
M  V30 28 1 28 29
M  V30 29 1 28 30
M  V30 30 1 28 31
M  V30 31 2 27 32
M  V30 32 1 32 33
M  V30 33 1 32 34
M  V30 34 1 24 4
M  V30 35 1 34 25
M  V30 36 1 23 7
M  V30 37 1 17 12
M  V30 38 1 21 15
M  V30 39 1 1 35
M  V30 40 1 1 36
M  V30 41 1 1 37
M  V30 42 1 2 38
M  V30 43 1 3 39
M  V30 44 1 3 40
M  V30 45 1 3 41
M  V30 46 1 8 42
M  V30 47 1 11 43
M  V30 48 1 13 44
M  V30 49 1 14 45
M  V30 50 1 17 46
M  V30 51 1 18 47
M  V30 52 1 18 48
M  V30 53 1 19 49
M  V30 54 1 20 50
M  V30 55 1 20 51
M  V30 56 1 21 52
M  V30 57 1 21 53
M  V30 58 1 29 54
M  V30 59 1 29 55
M  V30 60 1 29 56
M  V30 61 1 30 57
M  V30 62 1 30 58
M  V30 63 1 30 59
M  V30 64 1 31 60
M  V30 65 1 31 61
M  V30 66 1 31 62
M  V30 END BOND
M  V30 END CTAB
M  END
>  <Dataset>  (651) 
ChEMBL_Kinases

>  <Ligand_Instance>  (651) 
nan

>  <PDB_ID>  (651) 
nan

>  <Standardized_SMILES>  (651) 
CC(C)n1c(=O)c2cnc(Nc3ccc4c(c3)CNCC4)nc2n1-c1nc(C(C)(C)C)c(Cl)s1

>  <Name>  (651) 
nan

>  <Pocket>  (651) 
nan

>  <ATP_Site>  (651) 
nan

>  <Peripheral>  (651) 
nan

>  <Num_H_Atoms_ProtBoundConf>  (651) 
nan

>  <Num_Resolved_Atoms>  (651) 
nan

>  <Num_Not_Resolved_Atoms>  (651) 
nan

$$$$
CHEMBL4857210
     RDKit          3D

  0  0  0  0  0  0  0  0  0  0999 V3000
M  V30 BEGIN CTAB
M  V30 COUNTS 78 82 0 0 0
M  V30 BEGIN ATOM
M  V30 1 C 4.209871 -2.868286 4.039581 0
M  V30 2 C 4.150244 -1.508690 4.700051 0
M  V30 3 C 3.564640 -0.485809 3.854154 0
M  V30 4 O 3.469219 -1.471920 3.046204 0
M  V30 5 N 3.166599 0.823852 3.631947 0
M  V30 6 C 2.566001 1.297695 2.405552 0 CFG=1
M  V30 7 C 1.225347 1.951073 2.583039 0
M  V30 8 C 0.976395 2.848671 1.391604 0
M  V30 9 C 1.767113 2.457580 0.191607 0 CFG=1
M  V30 10 N 1.282729 3.079613 -0.997445 0
M  V30 11 C 1.191717 4.416281 -1.248313 0
M  V30 12 O 1.577036 5.162559 -0.300616 0
M  V30 13 C 0.743686 5.019847 -2.376355 0
M  V30 14 C 0.330169 4.183797 -3.394236 0
M  V30 15 C -0.182642 4.734517 -4.678023 0
M  V30 16 C 0.366081 2.815598 -3.282658 0
M  V30 17 C -0.019746 1.899619 -4.234164 0
M  V30 18 N 0.064187 0.558920 -4.004253 0
M  V30 19 C 0.535356 0.102023 -2.817852 0
M  V30 20 N 0.675708 -1.273282 -2.443386 0
M  V30 21 C -0.390198 -2.047544 -1.902114 0
M  V30 22 C -1.617662 -1.376865 -1.803106 0
M  V30 23 C -2.763488 -1.963244 -1.319817 0
M  V30 24 C -2.736611 -3.288721 -0.898930 0
M  V30 25 N -3.863070 -3.980169 -0.394443 0
M  V30 26 C -3.911470 -5.317111 0.191488 0
M  V30 27 C -4.507430 -5.254230 1.559829 0
M  V30 28 N -4.844699 -3.918997 2.007438 0
M  V30 29 C -3.681843 -3.212270 2.508686 0
M  V30 30 C -5.599326 -3.179953 1.046617 0
M  V30 31 C -5.205488 -3.446131 -0.389517 0
M  V30 32 C -1.530884 -3.930875 -1.001142 0
M  V30 33 C -0.365464 -3.384958 -1.476357 0
M  V30 34 O 0.903683 -3.884183 -1.639593 0
M  V30 35 C 1.215000 -5.206059 -1.292173 0
M  V30 36 N 0.903214 1.015961 -1.911967 0
M  V30 37 C 0.847648 2.352333 -2.071939 0
M  V30 38 C 3.233749 2.707215 0.441323 0
M  V30 39 C 3.564509 2.290433 1.830231 0
M  V30 40 H 4.802844 -2.853514 3.097146 0
M  V30 41 H 4.625734 -3.595954 4.779742 0
M  V30 42 H 3.186309 -3.214737 3.803422 0
M  V30 43 H 5.186432 -1.269183 5.043463 0
M  V30 44 H 3.556403 -1.596526 5.630667 0
M  V30 45 H 3.447241 1.231802 4.572513 0
M  V30 46 H 2.520955 0.422241 1.727329 0
M  V30 47 H 0.416823 1.211294 2.567197 0
M  V30 48 H 1.251541 2.585591 3.468436 0
M  V30 49 H 1.231132 3.917128 1.651445 0
M  V30 50 H -0.091243 2.903014 1.092491 0
M  V30 51 H 1.657654 1.340472 0.061917 0
M  V30 52 H 0.715477 6.089184 -2.465973 0
M  V30 53 H -1.227632 4.404050 -4.783575 0
M  V30 54 H 0.390152 4.330939 -5.521185 0
M  V30 55 H -0.132470 5.831456 -4.678426 0
M  V30 56 H -0.391410 2.288311 -5.168265 0
M  V30 57 H 1.583606 -1.768683 -2.554836 0
M  V30 58 H -1.701267 -0.335148 -2.116166 0
M  V30 59 H -3.664923 -1.399168 -1.270306 0
M  V30 60 H -4.603149 -5.913334 -0.481796 0
M  V30 61 H -2.930076 -5.787511 0.229134 0
M  V30 62 H -3.758961 -5.641013 2.292407 0
M  V30 63 H -5.379051 -5.914198 1.622643 0
M  V30 64 H -3.440246 -2.391471 1.809580 0
M  V30 65 H -3.911266 -2.775121 3.500006 0
M  V30 66 H -2.797556 -3.899037 2.620208 0
M  V30 67 H -6.694934 -3.409525 1.166140 0
M  V30 68 H -5.520808 -2.081264 1.250271 0
M  V30 69 H -5.928006 -4.212799 -0.802703 0
M  V30 70 H -5.266574 -2.508279 -0.939823 0
M  V30 71 H -1.390098 -4.958253 -0.710242 0
M  V30 72 H 2.184125 -5.176004 -0.714670 0
M  V30 73 H 1.365855 -5.849185 -2.207964 0
M  V30 74 H 0.453780 -5.708003 -0.668061 0
M  V30 75 H 3.842543 2.145905 -0.326822 0
M  V30 76 H 3.470490 3.770131 0.297831 0
M  V30 77 H 4.550272 1.780662 1.846873 0
M  V30 78 H 3.615273 3.136973 2.550915 0
M  V30 END ATOM
M  V30 BEGIN BOND
M  V30 1 1 1 2
M  V30 2 1 2 3
M  V30 3 2 3 4
M  V30 4 1 3 5
M  V30 5 1 5 6
M  V30 6 1 6 7
M  V30 7 1 7 8
M  V30 8 1 8 9
M  V30 9 1 9 10
M  V30 10 1 10 11
M  V30 11 2 11 12
M  V30 12 1 11 13
M  V30 13 2 13 14
M  V30 14 1 14 15
M  V30 15 1 14 16
M  V30 16 2 16 17
M  V30 17 1 17 18
M  V30 18 2 18 19
M  V30 19 1 19 20
M  V30 20 1 20 21
M  V30 21 2 21 22
M  V30 22 1 22 23
M  V30 23 2 23 24
M  V30 24 1 24 25
M  V30 25 1 25 26
M  V30 26 1 26 27
M  V30 27 1 27 28
M  V30 28 1 28 29
M  V30 29 1 28 30
M  V30 30 1 30 31
M  V30 31 1 24 32
M  V30 32 2 32 33
M  V30 33 1 33 34
M  V30 34 1 34 35
M  V30 35 1 19 36
M  V30 36 2 36 37
M  V30 37 1 9 38
M  V30 38 1 38 39
M  V30 39 1 39 6
M  V30 40 1 37 10
M  V30 41 1 37 16
M  V30 42 1 33 21
M  V30 43 1 31 25
M  V30 44 1 1 40
M  V30 45 1 1 41
M  V30 46 1 1 42
M  V30 47 1 2 43
M  V30 48 1 2 44
M  V30 49 1 5 45
M  V30 50 1 6 46 CFG=3
M  V30 51 1 7 47
M  V30 52 1 7 48
M  V30 53 1 8 49
M  V30 54 1 8 50
M  V30 55 1 9 51 CFG=3
M  V30 56 1 13 52
M  V30 57 1 15 53
M  V30 58 1 15 54
M  V30 59 1 15 55
M  V30 60 1 17 56
M  V30 61 1 20 57
M  V30 62 1 22 58
M  V30 63 1 23 59
M  V30 64 1 26 60
M  V30 65 1 26 61
M  V30 66 1 27 62
M  V30 67 1 27 63
M  V30 68 1 29 64
M  V30 69 1 29 65
M  V30 70 1 29 66
M  V30 71 1 30 67
M  V30 72 1 30 68
M  V30 73 1 31 69
M  V30 74 1 31 70
M  V30 75 1 32 71
M  V30 76 1 35 72
M  V30 77 1 35 73
M  V30 78 1 35 74
M  V30 79 1 38 75
M  V30 80 1 38 76
M  V30 81 1 39 77
M  V30 82 1 39 78
M  V30 END BOND
M  V30 END CTAB
M  END
>  <Dataset>  (652) 
ChEMBL_Kinases

>  <Ligand_Instance>  (652) 
nan

>  <PDB_ID>  (652) 
nan

>  <Standardized_SMILES>  (652) 
CCC(=O)N[C@H]1CC[C@@H](n2c(=O)cc(C)c3cnc(Nc4ccc(N5CCN(C)CC5)cc4OC)nc32)CC1

>  <Name>  (652) 
nan

>  <Pocket>  (652) 
nan

>  <ATP_Site>  (652) 
nan

>  <Peripheral>  (652) 
nan

>  <Num_H_Atoms_ProtBoundConf>  (652) 
nan

>  <Num_Resolved_Atoms>  (652) 
nan

>  <Num_Not_Resolved_Atoms>  (652) 
nan

$$$$
CHEMBL4073840
     RDKit          3D

  0  0  0  0  0  0  0  0  0  0999 V3000
M  V30 BEGIN CTAB
M  V30 COUNTS 39 41 0 0 0
M  V30 BEGIN ATOM
M  V30 1 O 2.694457 0.809979 2.658047 0
M  V30 2 C 1.960929 0.346144 1.727056 0
M  V30 3 N 2.082135 -1.054150 1.781927 0
M  V30 4 C 2.928488 -1.632436 2.781520 0
M  V30 5 C 2.273869 -1.910397 3.970167 0
M  V30 6 C 3.037868 -2.478358 4.996850 0
M  V30 7 C 4.378609 -2.731979 4.788437 0
M  V30 8 N 4.980280 -2.443066 3.605485 0
M  V30 9 C 4.271962 -1.890314 2.582794 0
M  V30 10 C 1.186692 1.162468 0.831907 0
M  V30 11 C 1.327252 2.533704 1.096261 0
M  V30 12 C 0.683134 3.507925 0.371340 0
M  V30 13 Br 0.891513 5.359484 0.751304 0
M  V30 14 C -0.148189 3.161992 -0.671884 0
M  V30 15 C -0.268440 1.812703 -0.909982 0
M  V30 16 C 0.349803 0.799238 -0.219144 0
M  V30 17 O 0.263135 -0.536528 -0.415761 0
M  V30 18 C -0.400700 -1.358083 -1.279234 0
M  V30 19 C -1.864086 -1.327357 -1.285501 0
M  V30 20 C -2.515216 -2.126636 -0.340807 0
M  V30 21 C -3.873472 -2.249582 -0.191836 0
M  V30 22 C -4.690000 -1.534143 -1.033373 0
M  V30 23 F -6.027895 -1.628213 -0.918206 0
M  V30 24 C -4.114752 -0.736315 -1.976461 0
M  V30 25 F -4.878496 -0.009548 -2.831553 0
M  V30 26 C -2.755345 -0.646279 -2.086912 0
M  V30 27 H 1.541872 -1.603977 1.082274 0
M  V30 28 H 1.241199 -1.717981 4.138611 0
M  V30 29 H 2.619042 -2.731014 5.959728 0
M  V30 30 H 5.022599 -3.174891 5.556920 0
M  V30 31 H 4.686119 -1.636581 1.620103 0
M  V30 32 H 1.960932 2.941055 1.900975 0
M  V30 33 H -0.682638 3.878212 -1.279565 0
M  V30 34 H -0.912484 1.530987 -1.726531 0
M  V30 35 H -0.102208 -2.422121 -1.013802 0
M  V30 36 H -0.032616 -1.281333 -2.348237 0
M  V30 37 H -1.932217 -2.719291 0.356583 0
M  V30 38 H -4.315067 -2.883111 0.556738 0
M  V30 39 H -2.281108 -0.021012 -2.840126 0
M  V30 END ATOM
M  V30 BEGIN BOND
M  V30 1 2 1 2
M  V30 2 1 2 3
M  V30 3 1 3 4
M  V30 4 2 4 5
M  V30 5 1 5 6
M  V30 6 2 6 7
M  V30 7 1 7 8
M  V30 8 2 8 9
M  V30 9 1 2 10
M  V30 10 2 10 11
M  V30 11 1 11 12
M  V30 12 1 12 13
M  V30 13 2 12 14
M  V30 14 1 14 15
M  V30 15 2 15 16
M  V30 16 1 16 17
M  V30 17 1 17 18
M  V30 18 1 18 19
M  V30 19 2 19 20
M  V30 20 1 20 21
M  V30 21 2 21 22
M  V30 22 1 22 23
M  V30 23 1 22 24
M  V30 24 1 24 25
M  V30 25 2 24 26
M  V30 26 1 9 4
M  V30 27 1 16 10
M  V30 28 1 26 19
M  V30 29 1 3 27
M  V30 30 1 5 28
M  V30 31 1 6 29
M  V30 32 1 7 30
M  V30 33 1 9 31
M  V30 34 1 11 32
M  V30 35 1 14 33
M  V30 36 1 15 34
M  V30 37 1 18 35
M  V30 38 1 18 36
M  V30 39 1 20 37
M  V30 40 1 21 38
M  V30 41 1 26 39
M  V30 END BOND
M  V30 END CTAB
M  END
>  <Dataset>  (653) 
ChEMBL_Kinases

>  <Ligand_Instance>  (653) 
nan

>  <PDB_ID>  (653) 
nan

>  <Standardized_SMILES>  (653) 
O=C(Nc1cccnc1)c1cc(Br)ccc1OCc1ccc(F)c(F)c1

>  <Name>  (653) 
nan

>  <Pocket>  (653) 
nan

>  <ATP_Site>  (653) 
nan

>  <Peripheral>  (653) 
nan

>  <Num_H_Atoms_ProtBoundConf>  (653) 
nan

>  <Num_Resolved_Atoms>  (653) 
nan

>  <Num_Not_Resolved_Atoms>  (653) 
nan

$$$$
CHEMBL4073837
     RDKit          3D

  0  0  0  0  0  0  0  0  0  0999 V3000
M  V30 BEGIN CTAB
M  V30 COUNTS 46 49 0 0 0
M  V30 BEGIN ATOM
M  V30 1 C 0.735282 -2.795237 2.524838 0
M  V30 2 N -0.340841 -2.310699 1.729306 0
M  V30 3 C -0.131301 -1.655920 0.600144 0
M  V30 4 N 1.146595 -1.306376 0.073489 0
M  V30 5 C 1.102633 -0.765265 -1.281244 0
M  V30 6 C 2.401162 -0.161634 -1.726264 0
M  V30 7 N 2.813081 0.733444 -0.696882 0
M  V30 8 C 3.082215 0.075060 0.511659 0
M  V30 9 C 2.827904 0.796639 1.769429 0
M  V30 10 C 3.649959 0.589970 2.890948 0
M  V30 11 C 3.457868 1.236129 4.102028 0
M  V30 12 C 2.422440 2.132836 4.257284 0
M  V30 13 C 1.579707 2.367916 3.164268 0
M  V30 14 C 1.819343 1.695989 1.983729 0
M  V30 15 Cl 0.718567 2.068577 0.694451 0
M  V30 16 C 2.470046 -1.331828 0.519253 0
M  V30 17 N -1.248941 -1.284212 -0.052427 0
M  V30 18 C -2.505848 -1.501204 0.311919 0
M  V30 19 C -3.609648 -1.034586 -0.518535 0
M  V30 20 C -3.470385 -0.356146 -1.709092 0
M  V30 21 C -4.534064 0.072768 -2.471236 0
M  V30 22 N -5.755053 -0.186665 -2.026110 0
M  V30 23 C -5.933461 -0.845411 -0.871237 0
M  V30 24 N -4.882880 -1.272932 -0.111107 0
M  V30 25 C -2.728669 -2.174037 1.474844 0
M  V30 26 C -1.596142 -2.557872 2.147243 0
M  V30 27 O -1.778017 -3.193558 3.245470 0
M  V30 28 H 1.415738 -3.448029 1.937852 0
M  V30 29 H 1.172829 -2.102065 3.230899 0
M  V30 30 H 0.318825 -3.588969 3.240397 0
M  V30 31 H 0.922936 -1.590846 -2.035746 0
M  V30 32 H 0.222828 -0.114276 -1.441021 0
M  V30 33 H 3.109213 -0.977858 -1.961886 0
M  V30 34 H 2.172977 0.416505 -2.659266 0
M  V30 35 H 3.486717 1.408714 -1.072112 0
M  V30 36 H 4.205429 -0.103748 0.519821 0
M  V30 37 H 4.476571 -0.102167 2.826029 0
M  V30 38 H 4.159887 1.006591 4.921787 0
M  V30 39 H 2.257719 2.642051 5.185366 0
M  V30 40 H 0.771072 3.072752 3.296689 0
M  V30 41 H 2.704626 -1.598994 1.562996 0
M  V30 42 H 3.094926 -1.936025 -0.197220 0
M  V30 43 H -2.425818 -0.194279 -1.982880 0
M  V30 44 H -4.264948 0.595710 -3.388487 0
M  V30 45 H -6.904665 -1.084230 -0.461048 0
M  V30 46 H -3.720118 -2.383054 1.829560 0
M  V30 END ATOM
M  V30 BEGIN BOND
M  V30 1 1 1 2
M  V30 2 1 2 3
M  V30 3 1 3 4
M  V30 4 1 4 5
M  V30 5 1 5 6
M  V30 6 1 6 7
M  V30 7 1 7 8
M  V30 8 1 8 9
M  V30 9 2 9 10
M  V30 10 1 10 11
M  V30 11 2 11 12
M  V30 12 1 12 13
M  V30 13 2 13 14
M  V30 14 1 14 15
M  V30 15 1 8 16
M  V30 16 2 3 17
M  V30 17 1 17 18
M  V30 18 1 18 19
M  V30 19 2 19 20
M  V30 20 1 20 21
M  V30 21 2 21 22
M  V30 22 1 22 23
M  V30 23 2 23 24
M  V30 24 2 18 25
M  V30 25 1 25 26
M  V30 26 2 26 27
M  V30 27 1 26 2
M  V30 28 1 16 4
M  V30 29 1 24 19
M  V30 30 1 14 9
M  V30 31 1 1 28
M  V30 32 1 1 29
M  V30 33 1 1 30
M  V30 34 1 5 31
M  V30 35 1 5 32
M  V30 36 1 6 33
M  V30 37 1 6 34
M  V30 38 1 7 35
M  V30 39 1 8 36
M  V30 40 1 10 37
M  V30 41 1 11 38
M  V30 42 1 12 39
M  V30 43 1 13 40
M  V30 44 1 16 41
M  V30 45 1 16 42
M  V30 46 1 20 43
M  V30 47 1 21 44
M  V30 48 1 23 45
M  V30 49 1 25 46
M  V30 END BOND
M  V30 END CTAB
M  END
>  <Dataset>  (654) 
ChEMBL_Kinases

>  <Ligand_Instance>  (654) 
nan

>  <PDB_ID>  (654) 
nan

>  <Standardized_SMILES>  (654) 
Cn1c(N2CCNC(c3ccccc3Cl)C2)nc(-c2ccncn2)cc1=O

>  <Name>  (654) 
nan

>  <Pocket>  (654) 
nan

>  <ATP_Site>  (654) 
nan

>  <Peripheral>  (654) 
nan

>  <Num_H_Atoms_ProtBoundConf>  (654) 
nan

>  <Num_Resolved_Atoms>  (654) 
nan

>  <Num_Not_Resolved_Atoms>  (654) 
nan

$$$$
CHEMBL4073831
     RDKit          3D

  0  0  0  0  0  0  0  0  0  0999 V3000
M  V30 BEGIN CTAB
M  V30 COUNTS 48 50 0 0 0
M  V30 BEGIN ATOM
M  V30 1 C 6.947285 -2.108633 5.086979 0
M  V30 2 C 6.093876 -2.956901 4.165791 0
M  V30 3 C 4.801417 -2.231841 3.808389 0
M  V30 4 C 5.184530 -0.942531 3.122336 0
M  V30 5 O 4.112493 -0.158619 2.735141 0
M  V30 6 C 3.098586 -0.403111 1.857942 0
M  V30 7 C 2.732053 -1.435530 1.031150 0
M  V30 8 C 1.638685 -1.502519 0.197161 0
M  V30 9 C 0.823096 -0.353379 0.224318 0
M  V30 10 C 1.121264 0.720899 1.024869 0
M  V30 11 C 2.244574 0.714934 1.840426 0
M  V30 12 C 0.031367 1.647401 0.740895 0
M  V30 13 O -0.113955 2.785169 1.254032 0
M  V30 14 C -0.893811 1.074775 -0.239667 0
M  V30 15 C -1.994028 1.622344 -0.730585 0
M  V30 16 C -2.707557 0.781398 -1.707570 0
M  V30 17 C -2.212576 0.065289 -2.775348 0
M  V30 18 C -3.124344 -0.690004 -3.513877 0
M  V30 19 C -4.462810 -0.744437 -3.221034 0
M  V30 20 O -5.273551 -1.533708 -4.028622 0
M  V30 21 C -4.945247 -0.010350 -2.132215 0
M  V30 22 O -6.307291 -0.162783 -1.949274 0
M  V30 23 C -6.985146 0.476342 -0.887163 0
M  V30 24 C -6.449365 0.033849 0.462548 0
M  V30 25 C -4.048969 0.759023 -1.374014 0
M  V30 26 O -0.341716 -0.176126 -0.523380 0
M  V30 27 H 7.662727 -2.788412 5.588330 0
M  V30 28 H 7.551241 -1.392387 4.478581 0
M  V30 29 H 6.312556 -1.514451 5.745190 0
M  V30 30 H 5.897850 -3.920385 4.657132 0
M  V30 31 H 6.628901 -3.107246 3.212690 0
M  V30 32 H 4.235342 -2.928691 3.189205 0
M  V30 33 H 4.268114 -2.049526 4.769103 0
M  V30 34 H 5.807131 -0.358710 3.850679 0
M  V30 35 H 5.863329 -1.235188 2.264262 0
M  V30 36 H 3.439919 -2.246351 1.096264 0
M  V30 37 H 1.516764 -2.398254 -0.375192 0
M  V30 38 H 2.319665 1.642418 2.394506 0
M  V30 39 H -2.319045 2.596361 -0.435232 0
M  V30 40 H -1.153063 0.188613 -2.901169 0
M  V30 41 H -2.652935 -1.224444 -4.339115 0
M  V30 42 H -5.129749 -2.544017 -4.089879 0
M  V30 43 H -8.081596 0.323504 -0.913552 0
M  V30 44 H -6.759254 1.572829 -0.979935 0
M  V30 45 H -5.557467 -0.637510 0.377569 0
M  V30 46 H -7.248923 -0.624128 0.920659 0
M  V30 47 H -6.273291 0.928375 1.088315 0
M  V30 48 H -4.553052 1.279435 -0.572911 0
M  V30 END ATOM
M  V30 BEGIN BOND
M  V30 1 1 1 2
M  V30 2 1 2 3
M  V30 3 1 3 4
M  V30 4 1 4 5
M  V30 5 1 5 6
M  V30 6 2 6 7
M  V30 7 1 7 8
M  V30 8 2 8 9
M  V30 9 1 9 10
M  V30 10 2 10 11
M  V30 11 1 10 12
M  V30 12 2 12 13
M  V30 13 1 12 14
M  V30 14 2 14 15
M  V30 15 1 15 16
M  V30 16 2 16 17
M  V30 17 1 17 18
M  V30 18 2 18 19
M  V30 19 1 19 20
M  V30 20 1 19 21
M  V30 21 1 21 22
M  V30 22 1 22 23
M  V30 23 1 23 24
M  V30 24 2 21 25
M  V30 25 1 14 26
M  V30 26 1 11 6
M  V30 27 1 25 16
M  V30 28 1 26 9
M  V30 29 1 1 27
M  V30 30 1 1 28
M  V30 31 1 1 29
M  V30 32 1 2 30
M  V30 33 1 2 31
M  V30 34 1 3 32
M  V30 35 1 3 33
M  V30 36 1 4 34
M  V30 37 1 4 35
M  V30 38 1 7 36
M  V30 39 1 8 37
M  V30 40 1 11 38
M  V30 41 1 15 39
M  V30 42 1 17 40
M  V30 43 1 18 41
M  V30 44 1 20 42
M  V30 45 1 23 43
M  V30 46 1 23 44
M  V30 47 1 24 45
M  V30 48 1 24 46
M  V30 49 1 24 47
M  V30 50 1 25 48
M  V30 END BOND
M  V30 END CTAB
M  END
>  <Dataset>  (655) 
ChEMBL_Kinases

>  <Ligand_Instance>  (655) 
nan

>  <PDB_ID>  (655) 
nan

>  <Standardized_SMILES>  (655) 
CCCCOc1ccc2c(c1)C(=O)/C(=C/c1ccc(O)c(OCC)c1)O2

>  <Name>  (655) 
nan

>  <Pocket>  (655) 
nan

>  <ATP_Site>  (655) 
nan

>  <Peripheral>  (655) 
nan

>  <Num_H_Atoms_ProtBoundConf>  (655) 
nan

>  <Num_Resolved_Atoms>  (655) 
nan

>  <Num_Not_Resolved_Atoms>  (655) 
nan

$$$$
CHEMBL4073799
     RDKit          3D

  0  0  0  0  0  0  0  0  0  0999 V3000
M  V30 BEGIN CTAB
M  V30 COUNTS 31 34 0 0 0
M  V30 BEGIN ATOM
M  V30 1 N -3.468475 1.904883 0.270568 0
M  V30 2 C -2.460858 1.119433 -0.020164 0
M  V30 3 N -1.128739 1.380652 0.471424 0
M  V30 4 C -0.326534 0.454008 -0.343473 0 CFG=1
M  V30 5 C 0.988307 0.170047 0.290848 0
M  V30 6 C 1.058162 -0.657399 1.394376 0
M  V30 7 N 2.299391 -0.817150 1.850588 0
M  V30 8 C 3.081033 -0.069298 1.020513 0
M  V30 9 Br 4.972679 0.084630 1.192515 0
M  V30 10 C 2.303294 0.547667 0.053973 0
M  V30 11 Br 2.874573 1.701861 -1.352877 0
M  V30 12 C -0.221610 -1.192909 1.846157 0
M  V30 13 O -0.407941 -1.550724 3.044785 0
M  V30 14 C -1.399367 -1.359964 0.943139 0
M  V30 15 C -1.564252 -2.837078 0.707478 0
M  V30 16 C -1.232040 -3.120592 -0.730790 0
M  V30 17 C -0.826079 -1.802760 -1.362084 0
M  V30 18 C -1.239988 -0.729288 -0.395159 0 CFG=2
M  V30 19 N -2.484752 -0.074866 -0.830778 0
M  V30 20 H -4.421346 1.727009 -0.075011 0
M  V30 21 H -0.902238 2.072570 1.218626 0
M  V30 22 H -0.201240 0.945029 -1.315682 0
M  V30 23 H 2.567433 -1.401037 2.672624 0
M  V30 24 H -2.315189 -0.978505 1.445090 0
M  V30 25 H -0.866426 -3.450548 1.319943 0
M  V30 26 H -2.606346 -3.162114 0.967132 0
M  V30 27 H -0.438004 -3.879604 -0.858672 0
M  V30 28 H -2.134885 -3.550689 -1.203388 0
M  V30 29 H 0.232150 -1.771895 -1.645778 0
M  V30 30 H -1.427595 -1.705814 -2.290099 0
M  V30 31 H -3.258938 -0.293485 -1.517580 0
M  V30 END ATOM
M  V30 BEGIN BOND
M  V30 1 2 1 2 CFG=2
M  V30 2 1 2 3
M  V30 3 1 3 4
M  V30 4 1 4 5
M  V30 5 2 5 6
M  V30 6 1 6 7
M  V30 7 1 7 8
M  V30 8 1 8 9
M  V30 9 2 8 10
M  V30 10 1 10 11
M  V30 11 1 6 12
M  V30 12 2 12 13
M  V30 13 1 12 14
M  V30 14 1 14 15
M  V30 15 1 15 16
M  V30 16 1 16 17
M  V30 17 1 17 18
M  V30 18 1 18 19 CFG=3
M  V30 19 1 19 2
M  V30 20 1 18 4
M  V30 21 1 10 5
M  V30 22 1 18 14
M  V30 23 1 1 20
M  V30 24 1 3 21
M  V30 25 1 4 22 CFG=3
M  V30 26 1 7 23
M  V30 27 1 14 24
M  V30 28 1 15 25
M  V30 29 1 15 26
M  V30 30 1 16 27
M  V30 31 1 16 28
M  V30 32 1 17 29
M  V30 33 1 17 30
M  V30 34 1 19 31
M  V30 END BOND
M  V30 END CTAB
M  END
>  <Dataset>  (656) 
ChEMBL_Kinases

>  <Ligand_Instance>  (656) 
nan

>  <PDB_ID>  (656) 
nan

>  <Standardized_SMILES>  (656) 
N=C1N[C@H]2c3c([nH]c(Br)c3Br)C(=O)C3CCC[C@@]32N1

>  <Name>  (656) 
nan

>  <Pocket>  (656) 
nan

>  <ATP_Site>  (656) 
nan

>  <Peripheral>  (656) 
nan

>  <Num_H_Atoms_ProtBoundConf>  (656) 
nan

>  <Num_Resolved_Atoms>  (656) 
nan

>  <Num_Not_Resolved_Atoms>  (656) 
nan

$$$$
CHEMBL4073776
     RDKit          3D

  0  0  0  0  0  0  0  0  0  0999 V3000
M  V30 BEGIN CTAB
M  V30 COUNTS 60 64 0 0 0
M  V30 BEGIN ATOM
M  V30 1 O 4.150937 4.741510 -1.490336 0
M  V30 2 C 4.209263 3.811791 -0.643513 0
M  V30 3 N 5.471176 3.385740 -0.152729 0
M  V30 4 C 6.729370 3.991168 -0.595989 0
M  V30 5 C 7.916424 3.348060 0.084154 0
M  V30 6 O 9.062396 3.982251 -0.394357 0
M  V30 7 C 2.948349 3.221832 -0.214018 0
M  V30 8 C 1.782975 3.717925 -0.760332 0
M  V30 9 C 0.518081 3.231658 -0.424145 0
M  V30 10 C 0.465671 2.204584 0.502772 0
M  V30 11 C 1.621490 1.695033 1.060444 0
M  V30 12 C 2.873125 2.197956 0.708068 0
M  V30 13 C 1.791257 0.623381 2.046013 0
M  V30 14 O 2.854419 0.561684 2.677191 0
M  V30 15 C 0.755567 -0.371819 2.310533 0
M  V30 16 C 1.197691 -1.341764 3.183676 0
M  V30 17 C 0.415475 -2.394242 3.595192 0
M  V30 18 C -0.899268 -2.527420 3.130934 0
M  V30 19 N -1.754449 -3.577874 3.532749 0
M  V30 20 C -2.900452 -4.177992 2.967090 0
M  V30 21 C -3.793715 -4.842611 3.816272 0
M  V30 22 C -4.907955 -5.448912 3.309623 0
M  V30 23 C -5.151025 -5.404800 1.958906 0
M  V30 24 F -6.289069 -6.035254 1.522680 0
M  V30 25 C -4.320698 -4.772158 1.062708 0
M  V30 26 N -4.662505 -4.785180 -0.309009 0
M  V30 27 C -3.967344 -4.207978 -1.386672 0
M  V30 28 O -2.907482 -3.589107 -1.194896 0
M  V30 29 C -4.439450 -4.306559 -2.716592 0
M  V30 30 C -3.923863 -3.822201 -3.911238 0
M  V30 31 C -4.584838 -4.059892 -5.072468 0
M  V30 32 C -5.813320 -4.815122 -5.028115 0
M  V30 33 S -6.018550 -5.200659 -3.198285 0
M  V30 34 C -3.224963 -4.187580 1.640914 0
M  V30 35 C -1.319143 -1.544598 2.258802 0
M  V30 36 C -0.537109 -0.486710 1.843202 0
M  V30 37 O -1.107672 0.418595 0.961519 0
M  V30 38 C -0.945446 1.811429 0.744380 0
M  V30 39 H 5.533457 2.623971 0.542174 0
M  V30 40 H 6.739632 5.070218 -0.447773 0
M  V30 41 H 6.809544 3.771711 -1.680376 0
M  V30 42 H 8.022710 2.279632 -0.265121 0
M  V30 43 H 7.875130 3.362922 1.174954 0
M  V30 44 H 9.068670 3.932006 -1.381006 0
M  V30 45 H 1.774855 4.527240 -1.494761 0
M  V30 46 H -0.380467 3.637418 -0.866383 0
M  V30 47 H 3.771700 1.795219 1.147596 0
M  V30 48 H 2.205076 -1.294775 3.578188 0
M  V30 49 H 0.788091 -3.140691 4.280927 0
M  V30 50 H -1.438933 -3.979084 4.462581 0
M  V30 51 H -3.625126 -4.890947 4.877412 0
M  V30 52 H -5.585592 -5.954373 3.963398 0
M  V30 53 H -5.540317 -5.281501 -0.582314 0
M  V30 54 H -3.006764 -3.270675 -3.857765 0
M  V30 55 H -4.240436 -3.713507 -6.031005 0
M  V30 56 H -6.407451 -5.043844 -5.965621 0
M  V30 57 H -2.522951 -3.686590 1.016615 0
M  V30 58 H -2.301952 -1.516071 1.835222 0
M  V30 59 H -1.330955 2.316481 1.670341 0
M  V30 60 H -1.546595 2.066113 -0.137539 0
M  V30 END ATOM
M  V30 BEGIN BOND
M  V30 1 2 1 2
M  V30 2 1 2 3
M  V30 3 1 3 4
M  V30 4 1 4 5
M  V30 5 1 5 6
M  V30 6 1 2 7
M  V30 7 2 7 8
M  V30 8 1 8 9
M  V30 9 2 9 10
M  V30 10 1 10 11
M  V30 11 2 11 12
M  V30 12 1 11 13
M  V30 13 2 13 14
M  V30 14 1 13 15
M  V30 15 2 15 16
M  V30 16 1 16 17
M  V30 17 2 17 18
M  V30 18 1 18 19
M  V30 19 1 19 20
M  V30 20 2 20 21
M  V30 21 1 21 22
M  V30 22 2 22 23
M  V30 23 1 23 24
M  V30 24 1 23 25
M  V30 25 1 25 26
M  V30 26 1 26 27
M  V30 27 2 27 28
M  V30 28 1 27 29
M  V30 29 2 29 30
M  V30 30 1 30 31
M  V30 31 2 31 32
M  V30 32 1 32 33
M  V30 33 2 25 34
M  V30 34 1 18 35
M  V30 35 2 35 36
M  V30 36 1 36 37
M  V30 37 1 37 38
M  V30 38 1 12 7
M  V30 39 1 36 15
M  V30 40 1 38 10
M  V30 41 1 34 20
M  V30 42 1 33 29
M  V30 43 1 3 39
M  V30 44 1 4 40
M  V30 45 1 4 41
M  V30 46 1 5 42
M  V30 47 1 5 43
M  V30 48 1 6 44
M  V30 49 1 8 45
M  V30 50 1 9 46
M  V30 51 1 12 47
M  V30 52 1 16 48
M  V30 53 1 17 49
M  V30 54 1 19 50
M  V30 55 1 21 51
M  V30 56 1 22 52
M  V30 57 1 26 53
M  V30 58 1 30 54
M  V30 59 1 31 55
M  V30 60 1 32 56
M  V30 61 1 34 57
M  V30 62 1 35 58
M  V30 63 1 38 59
M  V30 64 1 38 60
M  V30 END BOND
M  V30 END CTAB
M  END
>  <Dataset>  (657) 
ChEMBL_Kinases

>  <Ligand_Instance>  (657) 
nan

>  <PDB_ID>  (657) 
nan

>  <Standardized_SMILES>  (657) 
O=C(NCCO)c1ccc2c(c1)C(=O)c1ccc(Nc3ccc(F)c(NC(=O)c4cccs4)c3)cc1OC2

>  <Name>  (657) 
nan

>  <Pocket>  (657) 
nan

>  <ATP_Site>  (657) 
nan

>  <Peripheral>  (657) 
nan

>  <Num_H_Atoms_ProtBoundConf>  (657) 
nan

>  <Num_Resolved_Atoms>  (657) 
nan

>  <Num_Not_Resolved_Atoms>  (657) 
nan

$$$$
CHEMBL4073745
     RDKit          3D

  0  0  0  0  0  0  0  0  0  0999 V3000
M  V30 BEGIN CTAB
M  V30 COUNTS 53 54 0 0 0
M  V30 BEGIN ATOM
M  V30 1 C 2.059418 -1.561023 3.182754 0
M  V30 2 O 1.239774 -1.929249 2.116669 0
M  V30 3 C 0.739625 -1.145106 1.124810 0
M  V30 4 C 1.032499 0.201717 1.107357 0
M  V30 5 C 0.533045 1.036615 0.098420 0
M  V30 6 C 0.793775 2.469633 0.004513 0
M  V30 7 C -0.185955 3.300698 -0.558302 0
M  V30 8 C -0.009963 4.663326 -0.682603 0
M  V30 9 N 1.158922 5.193987 -0.237757 0
M  V30 10 C 2.105602 4.417482 0.301739 0
M  V30 11 N 3.356237 4.937515 0.782494 0
M  V30 12 C 4.315895 4.935148 -0.263901 0
M  V30 13 C 5.709458 5.418712 -0.060348 0
M  V30 14 O 4.161052 4.552650 -1.449662 0
M  V30 15 C 1.985004 3.061100 0.449951 0
M  V30 16 C -0.258349 0.477691 -0.876594 0
M  V30 17 C -0.543542 -0.868034 -0.849261 0
M  V30 18 C -0.065224 -1.738630 0.141184 0
M  V30 19 O -0.284728 -3.068635 0.259760 0
M  V30 20 C -0.989493 -4.000957 -0.439287 0
M  V30 21 C -2.452554 -3.804397 -0.503224 0 CFG=1
M  V30 22 N -3.127982 -4.853873 -1.269937 0
M  V30 23 C -3.131822 -3.681706 0.823610 0
M  V30 24 C -2.992996 -4.835541 1.739128 0
M  V30 25 C -3.491576 -6.147654 1.298637 0
M  V30 26 C -3.793036 -4.470800 2.999520 0
M  V30 27 H 2.906411 -2.307690 3.209931 0
M  V30 28 H 2.479893 -0.555998 3.152522 0
M  V30 29 H 1.491712 -1.690466 4.126880 0
M  V30 30 H 1.637893 0.722025 1.822203 0
M  V30 31 H -1.134410 2.917156 -0.924911 0
M  V30 32 H -0.795784 5.281556 -1.128849 0
M  V30 33 H 3.622651 5.291596 1.740547 0
M  V30 34 H 5.832444 6.383182 -0.563534 0
M  V30 35 H 6.466182 4.718700 -0.438726 0
M  V30 36 H 5.890758 5.587574 1.013255 0
M  V30 37 H 2.712083 2.384208 0.876515 0
M  V30 38 H -0.662479 1.086494 -1.675206 0
M  V30 39 H -1.147985 -1.260720 -1.625745 0
M  V30 40 H -0.616116 -3.960387 -1.514803 0
M  V30 41 H -0.685846 -5.025249 -0.120342 0
M  V30 42 H -2.685103 -2.882273 -1.059942 0
M  V30 43 H -2.577731 -5.741017 -1.263540 0
M  V30 44 H -3.331334 -4.560234 -2.244009 0
M  V30 45 H -4.201943 -3.464857 0.631329 0
M  V30 46 H -2.714671 -2.792589 1.338813 0
M  V30 47 H -1.947627 -4.931341 2.094426 0
M  V30 48 H -3.876105 -6.757200 2.167153 0
M  V30 49 H -2.641495 -6.791678 0.924873 0
M  V30 50 H -4.251743 -6.190821 0.528070 0
M  V30 51 H -3.805212 -5.290722 3.734196 0
M  V30 52 H -4.826900 -4.230736 2.610968 0
M  V30 53 H -3.414563 -3.513163 3.415859 0
M  V30 END ATOM
M  V30 BEGIN BOND
M  V30 1 1 1 2
M  V30 2 1 2 3
M  V30 3 2 3 4
M  V30 4 1 4 5
M  V30 5 1 5 6
M  V30 6 2 6 7
M  V30 7 1 7 8
M  V30 8 2 8 9
M  V30 9 1 9 10
M  V30 10 1 10 11
M  V30 11 1 11 12
M  V30 12 1 12 13
M  V30 13 2 12 14
M  V30 14 2 10 15
M  V30 15 2 5 16
M  V30 16 1 16 17
M  V30 17 2 17 18
M  V30 18 1 18 19
M  V30 19 1 19 20
M  V30 20 1 20 21
M  V30 21 1 21 22
M  V30 22 1 21 23
M  V30 23 1 23 24
M  V30 24 1 24 25
M  V30 25 1 24 26
M  V30 26 1 18 3
M  V30 27 1 15 6
M  V30 28 1 1 27
M  V30 29 1 1 28
M  V30 30 1 1 29
M  V30 31 1 4 30
M  V30 32 1 7 31
M  V30 33 1 8 32
M  V30 34 1 11 33
M  V30 35 1 13 34
M  V30 36 1 13 35
M  V30 37 1 13 36
M  V30 38 1 15 37
M  V30 39 1 16 38
M  V30 40 1 17 39
M  V30 41 1 20 40
M  V30 42 1 20 41
M  V30 43 1 21 42 CFG=3
M  V30 44 1 22 43
M  V30 45 1 22 44
M  V30 46 1 23 45
M  V30 47 1 23 46
M  V30 48 1 24 47
M  V30 49 1 25 48
M  V30 50 1 25 49
M  V30 51 1 25 50
M  V30 52 1 26 51
M  V30 53 1 26 52
M  V30 54 1 26 53
M  V30 END BOND
M  V30 END CTAB
M  END
>  <Dataset>  (658) 
ChEMBL_Kinases

>  <Ligand_Instance>  (658) 
nan

>  <PDB_ID>  (658) 
nan

>  <Standardized_SMILES>  (658) 
COc1cc(-c2ccnc(NC(C)=O)c2)ccc1OC[C@@H](N)CC(C)C

>  <Name>  (658) 
nan

>  <Pocket>  (658) 
nan

>  <ATP_Site>  (658) 
nan

>  <Peripheral>  (658) 
nan

>  <Num_H_Atoms_ProtBoundConf>  (658) 
nan

>  <Num_Resolved_Atoms>  (658) 
nan

>  <Num_Not_Resolved_Atoms>  (658) 
nan

$$$$
CHEMBL4073735
     RDKit          3D

  0  0  0  0  0  0  0  0  0  0999 V3000
M  V30 BEGIN CTAB
M  V30 COUNTS 29 31 0 0 0
M  V30 BEGIN ATOM
M  V30 1 N 1.183125 -1.901168 3.793796 0
M  V30 2 C 1.641968 -1.956609 2.710712 0
M  V30 3 C 2.203218 -2.028561 1.379609 0
M  V30 4 C 3.126761 -2.909193 0.874959 0
M  V30 5 N 3.387587 -2.645894 -0.418144 0
M  V30 6 C 2.625829 -1.588781 -0.745849 0
M  V30 7 N 2.465050 -0.883796 -1.891561 0
M  V30 8 C 1.616429 0.151189 -1.925053 0
M  V30 9 N 1.541837 0.788882 -3.172179 0
M  V30 10 N 0.882235 0.567627 -0.881294 0
M  V30 11 C 0.988603 -0.093502 0.310767 0
M  V30 12 N 0.253712 0.309433 1.433213 0
M  V30 13 C -1.058088 0.123499 1.871041 0
M  V30 14 C -1.971139 -0.476697 1.030747 0
M  V30 15 C -3.272960 -0.656177 1.472119 0
M  V30 16 C -3.588503 -0.215254 2.753333 0
M  V30 17 C -2.662192 0.393670 3.606770 0
M  V30 18 C -1.369953 0.559019 3.138767 0
M  V30 19 C 1.869305 -1.166822 0.341323 0
M  V30 20 H 3.592458 -3.718592 1.440474 0
M  V30 21 H 4.051242 -3.145416 -1.081951 0
M  V30 22 H 1.024121 1.466447 -3.747224 0
M  V30 23 H 2.175477 0.662388 -3.985807 0
M  V30 24 H 0.991919 0.855289 1.948085 0
M  V30 25 H -1.711095 -0.822833 0.018483 0
M  V30 26 H -4.053279 -1.125516 0.859488 0
M  V30 27 H -4.619182 -0.352201 3.114658 0
M  V30 28 H -2.952133 0.720972 4.593846 0
M  V30 29 H -0.639455 1.036198 3.805564 0
M  V30 END ATOM
M  V30 BEGIN BOND
M  V30 1 3 1 2
M  V30 2 1 2 3
M  V30 3 2 3 4
M  V30 4 1 4 5
M  V30 5 1 5 6
M  V30 6 2 6 7
M  V30 7 1 7 8
M  V30 8 1 8 9
M  V30 9 2 8 10
M  V30 10 1 10 11
M  V30 11 1 11 12
M  V30 12 1 12 13
M  V30 13 2 13 14
M  V30 14 1 14 15
M  V30 15 2 15 16
M  V30 16 1 16 17
M  V30 17 2 17 18
M  V30 18 2 11 19
M  V30 19 1 19 3
M  V30 20 1 19 6
M  V30 21 1 18 13
M  V30 22 1 4 20
M  V30 23 1 5 21
M  V30 24 1 9 22
M  V30 25 1 9 23
M  V30 26 1 12 24
M  V30 27 1 14 25
M  V30 28 1 15 26
M  V30 29 1 16 27
M  V30 30 1 17 28
M  V30 31 1 18 29
M  V30 END BOND
M  V30 END CTAB
M  END
>  <Dataset>  (659) 
ChEMBL_Kinases

>  <Ligand_Instance>  (659) 
nan

>  <PDB_ID>  (659) 
nan

>  <Standardized_SMILES>  (659) 
N#Cc1c[nH]c2nc(N)nc(Nc3ccccc3)c12

>  <Name>  (659) 
nan

>  <Pocket>  (659) 
nan

>  <ATP_Site>  (659) 
nan

>  <Peripheral>  (659) 
nan

>  <Num_H_Atoms_ProtBoundConf>  (659) 
nan

>  <Num_Resolved_Atoms>  (659) 
nan

>  <Num_Not_Resolved_Atoms>  (659) 
nan

$$$$
CHEMBL4073684
     RDKit          3D

  0  0  0  0  0  0  0  0  0  0999 V3000
M  V30 BEGIN CTAB
M  V30 COUNTS 55 58 0 0 0
M  V30 BEGIN ATOM
M  V30 1 C 1.434007 -4.934612 6.559032 0
M  V30 2 O 0.775551 -5.694444 5.600003 0
M  V30 3 C 0.728686 -5.432679 4.236899 0
M  V30 4 C 1.357660 -4.352207 3.661356 0
M  V30 5 C 1.328830 -4.064254 2.317031 0
M  V30 6 C 1.987867 -2.957261 1.765231 0
M  V30 7 C 1.945655 -2.691507 0.381740 0
M  V30 8 O 2.674018 -1.561876 0.146777 0
M  V30 9 C 2.242301 -0.381598 -0.389939 0
M  V30 10 C 1.674139 0.364417 0.656811 0
M  V30 11 C 1.132423 1.641942 0.437798 0
M  V30 12 C 1.162630 2.176377 -0.847896 0
M  V30 13 N 0.634600 3.465798 -1.137228 0
M  V30 14 C -0.688331 3.752593 -1.519462 0
M  V30 15 O -1.684089 3.024200 -1.696421 0
M  V30 16 N -0.962342 5.105652 -1.752372 0
M  V30 17 C -2.221549 5.636467 -2.146679 0
M  V30 18 C -2.483478 5.740555 -3.495824 0
M  V30 19 C -3.729516 6.265157 -3.782625 0
M  V30 20 C -4.684679 6.673586 -2.883830 0
M  V30 21 Cl -6.234592 7.325032 -3.341506 0
M  V30 22 C -4.316108 6.524014 -1.569038 0
M  V30 23 Cl -5.418905 6.991057 -0.278224 0
M  V30 24 C -3.110122 6.016426 -1.150049 0
M  V30 25 C 1.716993 1.452760 -1.878411 0
M  V30 26 C 2.240992 0.202625 -1.637735 0
M  V30 27 C 1.217496 -3.594016 -0.348590 0
M  V30 28 C 1.214668 -3.257861 -1.785529 0
M  V30 29 N 0.594397 -4.647014 0.200386 0
M  V30 30 C 0.615699 -4.925364 1.496280 0
M  V30 31 C -0.018027 -6.008113 2.048399 0
M  V30 32 C 0.019133 -6.291355 3.418348 0
M  V30 33 O -0.610209 -7.376809 4.001363 0
M  V30 34 C -1.361166 -8.328537 3.282969 0
M  V30 35 H 2.256879 -4.295417 6.192588 0
M  V30 36 H 0.746490 -4.268864 7.149683 0
M  V30 37 H 1.910466 -5.581777 7.345326 0
M  V30 38 H 1.899393 -3.700036 4.304260 0
M  V30 39 H 2.500542 -2.381530 2.534255 0
M  V30 40 H 1.563165 0.112602 1.724236 0
M  V30 41 H 0.681919 2.273983 1.186737 0
M  V30 42 H 1.364232 4.207726 -1.031159 0
M  V30 43 H -0.348495 5.956794 -1.694428 0
M  V30 44 H -1.753414 5.428316 -4.201248 0
M  V30 45 H -3.941089 6.349052 -4.859751 0
M  V30 46 H -2.846997 5.912862 -0.090818 0
M  V30 47 H 1.783688 1.773328 -2.882264 0
M  V30 48 H 2.716860 -0.500892 -2.333405 0
M  V30 49 H 2.211144 -3.485606 -2.241923 0
M  V30 50 H 0.858019 -2.238410 -1.966812 0
M  V30 51 H 0.493914 -3.980633 -2.263866 0
M  V30 52 H -0.575913 -6.688797 1.430424 0
M  V30 53 H -0.713466 -8.976109 2.643858 0
M  V30 54 H -2.051387 -7.785141 2.617296 0
M  V30 55 H -1.985500 -8.931537 3.975196 0
M  V30 END ATOM
M  V30 BEGIN BOND
M  V30 1 1 1 2
M  V30 2 1 2 3
M  V30 3 2 3 4
M  V30 4 1 4 5
M  V30 5 2 5 6
M  V30 6 1 6 7
M  V30 7 1 7 8
M  V30 8 1 8 9
M  V30 9 2 9 10
M  V30 10 1 10 11
M  V30 11 2 11 12
M  V30 12 1 12 13
M  V30 13 1 13 14
M  V30 14 2 14 15
M  V30 15 1 14 16
M  V30 16 1 16 17
M  V30 17 2 17 18
M  V30 18 1 18 19
M  V30 19 2 19 20
M  V30 20 1 20 21
M  V30 21 1 20 22
M  V30 22 1 22 23
M  V30 23 2 22 24
M  V30 24 1 12 25
M  V30 25 2 25 26
M  V30 26 2 7 27
M  V30 27 1 27 28
M  V30 28 1 27 29
M  V30 29 2 29 30
M  V30 30 1 30 31
M  V30 31 2 31 32
M  V30 32 1 32 33
M  V30 33 1 33 34
M  V30 34 1 32 3
M  V30 35 1 30 5
M  V30 36 1 26 9
M  V30 37 1 24 17
M  V30 38 1 1 35
M  V30 39 1 1 36
M  V30 40 1 1 37
M  V30 41 1 4 38
M  V30 42 1 6 39
M  V30 43 1 10 40
M  V30 44 1 11 41
M  V30 45 1 13 42
M  V30 46 1 16 43
M  V30 47 1 18 44
M  V30 48 1 19 45
M  V30 49 1 24 46
M  V30 50 1 25 47
M  V30 51 1 26 48
M  V30 52 1 28 49
M  V30 53 1 28 50
M  V30 54 1 28 51
M  V30 55 1 31 52
M  V30 56 1 34 53
M  V30 57 1 34 54
M  V30 58 1 34 55
M  V30 END BOND
M  V30 END CTAB
M  END
>  <Dataset>  (660) 
ChEMBL_Kinases

>  <Ligand_Instance>  (660) 
nan

>  <PDB_ID>  (660) 
nan

>  <Standardized_SMILES>  (660) 
COc1cc2cc(Oc3ccc(NC(=O)Nc4ccc(Cl)c(Cl)c4)cc3)c(C)nc2cc1OC

>  <Name>  (660) 
nan

>  <Pocket>  (660) 
nan

>  <ATP_Site>  (660) 
nan

>  <Peripheral>  (660) 
nan

>  <Num_H_Atoms_ProtBoundConf>  (660) 
nan

>  <Num_Resolved_Atoms>  (660) 
nan

>  <Num_Not_Resolved_Atoms>  (660) 
nan

$$$$
CHEMBL4073639
     RDKit          3D

  0  0  0  0  0  0  0  0  0  0999 V3000
M  V30 BEGIN CTAB
M  V30 COUNTS 64 68 0 0 0
M  V30 BEGIN ATOM
M  V30 1 O 1.297684 -0.209499 1.787797 0
M  V30 2 C 2.063708 -0.106322 0.769642 0
M  V30 3 N 3.418022 -0.192023 1.176980 0
M  V30 4 C 3.909137 -0.362574 2.508341 0
M  V30 5 C 3.520855 0.752097 3.444405 0
M  V30 6 C 4.041608 2.056501 2.964865 0
M  V30 7 C 5.307176 2.485438 3.369712 0
M  V30 8 C 5.816603 3.703149 2.934854 0
M  V30 9 C 5.087497 4.517809 2.094222 0
M  V30 10 C 3.848633 4.088935 1.703071 0
M  V30 11 C 3.316541 2.873931 2.124755 0
M  V30 12 C 1.504222 0.069677 -0.557674 0
M  V30 13 C 0.114543 0.089005 -0.643944 0
M  V30 14 C -0.557322 0.247216 -1.834284 0
M  V30 15 C -2.017849 0.260471 -1.887003 0 CFG=2
M  V30 16 C -2.547057 1.318220 -0.946651 0
M  V30 17 C -3.876217 0.882518 -0.333805 0
M  V30 18 N -4.704849 0.202702 -1.278939 0
M  V30 19 C -4.119092 -0.926760 -1.927331 0
M  V30 20 C -2.669259 -1.042721 -1.464207 0 CFG=1
M  V30 21 C -2.028260 -2.226305 -2.111031 0
M  V30 22 O -2.591835 -3.430553 -1.756305 0
M  V30 23 C -2.726597 -4.072961 -0.578862 0
M  V30 24 C -3.402956 -5.281181 -0.813334 0
M  V30 25 C -3.698457 -6.182171 0.219048 0
M  V30 26 C -3.313296 -5.873607 1.506495 0
M  V30 27 C -2.649896 -4.697213 1.761713 0
M  V30 28 C -2.373923 -3.833844 0.730064 0
M  V30 29 O -2.346605 -4.563801 3.108737 0
M  V30 30 C -3.112161 -5.542967 3.789546 0
M  V30 31 O -3.404564 -6.463369 2.774441 0
M  V30 32 C 0.159901 0.394226 -3.001564 0
M  V30 33 C 1.534949 0.383021 -2.977779 0
M  V30 34 C 2.154222 0.221683 -1.760417 0
M  V30 35 F 3.484026 0.209783 -1.724931 0
M  V30 36 H 4.119946 -0.118089 0.379214 0
M  V30 37 H 3.610597 -1.331454 2.964776 0
M  V30 38 H 5.028932 -0.367056 2.468671 0
M  V30 39 H 2.427786 0.790607 3.521472 0
M  V30 40 H 3.995825 0.476528 4.433335 0
M  V30 41 H 5.866693 1.839058 4.026943 0
M  V30 42 H 6.812421 4.039068 3.254483 0
M  V30 43 H 5.529449 5.470852 1.775771 0
M  V30 44 H 3.281078 4.740798 1.038664 0
M  V30 45 H 2.338391 2.594516 1.782835 0
M  V30 46 H -0.504734 -0.021749 0.238221 0
M  V30 47 H -2.379325 0.444330 -2.930994 0
M  V30 48 H -2.681665 2.289422 -1.435667 0
M  V30 49 H -1.860883 1.477915 -0.081962 0
M  V30 50 H -3.732757 0.371160 0.631461 0
M  V30 51 H -4.411605 1.837590 -0.070268 0
M  V30 52 H -5.601562 -0.036145 -0.801507 0
M  V30 53 H -4.082202 -0.749571 -3.032406 0
M  V30 54 H -4.672024 -1.869302 -1.755587 0
M  V30 55 H -2.675751 -1.045028 -0.377356 0
M  V30 56 H -2.193273 -2.102724 -3.224778 0
M  V30 57 H -0.911266 -2.202138 -2.017668 0
M  V30 58 H -3.783202 -5.692366 -1.759456 0
M  V30 59 H -4.213425 -7.124038 0.108754 0
M  V30 60 H -1.855358 -2.892268 0.822131 0
M  V30 61 H -2.419996 -6.039163 4.525760 0
M  V30 62 H -4.015466 -5.126964 4.275608 0
M  V30 63 H -0.382722 0.517812 -3.930294 0
M  V30 64 H 2.137429 0.494508 -3.867070 0
M  V30 END ATOM
M  V30 BEGIN BOND
M  V30 1 2 1 2
M  V30 2 1 2 3
M  V30 3 1 3 4
M  V30 4 1 4 5
M  V30 5 1 5 6
M  V30 6 2 6 7
M  V30 7 1 7 8
M  V30 8 2 8 9
M  V30 9 1 9 10
M  V30 10 2 10 11
M  V30 11 1 2 12
M  V30 12 2 12 13
M  V30 13 1 13 14
M  V30 14 1 14 15
M  V30 15 1 15 16
M  V30 16 1 16 17
M  V30 17 1 17 18
M  V30 18 1 18 19
M  V30 19 1 19 20
M  V30 20 1 20 21
M  V30 21 1 21 22
M  V30 22 1 22 23
M  V30 23 2 23 24
M  V30 24 1 24 25
M  V30 25 2 25 26
M  V30 26 1 26 27
M  V30 27 2 27 28
M  V30 28 1 27 29
M  V30 29 1 29 30
M  V30 30 1 30 31
M  V30 31 2 14 32
M  V30 32 1 32 33
M  V30 33 2 33 34
M  V30 34 1 34 35
M  V30 35 1 11 6
M  V30 36 1 34 12
M  V30 37 1 20 15
M  V30 38 1 28 23
M  V30 39 1 31 26
M  V30 40 1 3 36
M  V30 41 1 4 37
M  V30 42 1 4 38
M  V30 43 1 5 39
M  V30 44 1 5 40
M  V30 45 1 7 41
M  V30 46 1 8 42
M  V30 47 1 9 43
M  V30 48 1 10 44
M  V30 49 1 11 45
M  V30 50 1 13 46
M  V30 51 1 15 47 CFG=3
M  V30 52 1 16 48
M  V30 53 1 16 49
M  V30 54 1 17 50
M  V30 55 1 17 51
M  V30 56 1 18 52
M  V30 57 1 19 53
M  V30 58 1 19 54
M  V30 59 1 20 55 CFG=1
M  V30 60 1 21 56
M  V30 61 1 21 57
M  V30 62 1 24 58
M  V30 63 1 25 59
M  V30 64 1 28 60
M  V30 65 1 30 61
M  V30 66 1 30 62
M  V30 67 1 32 63
M  V30 68 1 33 64
M  V30 END BOND
M  V30 END CTAB
M  END
>  <Dataset>  (661) 
ChEMBL_Kinases

>  <Ligand_Instance>  (661) 
nan

>  <PDB_ID>  (661) 
nan

>  <Standardized_SMILES>  (661) 
O=C(NCCc1ccccc1)c1cc([C@@H]2CCNC[C@H]2COc2ccc3c(c2)OCO3)ccc1F

>  <Name>  (661) 
nan

>  <Pocket>  (661) 
nan

>  <ATP_Site>  (661) 
nan

>  <Peripheral>  (661) 
nan

>  <Num_H_Atoms_ProtBoundConf>  (661) 
nan

>  <Num_Resolved_Atoms>  (661) 
nan

>  <Num_Not_Resolved_Atoms>  (661) 
nan

$$$$
CHEMBL4073611
     RDKit          3D

  0  0  0  0  0  0  0  0  0  0999 V3000
M  V30 BEGIN CTAB
M  V30 COUNTS 36 39 0 0 0
M  V30 BEGIN ATOM
M  V30 1 C -0.246962 -5.961826 1.666583 0
M  V30 2 S 0.227495 -4.591374 2.724590 0
M  V30 3 C 0.156051 -3.016071 1.977500 0
M  V30 4 S 1.551478 -2.230244 1.071275 0
M  V30 5 C 0.728372 -0.786703 0.669252 0
M  V30 6 C 1.362844 0.291835 -0.096751 0
M  V30 7 O 0.827328 1.400816 -0.441689 0
M  V30 8 N 2.695007 0.189971 -0.543180 0
M  V30 9 C 3.101621 1.366406 -1.272328 0
M  V30 10 C 2.986769 1.584676 -2.629884 0
M  V30 11 C 3.445339 2.797586 -3.129040 0
M  V30 12 C 3.992851 3.725695 -2.248143 0
M  V30 13 C 4.093848 3.477116 -0.893524 0
M  V30 14 N 3.638239 2.280143 -0.420585 0
M  V30 15 C -0.551713 -0.880033 1.192213 0
M  V30 16 C -0.813645 -2.042737 1.860948 0
M  V30 17 C -2.168431 -2.248873 2.465514 0
M  V30 18 S -2.905503 -3.486411 3.347936 0
M  V30 19 N -4.556128 -2.638438 3.544413 0
M  V30 20 C -4.276557 -1.396019 2.829629 0
M  V30 21 C -3.057299 -1.197756 2.278974 0
M  V30 22 C -2.861282 0.067081 1.582714 0
M  V30 23 C -1.522844 0.215780 1.010231 0
M  V30 24 H -1.324510 -6.191529 1.887266 0
M  V30 25 H 0.303670 -6.862606 2.046192 0
M  V30 26 H -0.081133 -5.784118 0.602843 0
M  V30 27 H 3.244323 -0.688957 -0.316286 0
M  V30 28 H 2.543882 0.775230 -3.175749 0
M  V30 29 H 3.339243 2.932126 -4.192493 0
M  V30 30 H 4.342883 4.663311 -2.662664 0
M  V30 31 H 4.530308 4.242196 -0.262947 0
M  V30 32 H -5.249506 -0.961377 2.977543 0
M  V30 33 H -3.099215 0.980354 2.214748 0
M  V30 34 H -3.589819 0.175144 0.728865 0
M  V30 35 H -1.546032 0.537055 -0.084772 0
M  V30 36 H -1.047305 1.135677 1.485791 0
M  V30 END ATOM
M  V30 BEGIN BOND
M  V30 1 1 1 2
M  V30 2 1 2 3
M  V30 3 1 3 4
M  V30 4 1 4 5
M  V30 5 1 5 6
M  V30 6 2 6 7
M  V30 7 1 6 8
M  V30 8 1 8 9
M  V30 9 2 9 10
M  V30 10 1 10 11
M  V30 11 2 11 12
M  V30 12 1 12 13
M  V30 13 2 13 14
M  V30 14 2 5 15
M  V30 15 1 15 16
M  V30 16 1 16 17
M  V30 17 1 17 18
M  V30 18 1 18 19
M  V30 19 2 19 20
M  V30 20 1 20 21
M  V30 21 1 21 22
M  V30 22 1 22 23
M  V30 23 2 16 3
M  V30 24 2 21 17
M  V30 25 1 14 9
M  V30 26 1 23 15
M  V30 27 1 1 24
M  V30 28 1 1 25
M  V30 29 1 1 26
M  V30 30 1 8 27
M  V30 31 1 10 28
M  V30 32 1 11 29
M  V30 33 1 12 30
M  V30 34 1 13 31
M  V30 35 1 20 32
M  V30 36 1 22 33
M  V30 37 1 22 34
M  V30 38 1 23 35
M  V30 39 1 23 36
M  V30 END BOND
M  V30 END CTAB
M  END
>  <Dataset>  (662) 
ChEMBL_Kinases

>  <Ligand_Instance>  (662) 
nan

>  <PDB_ID>  (662) 
nan

>  <Standardized_SMILES>  (662) 
CSc1sc(C(=O)Nc2ccccn2)c2c1-c1sncc1CC2

>  <Name>  (662) 
nan

>  <Pocket>  (662) 
nan

>  <ATP_Site>  (662) 
nan

>  <Peripheral>  (662) 
nan

>  <Num_H_Atoms_ProtBoundConf>  (662) 
nan

>  <Num_Resolved_Atoms>  (662) 
nan

>  <Num_Not_Resolved_Atoms>  (662) 
nan

$$$$
CHEMBL407391
     RDKit          3D

  0  0  0  0  0  0  0  0  0  0999 V3000
M  V30 BEGIN CTAB
M  V30 COUNTS 21 22 0 0 0
M  V30 BEGIN ATOM
M  V30 1 C 1.279400 1.394656 2.677537 0
M  V30 2 N 0.910051 0.123874 2.109712 0
M  V30 3 C 0.339983 -0.899108 2.980870 0
M  V30 4 C 0.983585 -0.390586 0.793502 0
M  V30 5 N 1.707520 -1.496270 0.497566 0
M  V30 6 C 1.783729 -1.997084 -0.763090 0
M  V30 7 N 1.139753 -1.420702 -1.802137 0
M  V30 8 C 0.409386 -0.327969 -1.576418 0
M  V30 9 N -0.339857 0.478049 -2.352192 0
M  V30 10 C -0.868381 1.455509 -1.591659 0
M  V30 11 N -0.462435 1.283964 -0.323258 0
M  V30 12 C 0.335736 0.176547 -0.292462 0
M  V30 13 H 1.710670 1.201480 3.684799 0
M  V30 14 H 2.008321 1.968686 2.105483 0
M  V30 15 H 0.329574 1.955059 2.873725 0
M  V30 16 H 0.963428 -1.829443 2.943306 0
M  V30 17 H -0.674822 -1.094893 2.607725 0
M  V30 18 H 0.358418 -0.557945 4.042251 0
M  V30 19 H 2.368423 -2.881962 -0.976116 0
M  V30 20 H -1.513367 2.240746 -1.967185 0
M  V30 21 H -0.721274 1.902555 0.496597 0
M  V30 END ATOM
M  V30 BEGIN BOND
M  V30 1 1 1 2
M  V30 2 1 2 3
M  V30 3 1 2 4
M  V30 4 2 4 5
M  V30 5 1 5 6
M  V30 6 2 6 7
M  V30 7 1 7 8
M  V30 8 1 8 9
M  V30 9 2 9 10
M  V30 10 1 10 11
M  V30 11 1 11 12
M  V30 12 1 12 4
M  V30 13 2 12 8
M  V30 14 1 1 13
M  V30 15 1 1 14
M  V30 16 1 1 15
M  V30 17 1 3 16
M  V30 18 1 3 17
M  V30 19 1 3 18
M  V30 20 1 6 19
M  V30 21 1 10 20
M  V30 22 1 11 21
M  V30 END BOND
M  V30 END CTAB
M  END
>  <Dataset>  (663) 
ChEMBL_Kinases

>  <Ligand_Instance>  (663) 
nan

>  <PDB_ID>  (663) 
nan

>  <Standardized_SMILES>  (663) 
CN(C)c1ncnc2nc[nH]c12

>  <Name>  (663) 
DIMETHYLADENINE

>  <Pocket>  (663) 
nan

>  <ATP_Site>  (663) 
nan

>  <Peripheral>  (663) 
nan

>  <Num_H_Atoms_ProtBoundConf>  (663) 
nan

>  <Num_Resolved_Atoms>  (663) 
nan

>  <Num_Not_Resolved_Atoms>  (663) 
nan

$$$$
CHEMBL4856992
     RDKit          3D

  0  0  0  0  0  0  0  0  0  0999 V3000
M  V30 BEGIN CTAB
M  V30 COUNTS 54 57 0 0 0
M  V30 BEGIN ATOM
M  V30 1 C 3.711005 -6.087091 -0.015958 0
M  V30 2 O 2.844143 -4.984893 0.078813 0
M  V30 3 C 3.253571 -3.680449 -0.179507 0
M  V30 4 C 4.554062 -3.406590 -0.547264 0
M  V30 5 C 4.985030 -2.123750 -0.808619 0
M  V30 6 N 6.213059 -1.743116 -1.170212 0
M  V30 7 C 6.493659 -0.447508 -1.394331 0
M  V30 8 N 5.548316 0.530991 -1.264819 0
M  V30 9 C 4.273569 0.210021 -0.898142 0
M  V30 10 O 3.567491 1.352982 -0.849668 0
M  V30 11 C 2.303238 1.718338 -0.565639 0
M  V30 12 C 1.877389 2.060645 0.726126 0
M  V30 13 C 0.608629 2.446309 1.107979 0
M  V30 14 C -0.329178 2.494653 0.096310 0
M  V30 15 N -1.645700 2.894659 0.495520 0
M  V30 16 C -2.472190 1.829379 0.877324 0
M  V30 17 O -1.946323 0.691607 0.814733 0
M  V30 18 N -3.816036 1.931468 1.315990 0
M  V30 19 C -4.719231 0.924421 1.717539 0
M  V30 20 C -5.984094 1.298383 2.104612 0
M  V30 21 C -6.920702 0.376293 2.508966 0
M  V30 22 C -6.645536 -0.973440 2.549312 0
M  V30 23 C -5.384356 -1.379489 2.166619 0
M  V30 24 C -5.033806 -2.823696 2.190974 0
M  V30 25 F -5.799018 -3.492653 3.115282 0
M  V30 26 F -5.112844 -3.382583 0.929667 0
M  V30 27 F -3.691405 -2.953439 2.572450 0
M  V30 28 C -4.479824 -0.422780 1.769605 0
M  V30 29 C -0.030522 2.180784 -1.213365 0
M  V30 30 C 1.264920 1.805080 -1.504484 0
M  V30 31 C 4.045606 -1.128169 -0.682629 0
M  V30 32 C 2.741582 -1.369636 -0.317757 0
M  V30 33 C 2.331837 -2.648206 -0.062369 0
M  V30 34 O 1.036182 -2.984078 0.311401 0
M  V30 35 C -0.001776 -2.066857 0.472071 0
M  V30 36 H 4.419023 -6.039608 -0.863844 0
M  V30 37 H 3.076405 -6.997045 -0.221298 0
M  V30 38 H 4.230951 -6.279918 0.962903 0
M  V30 39 H 5.298298 -4.189118 -0.647800 0
M  V30 40 H 7.530547 -0.307888 -1.678390 0
M  V30 41 H 2.666256 2.004378 1.492081 0
M  V30 42 H 0.438797 2.679080 2.149360 0
M  V30 43 H -2.051768 3.871288 0.533558 0
M  V30 44 H -4.118759 2.929964 1.318044 0
M  V30 45 H -6.252923 2.347186 2.091713 0
M  V30 46 H -7.892517 0.749072 2.797975 0
M  V30 47 H -7.379978 -1.700441 2.866801 0
M  V30 48 H -3.518106 -0.801432 1.484478 0
M  V30 49 H -0.780274 2.226625 -1.982954 0
M  V30 50 H 1.500918 1.555717 -2.546425 0
M  V30 51 H 1.991521 -0.633571 -0.210333 0
M  V30 52 H -0.952701 -2.630003 0.243751 0
M  V30 53 H -0.022652 -1.655662 1.497879 0
M  V30 54 H 0.067171 -1.299668 -0.325330 0
M  V30 END ATOM
M  V30 BEGIN BOND
M  V30 1 1 1 2
M  V30 2 1 2 3
M  V30 3 2 3 4
M  V30 4 1 4 5
M  V30 5 2 5 6
M  V30 6 1 6 7
M  V30 7 2 7 8
M  V30 8 1 8 9
M  V30 9 1 9 10
M  V30 10 1 10 11
M  V30 11 2 11 12
M  V30 12 1 12 13
M  V30 13 2 13 14
M  V30 14 1 14 15
M  V30 15 1 15 16
M  V30 16 2 16 17
M  V30 17 1 16 18
M  V30 18 1 18 19
M  V30 19 2 19 20
M  V30 20 1 20 21
M  V30 21 2 21 22
M  V30 22 1 22 23
M  V30 23 1 23 24
M  V30 24 1 24 25
M  V30 25 1 24 26
M  V30 26 1 24 27
M  V30 27 2 23 28
M  V30 28 1 14 29
M  V30 29 2 29 30
M  V30 30 2 9 31
M  V30 31 1 31 32
M  V30 32 2 32 33
M  V30 33 1 33 34
M  V30 34 1 34 35
M  V30 35 1 33 3
M  V30 36 1 31 5
M  V30 37 1 30 11
M  V30 38 1 28 19
M  V30 39 1 1 36
M  V30 40 1 1 37
M  V30 41 1 1 38
M  V30 42 1 4 39
M  V30 43 1 7 40
M  V30 44 1 12 41
M  V30 45 1 13 42
M  V30 46 1 15 43
M  V30 47 1 18 44
M  V30 48 1 20 45
M  V30 49 1 21 46
M  V30 50 1 22 47
M  V30 51 1 28 48
M  V30 52 1 29 49
M  V30 53 1 30 50
M  V30 54 1 32 51
M  V30 55 1 35 52
M  V30 56 1 35 53
M  V30 57 1 35 54
M  V30 END BOND
M  V30 END CTAB
M  END
>  <Dataset>  (664) 
ChEMBL_Kinases

>  <Ligand_Instance>  (664) 
nan

>  <PDB_ID>  (664) 
nan

>  <Standardized_SMILES>  (664) 
COc1cc2ncnc(Oc3ccc(NC(=O)Nc4cccc(C(F)(F)F)c4)cc3)c2cc1OC

>  <Name>  (664) 
nan

>  <Pocket>  (664) 
nan

>  <ATP_Site>  (664) 
nan

>  <Peripheral>  (664) 
nan

>  <Num_H_Atoms_ProtBoundConf>  (664) 
nan

>  <Num_Resolved_Atoms>  (664) 
nan

>  <Num_Not_Resolved_Atoms>  (664) 
nan

$$$$
CHEMBL4075195
     RDKit          3D

  0  0  0  0  0  0  0  0  0  0999 V3000
M  V30 BEGIN CTAB
M  V30 COUNTS 55 59 0 0 0
M  V30 BEGIN ATOM
M  V30 1 C 1.866886 -2.086568 5.436745 0
M  V30 2 C 2.400048 -2.536752 4.095543 0
M  V30 3 C 1.900203 -3.950340 3.852593 0
M  V30 4 O 2.034986 -1.675889 3.054545 0
M  V30 5 C 2.895925 -0.967552 2.239625 0
M  V30 6 C 4.262837 -0.930258 2.244339 0
M  V30 7 C 4.991267 -0.168186 1.360534 0
M  V30 8 C 4.332158 0.598223 0.421586 0
M  V30 9 N 4.781888 1.425584 -0.549919 0
M  V30 10 N 3.715956 1.929025 -1.189290 0
M  V30 11 C 2.587292 1.420416 -0.622782 0
M  V30 12 C 1.244194 1.766127 -1.082809 0
M  V30 13 C 0.896141 3.076431 -1.351907 0
M  V30 14 C -0.362894 3.469917 -1.792122 0
M  V30 15 N -1.302331 2.498337 -1.965389 0
M  V30 16 C -1.021998 1.209177 -1.720040 0
M  V30 17 N -2.013781 0.208299 -1.905645 0
M  V30 18 C -3.346032 0.509684 -2.357697 0
M  V30 19 C -4.359137 -0.126100 -1.430227 0
M  V30 20 C -4.152303 -1.611294 -1.288307 0
M  V30 21 N -4.195285 -1.986124 0.110367 0
M  V30 22 C -3.643110 -3.025451 0.759809 0
M  V30 23 N -3.951338 -2.976933 2.087282 0
M  V30 24 N -4.710048 -1.886317 2.267721 0
M  V30 25 C -4.845909 -1.304727 1.071859 0
M  V30 26 C -2.875173 -2.072821 -1.954886 0
M  V30 27 C -1.711870 -1.182684 -1.639596 0
M  V30 28 C 0.235040 0.844943 -1.284037 0
M  V30 29 C 2.954298 0.572938 0.402137 0
M  V30 30 C 2.221753 -0.191847 1.289044 0
M  V30 31 H 2.604509 -1.471501 6.000867 0
M  V30 32 H 0.898457 -1.548803 5.343199 0
M  V30 33 H 1.684757 -2.986180 6.063471 0
M  V30 34 H 3.500191 -2.595121 4.207181 0
M  V30 35 H 1.813360 -4.443084 4.843636 0
M  V30 36 H 0.867128 -3.956890 3.412647 0
M  V30 37 H 2.608214 -4.483540 3.195273 0
M  V30 38 H 4.726468 -1.534734 2.982897 0
M  V30 39 H 6.068726 -0.192330 1.428299 0
M  V30 40 H 5.787778 1.641903 -0.771953 0
M  V30 41 H 1.602600 3.884242 -1.231076 0
M  V30 42 H -0.600551 4.507599 -1.993446 0
M  V30 43 H -3.573666 1.603948 -2.347786 0
M  V30 44 H -3.462402 0.119938 -3.396996 0
M  V30 45 H -5.366622 0.078598 -1.832783 0
M  V30 46 H -4.255098 0.351182 -0.454420 0
M  V30 47 H -4.977671 -2.145142 -1.802320 0
M  V30 48 H -3.041329 -3.789024 0.293907 0
M  V30 49 H -5.435434 -0.399323 1.026341 0
M  V30 50 H -2.998473 -2.176635 -3.054523 0
M  V30 51 H -2.641069 -3.088420 -1.576662 0
M  V30 52 H -1.408226 -1.346393 -0.582268 0
M  V30 53 H -0.875632 -1.476065 -2.308418 0
M  V30 54 H 0.439707 -0.198754 -1.092822 0
M  V30 55 H 1.149697 -0.145667 1.195926 0
M  V30 END ATOM
M  V30 BEGIN BOND
M  V30 1 1 1 2
M  V30 2 1 2 3
M  V30 3 1 2 4
M  V30 4 1 4 5
M  V30 5 2 5 6
M  V30 6 1 6 7
M  V30 7 2 7 8
M  V30 8 1 8 9
M  V30 9 1 9 10
M  V30 10 2 10 11
M  V30 11 1 11 12
M  V30 12 2 12 13
M  V30 13 1 13 14
M  V30 14 2 14 15
M  V30 15 1 15 16
M  V30 16 1 16 17
M  V30 17 1 17 18
M  V30 18 1 18 19
M  V30 19 1 19 20
M  V30 20 1 20 21
M  V30 21 1 21 22
M  V30 22 2 22 23
M  V30 23 1 23 24
M  V30 24 2 24 25
M  V30 25 1 20 26
M  V30 26 1 26 27
M  V30 27 2 16 28
M  V30 28 1 11 29
M  V30 29 2 29 30
M  V30 30 1 30 5
M  V30 31 1 29 8
M  V30 32 1 28 12
M  V30 33 1 27 17
M  V30 34 1 25 21
M  V30 35 1 1 31
M  V30 36 1 1 32
M  V30 37 1 1 33
M  V30 38 1 2 34
M  V30 39 1 3 35
M  V30 40 1 3 36
M  V30 41 1 3 37
M  V30 42 1 6 38
M  V30 43 1 7 39
M  V30 44 1 9 40
M  V30 45 1 13 41
M  V30 46 1 14 42
M  V30 47 1 18 43
M  V30 48 1 18 44
M  V30 49 1 19 45
M  V30 50 1 19 46
M  V30 51 1 20 47
M  V30 52 1 22 48
M  V30 53 1 25 49
M  V30 54 1 26 50
M  V30 55 1 26 51
M  V30 56 1 27 52
M  V30 57 1 27 53
M  V30 58 1 28 54
M  V30 59 1 30 55
M  V30 END BOND
M  V30 END CTAB
M  END
>  <Dataset>  (665) 
ChEMBL_Kinases

>  <Ligand_Instance>  (665) 
nan

>  <PDB_ID>  (665) 
nan

>  <Standardized_SMILES>  (665) 
CC(C)Oc1ccc2[nH]nc(-c3ccnc(N4CCC(n5cnnc5)CC4)c3)c2c1

>  <Name>  (665) 
nan

>  <Pocket>  (665) 
nan

>  <ATP_Site>  (665) 
nan

>  <Peripheral>  (665) 
nan

>  <Num_H_Atoms_ProtBoundConf>  (665) 
nan

>  <Num_Resolved_Atoms>  (665) 
nan

>  <Num_Not_Resolved_Atoms>  (665) 
nan

$$$$
CHEMBL4857030
     RDKit          3D

  0  0  0  0  0  0  0  0  0  0999 V3000
M  V30 BEGIN CTAB
M  V30 COUNTS 52 56 0 0 0
M  V30 BEGIN ATOM
M  V30 1 C 3.603623 -3.362750 7.141733 0
M  V30 2 O 2.774529 -4.144257 6.267496 0
M  V30 3 C 2.517583 -3.672893 4.986977 0
M  V30 4 C 3.008408 -2.483515 4.475236 0
M  V30 5 C 2.690510 -2.097091 3.169733 0
M  V30 6 C 1.874091 -2.929733 2.399670 0
M  V30 7 C 1.571397 -2.469483 1.028703 0
M  V30 8 C 1.496650 -1.088142 0.854295 0
M  V30 9 C 1.214837 -0.645597 -0.421705 0
M  V30 10 C 1.008177 -1.471235 -1.505453 0
M  V30 11 C 0.735995 -0.923705 -2.740815 0
M  V30 12 N 0.645757 0.473726 -2.984077 0
M  V30 13 C -0.177385 1.544443 -2.530884 0
M  V30 14 C 0.119750 2.836149 -2.912659 0
M  V30 15 C -0.756928 3.777250 -2.417152 0
M  V30 16 N -1.822450 3.551973 -1.633204 0
M  V30 17 C -2.115145 2.297976 -1.259700 0
M  V30 18 C -3.276528 2.110026 -0.414750 0
M  V30 19 C -4.006866 3.233286 -0.051059 0
M  V30 20 C -5.129924 3.184693 0.747496 0
M  V30 21 F -5.812911 4.282151 1.081003 0
M  V30 22 C -5.590527 1.989402 1.233539 0
M  V30 23 C -4.898044 0.847014 0.899436 0
M  V30 24 C -3.783442 0.941864 0.100462 0
M  V30 25 F -3.161952 -0.200657 -0.183551 0
M  V30 26 C -1.273606 1.320648 -1.725454 0
M  V30 27 C 0.547131 -1.832059 -3.778962 0
M  V30 28 C 0.629671 -3.192338 -3.569017 0
M  V30 29 N 0.899164 -3.632649 -2.328753 0
M  V30 30 C 1.092336 -2.827478 -1.284745 0
M  V30 31 C 1.373111 -3.360993 -0.025919 0
M  V30 32 C 1.390410 -4.112511 2.919001 0
M  V30 33 C 1.703640 -4.497196 4.210831 0
M  V30 34 H 4.610391 -3.256396 6.664011 0
M  V30 35 H 3.739236 -3.906339 8.100493 0
M  V30 36 H 3.175981 -2.339355 7.282731 0
M  V30 37 H 3.631599 -1.878499 5.106020 0
M  V30 38 H 3.114701 -1.167542 2.864986 0
M  V30 39 H 1.649942 -0.405636 1.669645 0
M  V30 40 H 1.168926 0.428324 -0.528464 0
M  V30 41 H 1.402663 0.667860 -3.670458 0
M  V30 42 H 0.950100 3.079769 -3.532549 0
M  V30 43 H -0.570894 4.828942 -2.688592 0
M  V30 44 H -3.734412 4.242194 -0.379265 0
M  V30 45 H -6.457460 1.941282 1.851480 0
M  V30 46 H -5.241645 -0.106304 1.270004 0
M  V30 47 H -1.449304 0.305662 -1.466258 0
M  V30 48 H 0.331922 -1.403209 -4.760156 0
M  V30 49 H 0.474174 -3.859009 -4.411822 0
M  V30 50 H 1.440099 -4.418395 0.153018 0
M  V30 51 H 0.770031 -4.657850 2.210139 0
M  V30 52 H 1.267230 -5.438361 4.500973 0
M  V30 END ATOM
M  V30 BEGIN BOND
M  V30 1 1 1 2
M  V30 2 1 2 3
M  V30 3 2 3 4
M  V30 4 1 4 5
M  V30 5 2 5 6
M  V30 6 1 6 7
M  V30 7 2 7 8
M  V30 8 1 8 9
M  V30 9 2 9 10
M  V30 10 1 10 11
M  V30 11 1 11 12
M  V30 12 1 12 13
M  V30 13 2 13 14
M  V30 14 1 14 15
M  V30 15 2 15 16
M  V30 16 1 16 17
M  V30 17 1 17 18
M  V30 18 2 18 19
M  V30 19 1 19 20
M  V30 20 1 20 21
M  V30 21 2 20 22
M  V30 22 1 22 23
M  V30 23 2 23 24
M  V30 24 1 24 25
M  V30 25 2 17 26
M  V30 26 2 11 27
M  V30 27 1 27 28
M  V30 28 2 28 29
M  V30 29 1 29 30
M  V30 30 2 30 31
M  V30 31 1 6 32
M  V30 32 2 32 33
M  V30 33 1 33 3
M  V30 34 1 31 7
M  V30 35 1 30 10
M  V30 36 1 26 13
M  V30 37 1 24 18
M  V30 38 1 1 34
M  V30 39 1 1 35
M  V30 40 1 1 36
M  V30 41 1 4 37
M  V30 42 1 5 38
M  V30 43 1 8 39
M  V30 44 1 9 40
M  V30 45 1 12 41
M  V30 46 1 14 42
M  V30 47 1 15 43
M  V30 48 1 19 44
M  V30 49 1 22 45
M  V30 50 1 23 46
M  V30 51 1 26 47
M  V30 52 1 27 48
M  V30 53 1 28 49
M  V30 54 1 31 50
M  V30 55 1 32 51
M  V30 56 1 33 52
M  V30 END BOND
M  V30 END CTAB
M  END
>  <Dataset>  (666) 
ChEMBL_Kinases

>  <Ligand_Instance>  (666) 
nan

>  <PDB_ID>  (666) 
nan

>  <Standardized_SMILES>  (666) 
COc1ccc(-c2ccc3c(Nc4ccnc(-c5cc(F)ccc5F)c4)ccnc3c2)cc1

>  <Name>  (666) 
nan

>  <Pocket>  (666) 
nan

>  <ATP_Site>  (666) 
nan

>  <Peripheral>  (666) 
nan

>  <Num_H_Atoms_ProtBoundConf>  (666) 
nan

>  <Num_Resolved_Atoms>  (666) 
nan

>  <Num_Not_Resolved_Atoms>  (666) 
nan

$$$$
CHEMBL4075081
     RDKit          3D

  0  0  0  0  0  0  0  0  0  0999 V3000
M  V30 BEGIN CTAB
M  V30 COUNTS 45 48 0 0 0
M  V30 BEGIN ATOM
M  V30 1 C -2.101570 0.480623 3.529001 0
M  V30 2 C -0.636682 0.458106 3.813193 0
M  V30 3 N 0.135700 0.823045 2.645919 0
M  V30 4 C 1.512304 0.860075 2.709503 0
M  V30 5 O 1.536500 0.538024 3.954884 0
M  V30 6 N 2.727428 1.076134 2.086716 0
M  V30 7 N 3.734459 1.103291 2.973075 0
M  V30 8 C 4.885834 1.371500 2.290517 0
M  V30 9 C 4.600433 1.512617 0.954866 0
M  V30 10 N 5.300780 1.782709 -0.160647 0
M  V30 11 C 4.685532 1.861767 -1.375047 0
M  V30 12 C 3.315106 1.653079 -1.435102 0
M  V30 13 C 2.615039 1.376605 -0.285839 0
M  V30 14 N 1.251830 1.120775 -0.523175 0
M  V30 15 C 0.961426 -0.282827 -0.296032 0
M  V30 16 C 1.882923 -1.242187 0.053102 0
M  V30 17 C 1.535136 -2.560620 0.248630 0
M  V30 18 N 0.258070 -2.949458 0.099177 0
M  V30 19 C -0.710535 -2.079352 -0.241152 0
M  V30 20 C -2.090019 -2.538105 -0.395476 0
M  V30 21 C -3.168123 -1.750254 -0.738872 0
M  V30 22 C -4.445704 -2.254261 -0.866721 0
M  V30 23 F -5.443879 -1.398646 -1.209137 0
M  V30 24 C -4.692434 -3.606365 -0.647841 0
M  V30 25 C -3.634888 -4.416121 -0.303782 0
M  V30 26 C -2.377835 -3.870961 -0.187549 0
M  V30 27 F -1.390172 -4.746721 0.156980 0
M  V30 28 C -0.331010 -0.769105 -0.429336 0
M  V30 29 C 3.256478 1.313409 0.905240 0
M  V30 30 H -2.553248 -0.542133 3.573201 0
M  V30 31 H -2.331533 0.898526 2.526930 0
M  V30 32 H -2.686729 1.080174 4.261182 0
M  V30 33 H -0.449605 1.139805 4.688886 0
M  V30 34 H -0.357353 -0.573445 4.131002 0
M  V30 35 H -0.136551 1.126686 1.700511 0
M  V30 36 H 5.862287 1.457228 2.746274 0
M  V30 37 H 5.372721 2.089247 -2.189356 0
M  V30 38 H 2.891210 1.725865 -2.406207 0
M  V30 39 H 0.455084 1.719036 -0.815945 0
M  V30 40 H 2.915021 -0.957109 0.173735 0
M  V30 41 H 2.307650 -3.269402 0.522931 0
M  V30 42 H -2.989386 -0.705460 -0.910050 0
M  V30 43 H -5.718385 -3.920931 -0.768026 0
M  V30 44 H -3.838404 -5.468079 -0.135527 0
M  V30 45 H -1.086068 -0.039786 -0.704493 0
M  V30 END ATOM
M  V30 BEGIN BOND
M  V30 1 1 1 2
M  V30 2 1 2 3
M  V30 3 1 3 4
M  V30 4 2 4 5
M  V30 5 1 4 6
M  V30 6 1 6 7
M  V30 7 2 7 8
M  V30 8 1 8 9
M  V30 9 2 9 10
M  V30 10 1 10 11
M  V30 11 2 11 12
M  V30 12 1 12 13
M  V30 13 1 13 14
M  V30 14 1 14 15
M  V30 15 2 15 16
M  V30 16 1 16 17
M  V30 17 2 17 18
M  V30 18 1 18 19
M  V30 19 1 19 20
M  V30 20 2 20 21
M  V30 21 1 21 22
M  V30 22 1 22 23
M  V30 23 2 22 24
M  V30 24 1 24 25
M  V30 25 2 25 26
M  V30 26 1 26 27
M  V30 27 2 19 28
M  V30 28 2 13 29
M  V30 29 1 29 6
M  V30 30 1 29 9
M  V30 31 1 28 15
M  V30 32 1 26 20
M  V30 33 1 1 30
M  V30 34 1 1 31
M  V30 35 1 1 32
M  V30 36 1 2 33
M  V30 37 1 2 34
M  V30 38 1 3 35
M  V30 39 1 8 36
M  V30 40 1 11 37
M  V30 41 1 12 38
M  V30 42 1 14 39
M  V30 43 1 16 40
M  V30 44 1 17 41
M  V30 45 1 21 42
M  V30 46 1 24 43
M  V30 47 1 25 44
M  V30 48 1 28 45
M  V30 END BOND
M  V30 END CTAB
M  END
>  <Dataset>  (667) 
ChEMBL_Kinases

>  <Ligand_Instance>  (667) 
nan

>  <PDB_ID>  (667) 
nan

>  <Standardized_SMILES>  (667) 
CCNC(=O)n1ncc2nccc(Nc3ccnc(-c4cc(F)ccc4F)c3)c21

>  <Name>  (667) 
nan

>  <Pocket>  (667) 
nan

>  <ATP_Site>  (667) 
nan

>  <Peripheral>  (667) 
nan

>  <Num_H_Atoms_ProtBoundConf>  (667) 
nan

>  <Num_Resolved_Atoms>  (667) 
nan

>  <Num_Not_Resolved_Atoms>  (667) 
nan

$$$$
CHEMBL4857053
     RDKit          3D

  0  0  0  0  0  0  0  0  0  0999 V3000
M  V30 BEGIN CTAB
M  V30 COUNTS 44 46 0 0 0
M  V30 BEGIN ATOM
M  V30 1 C 2.865134 -4.250421 2.110285 0
M  V30 2 O 2.505677 -2.916031 2.205227 0
M  V30 3 C 2.491201 -2.213687 3.439902 0
M  V30 4 N 2.694732 -2.245719 4.759364 0
M  V30 5 N 2.429194 -1.031785 5.261135 0
M  V30 6 C 2.666377 -1.121923 6.686175 0
M  V30 7 C 2.070449 -0.349937 4.122739 0
M  V30 8 C 2.084646 -1.080364 2.832910 0
M  V30 9 C 1.634170 0.175398 2.160355 0
M  V30 10 O 1.692498 -0.582399 1.129785 0
M  V30 11 N 1.241796 1.512354 2.031742 0
M  V30 12 C 0.958079 1.793610 0.644309 0
M  V30 13 C 1.941283 2.253833 -0.211005 0
M  V30 14 C 1.519292 2.477458 -1.504213 0
M  V30 15 C 0.204911 2.237439 -1.841203 0
M  V30 16 C -0.761605 1.777244 -0.971318 0
M  V30 17 C -2.142586 1.523303 -1.326697 0
M  V30 18 N -3.202966 2.315667 -1.386660 0
M  V30 19 N -4.249563 1.603738 -1.767660 0
M  V30 20 C -3.855146 0.345863 -1.952883 0
M  V30 21 N -2.544020 0.289603 -1.679738 0
M  V30 22 C -1.753220 -0.924924 -1.770991 0
M  V30 23 C -1.038406 -0.912269 -3.092782 0
M  V30 24 C -2.600558 -2.163816 -1.581311 0
M  V30 25 F -3.176486 -2.078383 -0.318546 0
M  V30 26 F -3.503873 -2.377354 -2.581509 0
M  V30 27 F -1.693282 -3.227817 -1.474068 0
M  V30 28 N -0.301221 1.575673 0.273349 0
M  V30 29 H 3.267855 -4.456306 1.090268 0
M  V30 30 H 3.690691 -4.548895 2.812612 0
M  V30 31 H 1.979904 -4.899437 2.279340 0
M  V30 32 H 1.945776 -1.784452 7.177344 0
M  V30 33 H 3.724062 -1.303804 6.923609 0
M  V30 34 H 2.454064 -0.080203 7.074860 0
M  V30 35 H 1.893123 0.604002 4.726718 0
M  V30 36 H 1.322029 1.760955 3.041635 0
M  V30 37 H 2.941590 2.411221 0.144803 0
M  V30 38 H 2.249184 2.838661 -2.216465 0
M  V30 39 H -0.077431 2.428776 -2.866857 0
M  V30 40 H -4.570244 -0.374040 -2.263344 0
M  V30 41 H -0.999246 -0.975130 -0.936033 0
M  V30 42 H 0.022982 -1.219444 -2.998907 0
M  V30 43 H -1.041025 0.107000 -3.519869 0
M  V30 44 H -1.581935 -1.584076 -3.788821 0
M  V30 END ATOM
M  V30 BEGIN BOND
M  V30 1 1 1 2
M  V30 2 1 2 3
M  V30 3 2 3 4
M  V30 4 1 4 5
M  V30 5 1 5 6
M  V30 6 1 5 7
M  V30 7 2 7 8
M  V30 8 1 8 9
M  V30 9 2 9 10
M  V30 10 1 9 11
M  V30 11 1 11 12
M  V30 12 2 12 13
M  V30 13 1 13 14
M  V30 14 2 14 15
M  V30 15 1 15 16
M  V30 16 1 16 17
M  V30 17 2 17 18
M  V30 18 1 18 19
M  V30 19 2 19 20
M  V30 20 1 20 21
M  V30 21 1 21 22
M  V30 22 1 22 23
M  V30 23 1 22 24
M  V30 24 1 24 25
M  V30 25 1 24 26
M  V30 26 1 24 27
M  V30 27 2 16 28
M  V30 28 1 8 3
M  V30 29 1 28 12
M  V30 30 1 21 17
M  V30 31 1 1 29
M  V30 32 1 1 30
M  V30 33 1 1 31
M  V30 34 1 6 32
M  V30 35 1 6 33
M  V30 36 1 6 34
M  V30 37 1 7 35
M  V30 38 1 11 36
M  V30 39 1 13 37
M  V30 40 1 14 38
M  V30 41 1 15 39
M  V30 42 1 20 40
M  V30 43 1 22 41
M  V30 44 1 23 42
M  V30 45 1 23 43
M  V30 46 1 23 44
M  V30 END BOND
M  V30 END CTAB
M  END
>  <Dataset>  (668) 
ChEMBL_Kinases

>  <Ligand_Instance>  (668) 
nan

>  <PDB_ID>  (668) 
nan

>  <Standardized_SMILES>  (668) 
COc1nn(C)cc1C(=O)Nc1cccc(-c2nncn2C(C)C(F)(F)F)n1

>  <Name>  (668) 
nan

>  <Pocket>  (668) 
nan

>  <ATP_Site>  (668) 
nan

>  <Peripheral>  (668) 
nan

>  <Num_H_Atoms_ProtBoundConf>  (668) 
nan

>  <Num_Resolved_Atoms>  (668) 
nan

>  <Num_Not_Resolved_Atoms>  (668) 
nan

$$$$
CHEMBL4075036
     RDKit          3D

  0  0  0  0  0  0  0  0  0  0999 V3000
M  V30 BEGIN CTAB
M  V30 COUNTS 79 83 0 0 0
M  V30 BEGIN ATOM
M  V30 1 C -0.557332 2.132024 -3.437815 0
M  V30 2 C -0.193854 0.945247 -4.226091 0
M  V30 3 C 0.329267 1.099052 -5.488230 0
M  V30 4 C 0.674399 -0.032477 -6.235012 0
M  V30 5 C 0.500944 -1.302403 -5.731288 0
M  V30 6 C 0.867055 -2.464774 -6.516661 0
M  V30 7 O 1.222780 -2.185934 -7.713265 0
M  V30 8 N 0.872983 -3.798494 -6.117389 0
M  V30 9 C 1.216455 -4.973061 -6.830497 0
M  V30 10 C 1.562966 -5.054747 -8.153276 0
M  V30 11 C 1.900124 -6.234553 -8.767042 0
M  V30 12 C 1.910234 -7.423919 -8.077914 0
M  V30 13 Cl 2.349496 -8.888828 -8.926396 0
M  V30 14 C 1.556149 -7.339960 -6.727691 0
M  V30 15 C 1.579451 -8.625246 -5.997816 0
M  V30 16 F 2.844408 -9.193097 -6.013690 0
M  V30 17 F 1.250103 -8.381839 -4.680683 0
M  V30 18 F 0.627607 -9.521074 -6.484168 0
M  V30 19 C 1.218829 -6.154222 -6.117655 0
M  V30 20 C -0.024467 -1.406449 -4.469594 0
M  V30 21 C -0.382666 -0.330357 -3.687312 0
M  V30 22 N -0.939527 -0.458179 -2.382552 0
M  V30 23 C 0.178336 -0.567825 -1.508315 0
M  V30 24 O 1.264573 -0.520484 -2.177911 0
M  V30 25 C 0.114954 -0.720964 -0.007925 0
M  V30 26 C -1.185545 -0.700321 0.658406 0
M  V30 27 C -1.438820 0.016508 1.814103 0
M  V30 28 C -2.666810 0.083445 2.474379 0
M  V30 29 N -2.636523 0.884822 3.644183 0
M  V30 30 C -2.728508 0.159283 4.879434 0
M  V30 31 C -2.541144 1.186024 6.015405 0
M  V30 32 C -1.208660 1.832807 5.925302 0
M  V30 33 N -0.858840 2.801108 6.895915 0
M  V30 34 C 0.481032 3.224346 6.626182 0
M  V30 35 C 0.741596 4.686572 6.765797 0
M  V30 36 N -0.276087 5.404372 6.053718 0
M  V30 37 C -0.249210 5.208003 4.639884 0
M  V30 38 C -1.524118 5.183607 6.699878 0
M  V30 39 C -1.806321 3.812981 7.192529 0
M  V30 40 N -3.662974 -0.625041 1.904711 0
M  V30 41 C -3.466325 -1.335374 0.785875 0
M  V30 42 N -2.257358 -1.366058 0.186703 0
M  V30 43 C 1.092430 -1.809169 0.550579 0
M  V30 44 C 1.382412 -0.358115 0.725302 0
M  V30 45 H -1.367172 1.901733 -2.713269 0
M  V30 46 H -0.982219 2.912337 -4.109878 0
M  V30 47 H 0.274909 2.555800 -2.831793 0
M  V30 48 H 0.491812 2.085970 -5.947292 0
M  V30 49 H 1.085522 0.154759 -7.233180 0
M  V30 50 H 0.560713 -3.861761 -5.122049 0
M  V30 51 H 1.575231 -4.164535 -8.754504 0
M  V30 52 H 2.171489 -6.248855 -9.835110 0
M  V30 53 H 0.961376 -6.228792 -5.048278 0
M  V30 54 H -0.199181 -2.367547 -3.985886 0
M  V30 55 H -1.890962 -0.485735 -1.958047 0
M  V30 56 H -0.560919 0.553292 2.186890 0
M  V30 57 H -2.550980 1.905631 3.474062 0
M  V30 58 H -3.708941 -0.348629 5.037427 0
M  V30 59 H -1.955707 -0.635399 4.923827 0
M  V30 60 H -3.397548 1.861609 5.901025 0
M  V30 61 H -2.638205 0.599649 6.952350 0
M  V30 62 H -1.089487 2.230387 4.876366 0
M  V30 63 H -0.411173 1.030865 5.973515 0
M  V30 64 H 0.861632 2.843712 5.636651 0
M  V30 65 H 1.131127 2.693195 7.381817 0
M  V30 66 H 0.755567 4.999358 7.820053 0
M  V30 67 H 1.715502 4.891299 6.277323 0
M  V30 68 H 0.314064 6.057909 4.188952 0
M  V30 69 H 0.177962 4.249226 4.317715 0
M  V30 70 H -1.311473 5.200217 4.274634 0
M  V30 71 H -2.321820 5.494366 5.965197 0
M  V30 72 H -1.606760 5.939113 7.529021 0
M  V30 73 H -1.836110 3.878893 8.329321 0
M  V30 74 H -2.854807 3.540632 6.865242 0
M  V30 75 H -4.321249 -1.872461 0.398884 0
M  V30 76 H 1.587552 -2.420385 -0.229946 0
M  V30 77 H 0.730699 -2.413719 1.399234 0
M  V30 78 H 1.330712 -0.013319 1.772843 0
M  V30 79 H 2.212751 0.079516 0.130840 0
M  V30 END ATOM
M  V30 BEGIN BOND
M  V30 1 1 1 2
M  V30 2 2 2 3
M  V30 3 1 3 4
M  V30 4 2 4 5
M  V30 5 1 5 6
M  V30 6 2 6 7
M  V30 7 1 6 8
M  V30 8 1 8 9
M  V30 9 2 9 10
M  V30 10 1 10 11
M  V30 11 2 11 12
M  V30 12 1 12 13
M  V30 13 1 12 14
M  V30 14 1 14 15
M  V30 15 1 15 16
M  V30 16 1 15 17
M  V30 17 1 15 18
M  V30 18 2 14 19
M  V30 19 1 5 20
M  V30 20 2 20 21
M  V30 21 1 21 22
M  V30 22 1 22 23
M  V30 23 2 23 24
M  V30 24 1 23 25
M  V30 25 1 25 26
M  V30 26 2 26 27
M  V30 27 1 27 28
M  V30 28 1 28 29
M  V30 29 1 29 30
M  V30 30 1 30 31
M  V30 31 1 31 32
M  V30 32 1 32 33
M  V30 33 1 33 34
M  V30 34 1 34 35
M  V30 35 1 35 36
M  V30 36 1 36 37
M  V30 37 1 36 38
M  V30 38 1 38 39
M  V30 39 2 28 40
M  V30 40 1 40 41
M  V30 41 2 41 42
M  V30 42 1 25 43
M  V30 43 1 43 44
M  V30 44 1 21 2
M  V30 45 1 44 25
M  V30 46 1 19 9
M  V30 47 1 42 26
M  V30 48 1 39 33
M  V30 49 1 1 45
M  V30 50 1 1 46
M  V30 51 1 1 47
M  V30 52 1 3 48
M  V30 53 1 4 49
M  V30 54 1 8 50
M  V30 55 1 10 51
M  V30 56 1 11 52
M  V30 57 1 19 53
M  V30 58 1 20 54
M  V30 59 1 22 55
M  V30 60 1 27 56
M  V30 61 1 29 57
M  V30 62 1 30 58
M  V30 63 1 30 59
M  V30 64 1 31 60
M  V30 65 1 31 61
M  V30 66 1 32 62
M  V30 67 1 32 63
M  V30 68 1 34 64
M  V30 69 1 34 65
M  V30 70 1 35 66
M  V30 71 1 35 67
M  V30 72 1 37 68
M  V30 73 1 37 69
M  V30 74 1 37 70
M  V30 75 1 38 71
M  V30 76 1 38 72
M  V30 77 1 39 73
M  V30 78 1 39 74
M  V30 79 1 41 75
M  V30 80 1 43 76
M  V30 81 1 43 77
M  V30 82 1 44 78
M  V30 83 1 44 79
M  V30 END BOND
M  V30 END CTAB
M  END
>  <Dataset>  (669) 
ChEMBL_Kinases

>  <Ligand_Instance>  (669) 
nan

>  <PDB_ID>  (669) 
nan

>  <Standardized_SMILES>  (669) 
Cc1ccc(C(=O)Nc2ccc(Cl)c(C(F)(F)F)c2)cc1NC(=O)C1(c2cc(NCCCN3CCN(C)CC3)ncn2)CC1

>  <Name>  (669) 
nan

>  <Pocket>  (669) 
nan

>  <ATP_Site>  (669) 
nan

>  <Peripheral>  (669) 
nan

>  <Num_H_Atoms_ProtBoundConf>  (669) 
nan

>  <Num_Resolved_Atoms>  (669) 
nan

>  <Num_Not_Resolved_Atoms>  (669) 
nan

$$$$
CHEMBL4075023
     RDKit          3D

  0  0  0  0  0  0  0  0  0  0999 V3000
M  V30 BEGIN CTAB
M  V30 COUNTS 48 50 0 0 0
M  V30 BEGIN ATOM
M  V30 1 C -2.121995 -2.034877 4.572753 0
M  V30 2 N -0.951759 -2.764822 4.149181 0
M  V30 3 C -0.732587 -3.576446 3.009833 0
M  V30 4 C -0.084098 -3.122552 1.879894 0
M  V30 5 C 0.123939 -3.904271 0.768170 0
M  V30 6 O 0.763989 -3.518528 -0.397808 0
M  V30 7 C 1.216358 -2.257888 -0.692343 0
M  V30 8 C 2.306694 -1.413726 -0.482305 0
M  V30 9 C 2.281039 -0.156461 -1.026935 0
M  V30 10 C 1.267682 0.361404 -1.771766 0
M  V30 11 N 1.457163 1.663291 -2.234551 0
M  V30 12 C 1.483693 2.979754 -1.756311 0
M  V30 13 S 1.748846 4.209488 -2.787561 0
M  V30 14 N 1.297804 3.358474 -0.404426 0
M  V30 15 C 1.068061 2.428864 0.679843 0
M  V30 16 C 1.932981 1.981371 1.653925 0
M  V30 17 C 1.479163 1.083201 2.607453 0
M  V30 18 C 0.169067 0.677086 2.525953 0
M  V30 19 C -0.737147 1.118185 1.537582 0
M  V30 20 C -2.143375 0.621912 1.519663 0
M  V30 21 F -2.896367 1.164678 2.547201 0
M  V30 22 F -2.179308 -0.759723 1.517775 0
M  V30 23 F -2.681518 1.028602 0.287851 0
M  V30 24 C -0.243744 2.024744 0.596218 0
M  V30 25 C 0.139969 -0.429245 -2.022738 0
M  V30 26 C -0.965346 0.150673 -2.832393 0
M  V30 27 C 0.169500 -1.716459 -1.465672 0
M  V30 28 N -0.345011 -5.190684 0.819239 0
M  V30 29 C -0.977773 -5.645007 1.908476 0
M  V30 30 N -1.156209 -4.838414 2.968623 0
M  V30 31 H -3.015112 -2.588156 4.239513 0
M  V30 32 H -2.131872 -0.993898 4.189345 0
M  V30 33 H -2.101988 -1.970283 5.686282 0
M  V30 34 H -0.108048 -2.692504 4.753468 0
M  V30 35 H 0.312719 -2.101775 1.825809 0
M  V30 36 H 2.984504 -1.994636 0.124565 0
M  V30 37 H 3.189250 0.396076 -0.791046 0
M  V30 38 H 1.633971 1.451671 -3.248987 0
M  V30 39 H 1.271309 4.286426 0.023597 0
M  V30 40 H 2.928290 2.414303 1.554684 0
M  V30 41 H 2.184652 0.752918 3.354810 0
M  V30 42 H -0.152073 -0.023301 3.275386 0
M  V30 43 H -0.999775 2.316661 -0.134731 0
M  V30 44 H -1.543122 0.933790 -2.294789 0
M  V30 45 H -0.585129 0.639040 -3.773227 0
M  V30 46 H -1.665928 -0.669613 -3.126709 0
M  V30 47 H -0.795930 -2.179672 -1.771379 0
M  V30 48 H -1.351402 -6.666884 1.933315 0
M  V30 END ATOM
M  V30 BEGIN BOND
M  V30 1 1 1 2
M  V30 2 1 2 3
M  V30 3 2 3 4
M  V30 4 1 4 5
M  V30 5 1 5 6
M  V30 6 1 6 7
M  V30 7 2 7 8
M  V30 8 1 8 9
M  V30 9 2 9 10
M  V30 10 1 10 11
M  V30 11 1 11 12
M  V30 12 2 12 13
M  V30 13 1 12 14
M  V30 14 1 14 15
M  V30 15 2 15 16
M  V30 16 1 16 17
M  V30 17 2 17 18
M  V30 18 1 18 19
M  V30 19 1 19 20
M  V30 20 1 20 21
M  V30 21 1 20 22
M  V30 22 1 20 23
M  V30 23 2 19 24
M  V30 24 1 10 25
M  V30 25 1 25 26
M  V30 26 2 25 27
M  V30 27 2 5 28
M  V30 28 1 28 29
M  V30 29 2 29 30
M  V30 30 1 30 3
M  V30 31 1 27 7
M  V30 32 1 24 15
M  V30 33 1 1 31
M  V30 34 1 1 32
M  V30 35 1 1 33
M  V30 36 1 2 34
M  V30 37 1 4 35
M  V30 38 1 8 36
M  V30 39 1 9 37
M  V30 40 1 11 38
M  V30 41 1 14 39
M  V30 42 1 16 40
M  V30 43 1 17 41
M  V30 44 1 18 42
M  V30 45 1 24 43
M  V30 46 1 26 44
M  V30 47 1 26 45
M  V30 48 1 26 46
M  V30 49 1 27 47
M  V30 50 1 29 48
M  V30 END BOND
M  V30 END CTAB
M  END
>  <Dataset>  (670) 
ChEMBL_Kinases

>  <Ligand_Instance>  (670) 
nan

>  <PDB_ID>  (670) 
nan

>  <Standardized_SMILES>  (670) 
CNc1cc(Oc2ccc(NC(=S)Nc3cccc(C(F)(F)F)c3)c(C)c2)ncn1

>  <Name>  (670) 
nan

>  <Pocket>  (670) 
nan

>  <ATP_Site>  (670) 
nan

>  <Peripheral>  (670) 
nan

>  <Num_H_Atoms_ProtBoundConf>  (670) 
nan

>  <Num_Resolved_Atoms>  (670) 
nan

>  <Num_Not_Resolved_Atoms>  (670) 
nan

$$$$
CHEMBL4075003
     RDKit          3D

  0  0  0  0  0  0  0  0  0  0999 V3000
M  V30 BEGIN CTAB
M  V30 COUNTS 48 51 0 0 0
M  V30 BEGIN ATOM
M  V30 1 C -0.280305 -7.140406 0.292588 0
M  V30 2 C 0.207330 -5.835901 0.797704 0
M  V30 3 C 0.919440 -5.839028 1.977468 0
M  V30 4 C 1.376103 -4.629175 2.453244 0
M  V30 5 C 1.101493 -3.490240 1.734684 0
M  V30 6 F 1.575836 -2.338077 2.253074 0
M  V30 7 C 0.398613 -3.436016 0.558366 0
M  V30 8 C 0.079875 -2.272174 -0.239019 0
M  V30 9 C 0.405831 -0.967848 -0.001520 0
M  V30 10 C 0.068851 0.094151 -0.805523 0
M  V30 11 N 0.464838 1.438228 -0.461415 0
M  V30 12 C 1.140667 2.111922 0.557745 0
M  V30 13 C 2.378302 2.592380 0.084923 0
M  V30 14 C 3.282776 3.301855 0.876862 0
M  V30 15 N 2.923058 3.520050 2.147222 0
M  V30 16 C 1.765235 3.098835 2.670284 0
M  V30 17 C 1.101132 3.168642 3.874817 0
M  V30 18 N -0.071474 2.547980 3.736748 0
M  V30 19 N -0.236336 2.061927 2.504933 0
M  V30 20 C -1.470417 1.404679 2.166428 0
M  V30 21 C -2.480247 2.451380 1.732681 0
M  V30 22 N -3.325523 3.047607 2.699945 0
M  V30 23 O -2.594435 2.811997 0.532247 0
M  V30 24 C 0.891755 2.403834 1.872299 0
M  V30 25 C -0.652809 -0.135456 -1.947214 0
M  V30 26 C -1.040284 0.977518 -2.846801 0
M  V30 27 C -0.978409 -1.449738 -2.181808 0
M  V30 28 N -0.627142 -2.459776 -1.366183 0
M  V30 29 C -0.039161 -4.667017 0.118765 0
M  V30 30 H -0.569671 -7.828374 1.118899 0
M  V30 31 H -1.152850 -6.993971 -0.374164 0
M  V30 32 H 0.490960 -7.640554 -0.362010 0
M  V30 33 H 1.142128 -6.726663 2.551836 0
M  V30 34 H 1.938432 -4.591558 3.375575 0
M  V30 35 H 0.964892 -0.729137 0.868840 0
M  V30 36 H 0.158790 2.175796 -1.173866 0
M  V30 37 H 2.768545 2.468246 -0.939122 0
M  V30 38 H 4.229230 3.670072 0.519994 0
M  V30 39 H 1.503212 3.657996 4.764063 0
M  V30 40 H -1.403406 0.732321 1.325242 0
M  V30 41 H -1.856238 0.886208 3.076654 0
M  V30 42 H -3.901848 3.528820 3.423403 0
M  V30 43 H -4.209470 2.508482 2.715924 0
M  V30 44 H -0.190578 1.646919 -3.112406 0
M  V30 45 H -1.878552 1.554637 -2.384499 0
M  V30 46 H -1.415115 0.595900 -3.818449 0
M  V30 47 H -1.552342 -1.674619 -3.079984 0
M  V30 48 H -0.606685 -4.779865 -0.794747 0
M  V30 END ATOM
M  V30 BEGIN BOND
M  V30 1 1 1 2
M  V30 2 2 2 3
M  V30 3 1 3 4
M  V30 4 2 4 5
M  V30 5 1 5 6
M  V30 6 1 5 7
M  V30 7 1 7 8
M  V30 8 2 8 9
M  V30 9 1 9 10
M  V30 10 1 10 11
M  V30 11 1 11 12
M  V30 12 2 12 13
M  V30 13 1 13 14
M  V30 14 2 14 15
M  V30 15 1 15 16
M  V30 16 1 16 17
M  V30 17 2 17 18
M  V30 18 1 18 19
M  V30 19 1 19 20
M  V30 20 1 20 21
M  V30 21 1 21 22
M  V30 22 2 21 23
M  V30 23 1 19 24
M  V30 24 2 10 25
M  V30 25 1 25 26
M  V30 26 1 25 27
M  V30 27 2 27 28
M  V30 28 2 7 29
M  V30 29 1 29 2
M  V30 30 1 28 8
M  V30 31 1 24 12
M  V30 32 2 24 16
M  V30 33 1 1 30
M  V30 34 1 1 31
M  V30 35 1 1 32
M  V30 36 1 3 33
M  V30 37 1 4 34
M  V30 38 1 9 35
M  V30 39 1 11 36
M  V30 40 1 13 37
M  V30 41 1 14 38
M  V30 42 1 17 39
M  V30 43 1 20 40
M  V30 44 1 20 41
M  V30 45 1 22 42
M  V30 46 1 22 43
M  V30 47 1 26 44
M  V30 48 1 26 45
M  V30 49 1 26 46
M  V30 50 1 27 47
M  V30 51 1 29 48
M  V30 END BOND
M  V30 END CTAB
M  END
>  <Dataset>  (671) 
ChEMBL_Kinases

>  <Ligand_Instance>  (671) 
nan

>  <PDB_ID>  (671) 
nan

>  <Standardized_SMILES>  (671) 
Cc1ccc(F)c(-c2cc(Nc3ccnc4cnn(CC(N)=O)c34)c(C)cn2)c1

>  <Name>  (671) 
nan

>  <Pocket>  (671) 
nan

>  <ATP_Site>  (671) 
nan

>  <Peripheral>  (671) 
nan

>  <Num_H_Atoms_ProtBoundConf>  (671) 
nan

>  <Num_Resolved_Atoms>  (671) 
nan

>  <Num_Not_Resolved_Atoms>  (671) 
nan

$$$$
CHEMBL4074938
     RDKit          3D

  0  0  0  0  0  0  0  0  0  0999 V3000
M  V30 BEGIN CTAB
M  V30 COUNTS 32 34 0 0 0
M  V30 BEGIN ATOM
M  V30 1 O -1.991187 -1.946649 5.391000 0
M  V30 2 C -1.193149 -1.867265 4.405094 0
M  V30 3 N 0.112944 -1.687605 4.540725 0
M  V30 4 N 0.612799 -1.654817 3.327515 0
M  V30 5 C -0.380830 -1.813798 2.439947 0
M  V30 6 C -0.335999 -1.847532 1.041001 0
M  V30 7 N 0.878350 -1.716516 0.338365 0
M  V30 8 C 1.155432 -1.710388 -1.080684 0
M  V30 9 C 0.602631 -0.520888 -1.812225 0
M  V30 10 C 1.198260 0.723442 -1.235906 0
M  V30 11 C 2.345930 1.334664 -1.647576 0
M  V30 12 C 2.787685 2.489019 -1.022934 0
M  V30 13 N 2.103083 3.041341 0.003892 0
M  V30 14 C 0.965151 2.470207 0.441809 0
M  V30 15 C 0.523488 1.310131 -0.187784 0
M  V30 16 C -1.566167 -2.030368 0.445647 0
M  V30 17 C -2.754014 -2.170628 1.130734 0
M  V30 18 Cl -4.289458 -2.400671 0.308909 0
M  V30 19 C -2.712761 -2.125677 2.510741 0
M  V30 20 N -1.526412 -1.948944 3.110097 0
M  V30 21 H 0.746669 -1.579411 5.346248 0
M  V30 22 H 1.740217 -1.601633 0.947888 0
M  V30 23 H 2.226553 -1.797034 -1.288680 0
M  V30 24 H 0.657940 -2.640187 -1.504102 0
M  V30 25 H -0.490674 -0.448981 -1.820182 0
M  V30 26 H 0.940856 -0.613769 -2.870772 0
M  V30 27 H 2.873781 0.861577 -2.479533 0
M  V30 28 H 3.693385 2.957870 -1.359325 0
M  V30 29 H 0.465641 2.954273 1.260081 0
M  V30 30 H -0.406349 0.949235 0.260183 0
M  V30 31 H -1.657889 -2.080620 -0.609152 0
M  V30 32 H -3.628017 -2.232674 3.076350 0
M  V30 END ATOM
M  V30 BEGIN BOND
M  V30 1 2 1 2
M  V30 2 1 2 3
M  V30 3 1 3 4
M  V30 4 2 4 5
M  V30 5 1 5 6
M  V30 6 1 6 7
M  V30 7 1 7 8
M  V30 8 1 8 9
M  V30 9 1 9 10
M  V30 10 2 10 11
M  V30 11 1 11 12
M  V30 12 2 12 13
M  V30 13 1 13 14
M  V30 14 2 14 15
M  V30 15 2 6 16
M  V30 16 1 16 17
M  V30 17 1 17 18
M  V30 18 2 17 19
M  V30 19 1 19 20
M  V30 20 1 20 2
M  V30 21 1 20 5
M  V30 22 1 15 10
M  V30 23 1 3 21
M  V30 24 1 7 22
M  V30 25 1 8 23
M  V30 26 1 8 24
M  V30 27 1 9 25
M  V30 28 1 9 26
M  V30 29 1 11 27
M  V30 30 1 12 28
M  V30 31 1 14 29
M  V30 32 1 15 30
M  V30 33 1 16 31
M  V30 34 1 19 32
M  V30 END BOND
M  V30 END CTAB
M  END
>  <Dataset>  (672) 
ChEMBL_Kinases

>  <Ligand_Instance>  (672) 
nan

>  <PDB_ID>  (672) 
nan

>  <Standardized_SMILES>  (672) 
O=c1[nH]nc2c(NCCc3ccncc3)cc(Cl)cn12

>  <Name>  (672) 
nan

>  <Pocket>  (672) 
nan

>  <ATP_Site>  (672) 
nan

>  <Peripheral>  (672) 
nan

>  <Num_H_Atoms_ProtBoundConf>  (672) 
nan

>  <Num_Resolved_Atoms>  (672) 
nan

>  <Num_Not_Resolved_Atoms>  (672) 
nan

$$$$
CHEMBL4074871
     RDKit          3D

  0  0  0  0  0  0  0  0  0  0999 V3000
M  V30 BEGIN CTAB
M  V30 COUNTS 57 60 0 0 0
M  V30 BEGIN ATOM
M  V30 1 C -0.358533 -0.584164 5.557281 0
M  V30 2 N 0.768868 -0.920707 4.710127 0
M  V30 3 C 1.806149 -0.083744 4.505396 0
M  V30 4 C 2.737802 -0.649554 3.662560 0
M  V30 5 C 4.019385 -0.375268 3.042596 0
M  V30 6 C 5.037284 -1.328238 3.077530 0
M  V30 7 C 6.288731 -1.139527 2.552185 0
M  V30 8 N 6.511762 0.063318 1.970187 0
M  V30 9 C 5.497306 0.976523 1.949992 0
M  V30 10 C 4.192643 0.854617 2.465559 0
M  V30 11 C 3.359687 2.014315 2.232289 0
M  V30 12 C 2.475428 2.016913 1.022724 0
M  V30 13 C 1.469871 0.966643 0.962395 0
M  V30 14 O 0.760519 -0.033884 1.229249 0
M  V30 15 N 0.749990 1.223860 -0.278895 0
M  V30 16 C -0.344842 0.355527 -0.668210 0
M  V30 17 C -1.542347 0.822000 -0.171124 0
M  V30 18 C -2.693273 0.086145 -0.454186 0
M  V30 19 C -2.607766 -1.076392 -1.215132 0
M  V30 20 C -3.749672 -1.922745 -1.561780 0
M  V30 21 N -4.363615 -1.541862 -2.793532 0
M  V30 22 C -3.483265 -1.603147 -3.928015 0
M  V30 23 C -3.261759 -3.000997 -4.447740 0
M  V30 24 O -3.708618 -3.975576 -3.584705 0
M  V30 25 C -5.022550 -3.844487 -3.183996 0
M  V30 26 C -5.496106 -2.407954 -3.110002 0
M  V30 27 C -1.360619 -1.492654 -1.688564 0
M  V30 28 C -0.199193 -0.769285 -1.415256 0
M  V30 29 C 2.185173 -1.907631 3.365852 0
M  V30 30 N 1.014085 -2.017170 4.014605 0
M  V30 31 H -0.691561 0.467317 5.440541 0
M  V30 32 H -1.234109 -1.200968 5.210969 0
M  V30 33 H -0.117794 -0.816475 6.622713 0
M  V30 34 H 2.019552 0.901332 4.878607 0
M  V30 35 H 4.762877 -2.274595 3.570133 0
M  V30 36 H 6.958786 -1.975472 2.662607 0
M  V30 37 H 5.859006 1.885476 1.441827 0
M  V30 38 H 2.676353 2.256738 3.090832 0
M  V30 39 H 4.013515 2.928318 2.155034 0
M  V30 40 H 3.111144 2.034993 0.099316 0
M  V30 41 H 2.004178 3.051523 1.014241 0
M  V30 42 H 0.735923 1.906716 -1.107225 0
M  V30 43 H -1.701907 1.708796 0.424478 0
M  V30 44 H -3.680399 0.396990 -0.092287 0
M  V30 45 H -4.514202 -1.806440 -0.745747 0
M  V30 46 H -3.428028 -2.981707 -1.496624 0
M  V30 47 H -2.543115 -1.024936 -3.798612 0
M  V30 48 H -4.031624 -1.067570 -4.758280 0
M  V30 49 H -3.734338 -3.195560 -5.430674 0
M  V30 50 H -2.156138 -3.160078 -4.552897 0
M  V30 51 H -5.095447 -4.253745 -2.152754 0
M  V30 52 H -5.717368 -4.435877 -3.839029 0
M  V30 53 H -6.290162 -2.262721 -2.359425 0
M  V30 54 H -5.858134 -2.099123 -4.111914 0
M  V30 55 H -1.253902 -2.406783 -2.294067 0
M  V30 56 H 0.781242 -1.037912 -1.749305 0
M  V30 57 H 2.505140 -2.756863 2.749244 0
M  V30 END ATOM
M  V30 BEGIN BOND
M  V30 1 1 1 2
M  V30 2 1 2 3
M  V30 3 2 3 4
M  V30 4 1 4 5
M  V30 5 2 5 6
M  V30 6 1 6 7
M  V30 7 2 7 8
M  V30 8 1 8 9
M  V30 9 2 9 10
M  V30 10 1 10 11
M  V30 11 1 11 12
M  V30 12 1 12 13
M  V30 13 2 13 14
M  V30 14 1 13 15
M  V30 15 1 15 16
M  V30 16 2 16 17
M  V30 17 1 17 18
M  V30 18 2 18 19
M  V30 19 1 19 20
M  V30 20 1 20 21
M  V30 21 1 21 22
M  V30 22 1 22 23
M  V30 23 1 23 24
M  V30 24 1 24 25
M  V30 25 1 25 26
M  V30 26 1 19 27
M  V30 27 2 27 28
M  V30 28 1 4 29
M  V30 29 2 29 30
M  V30 30 1 30 2
M  V30 31 1 10 5
M  V30 32 1 28 16
M  V30 33 1 26 21
M  V30 34 1 1 31
M  V30 35 1 1 32
M  V30 36 1 1 33
M  V30 37 1 3 34
M  V30 38 1 6 35
M  V30 39 1 7 36
M  V30 40 1 9 37
M  V30 41 1 11 38
M  V30 42 1 11 39
M  V30 43 1 12 40
M  V30 44 1 12 41
M  V30 45 1 15 42
M  V30 46 1 17 43
M  V30 47 1 18 44
M  V30 48 1 20 45
M  V30 49 1 20 46
M  V30 50 1 22 47
M  V30 51 1 22 48
M  V30 52 1 23 49
M  V30 53 1 23 50
M  V30 54 1 25 51
M  V30 55 1 25 52
M  V30 56 1 26 53
M  V30 57 1 26 54
M  V30 58 1 27 55
M  V30 59 1 28 56
M  V30 60 1 29 57
M  V30 END BOND
M  V30 END CTAB
M  END
>  <Dataset>  (673) 
ChEMBL_Kinases

>  <Ligand_Instance>  (673) 
nan

>  <PDB_ID>  (673) 
nan

>  <Standardized_SMILES>  (673) 
Cn1cc(-c2ccncc2CCC(=O)Nc2ccc(CN3CCOCC3)cc2)cn1

>  <Name>  (673) 
nan

>  <Pocket>  (673) 
nan

>  <ATP_Site>  (673) 
nan

>  <Peripheral>  (673) 
nan

>  <Num_H_Atoms_ProtBoundConf>  (673) 
nan

>  <Num_Resolved_Atoms>  (673) 
nan

>  <Num_Not_Resolved_Atoms>  (673) 
nan

$$$$
CHEMBL4074837
     RDKit          3D

  0  0  0  0  0  0  0  0  0  0999 V3000
M  V30 BEGIN CTAB
M  V30 COUNTS 48 49 0 0 0
M  V30 BEGIN ATOM
M  V30 1 C 2.032187 -4.044166 2.521247 0
M  V30 2 C 3.135972 -4.296285 1.546735 0
M  V30 3 C 3.809902 -3.016740 1.059142 0
M  V30 4 C 4.413471 -2.239419 2.162309 0
M  V30 5 C 5.083238 -0.967773 1.862554 0
M  V30 6 C 4.456226 0.273332 1.469741 0
M  V30 7 C 3.523276 0.447732 0.339023 0
M  V30 8 C 2.230588 -0.185069 0.584932 0
M  V30 9 O 1.471394 -0.818902 1.361220 0
M  V30 10 N 1.427362 -0.027249 -0.589749 0
M  V30 11 N 0.098704 -0.497673 -0.769919 0
M  V30 12 C -0.873194 0.451603 -0.364983 0
M  V30 13 O -0.337510 1.518673 0.072047 0
M  V30 14 C -2.322192 0.387900 -0.375047 0
M  V30 15 C -2.981295 1.510338 0.097156 0
M  V30 16 O -2.367499 2.648288 0.561653 0
M  V30 17 C -4.382317 1.490867 0.104508 0
M  V30 18 C -5.066050 2.593493 0.568860 0
M  V30 19 C -6.441542 2.667813 0.614840 0
M  V30 20 C -7.177241 1.578121 0.171628 0
M  V30 21 Cl -8.935682 1.695795 0.239665 0
M  V30 22 C -6.523002 0.459383 -0.299043 0
M  V30 23 C -5.145503 0.427605 -0.327522 0
M  V30 24 N -4.460931 -0.638617 -0.776702 0
M  V30 25 C -3.118725 -0.644294 -0.793842 0
M  V30 26 O -2.559503 -1.662307 -1.221618 0
M  V30 27 H 1.566203 -5.028712 2.797045 0
M  V30 28 H 2.370825 -3.615509 3.489658 0
M  V30 29 H 1.215713 -3.438849 2.122153 0
M  V30 30 H 3.876684 -4.984784 1.981798 0
M  V30 31 H 2.692359 -4.790573 0.659726 0
M  V30 32 H 4.723669 -3.452886 0.477894 0
M  V30 33 H 3.207446 -2.584193 0.310910 0
M  V30 34 H 3.622535 -2.097656 2.977792 0
M  V30 35 H 5.161041 -2.897258 2.701046 0
M  V30 36 H 5.916594 -1.221725 1.101762 0
M  V30 37 H 5.702306 -0.725672 2.827921 0
M  V30 38 H 5.255387 1.108343 1.312514 0
M  V30 39 H 3.971516 0.727134 2.434719 0
M  V30 40 H 4.019268 0.057075 -0.586630 0
M  V30 41 H 3.347696 1.537126 0.091426 0
M  V30 42 H 1.515334 0.410152 -1.558420 0
M  V30 43 H -0.285866 -1.394385 -1.137879 0
M  V30 44 H -2.534784 2.940359 1.514791 0
M  V30 45 H -4.542048 3.465713 0.924664 0
M  V30 46 H -6.944680 3.562046 0.990913 0
M  V30 47 H -7.109942 -0.381245 -0.640948 0
M  V30 48 H -4.993367 -1.474162 -1.116964 0
M  V30 END ATOM
M  V30 BEGIN BOND
M  V30 1 1 1 2
M  V30 2 1 2 3
M  V30 3 1 3 4
M  V30 4 1 4 5
M  V30 5 1 5 6
M  V30 6 1 6 7
M  V30 7 1 7 8
M  V30 8 2 8 9
M  V30 9 1 8 10
M  V30 10 1 10 11
M  V30 11 1 11 12
M  V30 12 2 12 13
M  V30 13 1 12 14
M  V30 14 2 14 15
M  V30 15 1 15 16
M  V30 16 1 15 17
M  V30 17 2 17 18
M  V30 18 1 18 19
M  V30 19 2 19 20
M  V30 20 1 20 21
M  V30 21 1 20 22
M  V30 22 2 22 23
M  V30 23 1 23 24
M  V30 24 1 24 25
M  V30 25 2 25 26
M  V30 26 1 25 14
M  V30 27 1 23 17
M  V30 28 1 1 27
M  V30 29 1 1 28
M  V30 30 1 1 29
M  V30 31 1 2 30
M  V30 32 1 2 31
M  V30 33 1 3 32
M  V30 34 1 3 33
M  V30 35 1 4 34
M  V30 36 1 4 35
M  V30 37 1 5 36
M  V30 38 1 5 37
M  V30 39 1 6 38
M  V30 40 1 6 39
M  V30 41 1 7 40
M  V30 42 1 7 41
M  V30 43 1 10 42
M  V30 44 1 11 43
M  V30 45 1 16 44
M  V30 46 1 18 45
M  V30 47 1 19 46
M  V30 48 1 22 47
M  V30 49 1 24 48
M  V30 END BOND
M  V30 END CTAB
M  END
>  <Dataset>  (674) 
ChEMBL_Kinases

>  <Ligand_Instance>  (674) 
nan

>  <PDB_ID>  (674) 
nan

>  <Standardized_SMILES>  (674) 
CCCCCCCC(=O)NNC(=O)c1c(O)c2ccc(Cl)cc2[nH]c1=O

>  <Name>  (674) 
nan

>  <Pocket>  (674) 
nan

>  <ATP_Site>  (674) 
nan

>  <Peripheral>  (674) 
nan

>  <Num_H_Atoms_ProtBoundConf>  (674) 
nan

>  <Num_Resolved_Atoms>  (674) 
nan

>  <Num_Not_Resolved_Atoms>  (674) 
nan

$$$$
CHEMBL4074204
     RDKit          3D

  0  0  0  0  0  0  0  0  0  0999 V3000
M  V30 BEGIN CTAB
M  V30 COUNTS 35 38 0 0 0
M  V30 BEGIN ATOM
M  V30 1 N -1.758814 -3.721637 2.926282 0
M  V30 2 C -0.528724 -3.355180 2.381528 0
M  V30 3 O 0.519258 -4.020827 2.418611 0
M  V30 4 C -0.541490 -2.022246 1.702056 0
M  V30 5 S 1.050907 -1.401074 0.921540 0
M  V30 6 C 0.367365 0.072584 0.364844 0
M  V30 7 O 1.104195 1.056682 -0.353405 0
M  V30 8 C 2.450968 0.697275 -0.560280 0
M  V30 9 C 2.715667 -0.009902 -1.727758 0
M  V30 10 C 4.023313 -0.381094 -1.967980 0
M  V30 11 C 4.969099 -0.009260 -1.008240 0
M  V30 12 N 6.309617 -0.411109 -1.292248 0
M  V30 13 N 4.661700 0.675041 0.105131 0
M  V30 14 C 3.397515 1.053646 0.372333 0
M  V30 15 C -0.857063 -0.015353 0.765428 0
M  V30 16 C -1.430113 -1.027192 1.450000 0
M  V30 17 C -2.805547 -1.218439 1.938997 0
M  V30 18 C -3.776178 -0.135810 1.712551 0
M  V30 19 C -3.175608 0.967652 0.955875 0
M  V30 20 C -3.943188 2.040901 0.628491 0
M  V30 21 N -3.549689 3.190263 -0.083153 0
M  V30 22 S -1.769551 2.690883 -0.353544 0
M  V30 23 C -1.867622 1.104361 0.496233 0
M  V30 24 H -2.417971 -4.304860 2.361560 0
M  V30 25 H -2.457001 -3.719460 3.700920 0
M  V30 26 H 1.904348 -0.255739 -2.421590 0
M  V30 27 H 4.289842 -0.931861 -2.857991 0
M  V30 28 H 7.297622 -0.109768 -1.282930 0
M  V30 29 H 6.580141 -1.351221 -1.663880 0
M  V30 30 H 3.103991 1.607996 1.260085 0
M  V30 31 H -3.245124 -2.178779 1.505220 0
M  V30 32 H -2.828136 -1.441313 3.043744 0
M  V30 33 H -4.267280 0.225368 2.661440 0
M  V30 34 H -4.663585 -0.580268 1.155434 0
M  V30 35 H -4.968703 2.348285 0.773983 0
M  V30 END ATOM
M  V30 BEGIN BOND
M  V30 1 1 1 2
M  V30 2 2 2 3
M  V30 3 1 2 4
M  V30 4 1 4 5
M  V30 5 1 5 6
M  V30 6 1 6 7
M  V30 7 1 7 8
M  V30 8 2 8 9
M  V30 9 1 9 10
M  V30 10 2 10 11
M  V30 11 1 11 12
M  V30 12 1 11 13
M  V30 13 2 13 14
M  V30 14 2 6 15
M  V30 15 1 15 16
M  V30 16 1 16 17
M  V30 17 1 17 18
M  V30 18 1 18 19
M  V30 19 1 19 20
M  V30 20 2 20 21
M  V30 21 1 21 22
M  V30 22 1 22 23
M  V30 23 2 16 4
M  V30 24 2 23 19
M  V30 25 1 14 8
M  V30 26 1 23 15
M  V30 27 1 1 24
M  V30 28 1 1 25
M  V30 29 1 9 26
M  V30 30 1 10 27
M  V30 31 1 12 28
M  V30 32 1 12 29
M  V30 33 1 14 30
M  V30 34 1 17 31
M  V30 35 1 17 32
M  V30 36 1 18 33
M  V30 37 1 18 34
M  V30 38 1 20 35
M  V30 END BOND
M  V30 END CTAB
M  END
>  <Dataset>  (675) 
ChEMBL_Kinases

>  <Ligand_Instance>  (675) 
nan

>  <PDB_ID>  (675) 
nan

>  <Standardized_SMILES>  (675) 
NC(=O)c1sc(Oc2ccc(N)nc2)c2c1CCc1cnsc1-2

>  <Name>  (675) 
nan

>  <Pocket>  (675) 
nan

>  <ATP_Site>  (675) 
nan

>  <Peripheral>  (675) 
nan

>  <Num_H_Atoms_ProtBoundConf>  (675) 
nan

>  <Num_Resolved_Atoms>  (675) 
nan

>  <Num_Not_Resolved_Atoms>  (675) 
nan

$$$$
CHEMBL4074778
     RDKit          3D

  0  0  0  0  0  0  0  0  0  0999 V3000
M  V30 BEGIN CTAB
M  V30 COUNTS 78 83 0 0 0
M  V30 BEGIN ATOM
M  V30 1 C 4.006501 -1.341118 4.151010 0
M  V30 2 C 4.828852 -1.633632 2.930393 0
M  V30 3 C 4.128101 -1.389015 1.688777 0 CFG=2
M  V30 4 C 4.947008 -1.746482 0.456205 0
M  V30 5 C 6.087802 -2.512037 0.392713 0
M  V30 6 C 6.954665 -3.031251 1.408610 0
M  V30 7 N 7.641747 -3.462067 2.231677 0
M  V30 8 N 6.329976 -2.748255 -0.925673 0
M  V30 9 C 5.355712 -2.131507 -1.598982 0
M  V30 10 N 4.482094 -1.494442 -0.765277 0
M  V30 11 C 3.433655 -0.578595 -1.039108 0
M  V30 12 C 3.021286 -0.477842 -2.340926 0
M  V30 13 N 1.988273 0.398172 -2.506753 0
M  V30 14 C 1.479031 1.063756 -1.428147 0
M  V30 15 N 0.381288 1.984208 -1.635593 0
M  V30 16 C -0.953810 1.500014 -1.521578 0
M  V30 17 C -1.188124 0.176515 -1.211975 0
M  V30 18 C -2.424905 -0.414423 -1.070383 0
M  V30 19 C -3.539054 0.374684 -1.251320 0
M  V30 20 C -4.911338 -0.102832 -1.133717 0
M  V30 21 O -5.944337 0.593392 -1.297258 0
M  V30 22 N -5.192009 -1.457597 -0.809289 0
M  V30 23 C -6.464883 -2.115276 -0.648259 0
M  V30 24 C -6.591552 -3.222016 -1.686464 0
M  V30 25 C -5.458424 -4.209152 -1.577996 0
M  V30 26 N -5.030153 -4.423345 -0.231148 0
M  V30 27 C -4.337728 -5.655310 -0.009925 0
M  V30 28 C -6.073632 -4.164979 0.742178 0
M  V30 29 C -6.507558 -2.725121 0.739481 0
M  V30 30 C -3.352420 1.708270 -1.563250 0
M  V30 31 C -2.092296 2.281051 -1.700658 0
M  V30 32 O -1.889548 3.616876 -2.013151 0
M  V30 33 C -2.973068 4.490992 -2.214182 0
M  V30 34 N 1.942796 0.906396 -0.189339 0
M  V30 35 C 2.932620 0.093113 0.091992 0
M  V30 36 N 3.489727 -0.138947 1.415513 0
M  V30 37 C 3.330160 1.010433 2.243658 0
M  V30 38 C 2.674927 2.224986 1.808470 0
M  V30 39 C 3.702918 2.964642 1.006141 0
M  V30 40 C 4.805136 2.976009 2.085873 0
M  V30 41 C 4.714931 1.555996 2.650960 0
M  V30 42 H 4.195167 -2.145289 4.948428 0
M  V30 43 H 4.226678 -0.417520 4.676015 0
M  V30 44 H 2.901750 -1.454882 3.995487 0
M  V30 45 H 5.801323 -1.126507 3.080504 0
M  V30 46 H 5.064416 -2.728118 2.984555 0
M  V30 47 H 3.340983 -2.234890 1.640142 0
M  V30 48 H 5.306715 -2.162275 -2.690220 0
M  V30 49 H 3.489597 -1.045021 -3.109822 0
M  V30 50 H 0.513670 3.007798 -1.869782 0
M  V30 51 H -0.317112 -0.454111 -1.067396 0
M  V30 52 H -2.548579 -1.448405 -0.828535 0
M  V30 53 H -4.442751 -2.160596 -0.643533 0
M  V30 54 H -7.296101 -1.400624 -0.816774 0
M  V30 55 H -6.573586 -2.800891 -2.699749 0
M  V30 56 H -7.542179 -3.784894 -1.551312 0
M  V30 57 H -5.828043 -5.183923 -1.961748 0
M  V30 58 H -4.573921 -3.892913 -2.178635 0
M  V30 59 H -4.728820 -6.139115 0.906190 0
M  V30 60 H -4.338319 -6.311311 -0.897365 0
M  V30 61 H -3.262658 -5.414142 0.235335 0
M  V30 62 H -6.936943 -4.818806 0.554328 0
M  V30 63 H -5.679434 -4.399605 1.749956 0
M  V30 64 H -5.873819 -2.102837 1.388582 0
M  V30 65 H -7.568139 -2.709960 1.067077 0
M  V30 66 H -4.184975 2.408521 -1.724348 0
M  V30 67 H -3.650476 4.044556 -2.944731 0
M  V30 68 H -2.561240 5.448045 -2.601396 0
M  V30 69 H -3.464594 4.616888 -1.228006 0
M  V30 70 H 2.850718 0.687612 3.191738 0
M  V30 71 H 1.647859 2.280662 1.510945 0
M  V30 72 H 2.644669 2.875923 2.776229 0
M  V30 73 H 4.161738 2.452260 0.172983 0
M  V30 74 H 3.392460 3.987879 0.728207 0
M  V30 75 H 5.769495 3.198539 1.629334 0
M  V30 76 H 4.512443 3.732722 2.845669 0
M  V30 77 H 5.535260 1.018170 2.146061 0
M  V30 78 H 4.817229 1.682329 3.734206 0
M  V30 END ATOM
M  V30 BEGIN BOND
M  V30 1 1 1 2
M  V30 2 1 2 3
M  V30 3 1 3 4
M  V30 4 2 4 5
M  V30 5 1 5 6
M  V30 6 3 6 7
M  V30 7 1 5 8
M  V30 8 2 8 9
M  V30 9 1 9 10
M  V30 10 1 10 11
M  V30 11 2 11 12
M  V30 12 1 12 13
M  V30 13 2 13 14
M  V30 14 1 14 15
M  V30 15 1 15 16
M  V30 16 2 16 17
M  V30 17 1 17 18
M  V30 18 2 18 19
M  V30 19 1 19 20
M  V30 20 2 20 21
M  V30 21 1 20 22
M  V30 22 1 22 23
M  V30 23 1 23 24
M  V30 24 1 24 25
M  V30 25 1 25 26
M  V30 26 1 26 27
M  V30 27 1 26 28
M  V30 28 1 28 29
M  V30 29 1 19 30
M  V30 30 2 30 31
M  V30 31 1 31 32
M  V30 32 1 32 33
M  V30 33 1 14 34
M  V30 34 2 34 35
M  V30 35 1 35 36
M  V30 36 1 36 37
M  V30 37 1 37 38
M  V30 38 1 38 39
M  V30 39 1 39 40
M  V30 40 1 40 41
M  V30 41 1 36 3
M  V30 42 1 41 37
M  V30 43 1 10 4
M  V30 44 1 35 11
M  V30 45 1 31 16
M  V30 46 1 29 23
M  V30 47 1 1 42
M  V30 48 1 1 43
M  V30 49 1 1 44
M  V30 50 1 2 45
M  V30 51 1 2 46
M  V30 52 1 3 47 CFG=1
M  V30 53 1 9 48
M  V30 54 1 12 49
M  V30 55 1 15 50
M  V30 56 1 17 51
M  V30 57 1 18 52
M  V30 58 1 22 53
M  V30 59 1 23 54
M  V30 60 1 24 55
M  V30 61 1 24 56
M  V30 62 1 25 57
M  V30 63 1 25 58
M  V30 64 1 27 59
M  V30 65 1 27 60
M  V30 66 1 27 61
M  V30 67 1 28 62
M  V30 68 1 28 63
M  V30 69 1 29 64
M  V30 70 1 29 65
M  V30 71 1 30 66
M  V30 72 1 33 67
M  V30 73 1 33 68
M  V30 74 1 33 69
M  V30 75 1 37 70
M  V30 76 1 38 71
M  V30 77 1 38 72
M  V30 78 1 39 73
M  V30 79 1 39 74
M  V30 80 1 40 75
M  V30 81 1 40 76
M  V30 82 1 41 77
M  V30 83 1 41 78
M  V30 END BOND
M  V30 END CTAB
M  END
>  <Dataset>  (676) 
ChEMBL_Kinases

>  <Ligand_Instance>  (676) 
nan

>  <PDB_ID>  (676) 
nan

>  <Standardized_SMILES>  (676) 
CC[C@@H]1c2c(C#N)ncn2-c2cnc(Nc3ccc(C(=O)NC4CCN(C)CC4)cc3OC)nc2N1C1CCCC1

>  <Name>  (676) 
nan

>  <Pocket>  (676) 
nan

>  <ATP_Site>  (676) 
nan

>  <Peripheral>  (676) 
nan

>  <Num_H_Atoms_ProtBoundConf>  (676) 
nan

>  <Num_Resolved_Atoms>  (676) 
nan

>  <Num_Not_Resolved_Atoms>  (676) 
nan

$$$$
CHEMBL4074685
     RDKit          3D

  0  0  0  0  0  0  0  0  0  0999 V3000
M  V30 BEGIN CTAB
M  V30 COUNTS 26 28 0 0 0
M  V30 BEGIN ATOM
M  V30 1 N -0.538968 -3.456848 3.951020 0
M  V30 2 C -0.892468 -2.670984 2.820505 0
M  V30 3 C -0.057823 -1.634502 2.421747 0
M  V30 4 C -0.418303 -0.878179 1.316708 0
M  V30 5 C 0.400113 0.227594 0.830834 0
M  V30 6 C 0.952160 1.174776 1.670237 0
M  V30 7 N 1.644278 2.053360 0.931504 0
M  V30 8 C 1.562852 1.708117 -0.383969 0
M  V30 9 C 2.067060 2.235853 -1.573334 0
M  V30 10 N 1.761824 1.595071 -2.716205 0
M  V30 11 C 1.009731 0.488954 -2.791255 0
M  V30 12 C 0.478847 -0.082910 -1.632941 0
M  V30 13 C 0.788137 0.569237 -0.458336 0
M  V30 14 C -1.595855 -1.204522 0.674174 0
M  V30 15 C -2.416334 -2.243832 1.087831 0
M  V30 16 N -2.027008 -2.951355 2.165319 0
M  V30 17 H -0.974161 -3.152926 4.849326 0
M  V30 18 H 0.036347 -4.283593 4.230100 0
M  V30 19 H 0.861432 -1.397823 2.942531 0
M  V30 20 H 0.885913 1.264039 2.746070 0
M  V30 21 H 2.193376 2.901121 1.219304 0
M  V30 22 H 2.676931 3.129501 -1.531510 0
M  V30 23 H 0.799557 0.019394 -3.742522 0
M  V30 24 H -0.120098 -0.965804 -1.704369 0
M  V30 25 H -1.962181 -0.676809 -0.193270 0
M  V30 26 H -3.339399 -2.503861 0.588647 0
M  V30 END ATOM
M  V30 BEGIN BOND
M  V30 1 1 1 2
M  V30 2 2 2 3
M  V30 3 1 3 4
M  V30 4 1 4 5
M  V30 5 2 5 6
M  V30 6 1 6 7
M  V30 7 1 7 8
M  V30 8 2 8 9
M  V30 9 1 9 10
M  V30 10 2 10 11
M  V30 11 1 11 12
M  V30 12 2 12 13
M  V30 13 2 4 14
M  V30 14 1 14 15
M  V30 15 2 15 16
M  V30 16 1 16 2
M  V30 17 1 13 5
M  V30 18 1 13 8
M  V30 19 1 1 17
M  V30 20 1 1 18
M  V30 21 1 3 19
M  V30 22 1 6 20
M  V30 23 1 7 21
M  V30 24 1 9 22
M  V30 25 1 11 23
M  V30 26 1 12 24
M  V30 27 1 14 25
M  V30 28 1 15 26
M  V30 END BOND
M  V30 END CTAB
M  END
>  <Dataset>  (677) 
ChEMBL_Kinases

>  <Ligand_Instance>  (677) 
nan

>  <PDB_ID>  (677) 
nan

>  <Standardized_SMILES>  (677) 
Nc1cc(-c2c[nH]c3cnccc23)ccn1

>  <Name>  (677) 
nan

>  <Pocket>  (677) 
nan

>  <ATP_Site>  (677) 
nan

>  <Peripheral>  (677) 
nan

>  <Num_H_Atoms_ProtBoundConf>  (677) 
nan

>  <Num_Resolved_Atoms>  (677) 
nan

>  <Num_Not_Resolved_Atoms>  (677) 
nan

$$$$
CHEMBL4074639
     RDKit          3D

  0  0  0  0  0  0  0  0  0  0999 V3000
M  V30 BEGIN CTAB
M  V30 COUNTS 56 60 0 0 0
M  V30 BEGIN ATOM
M  V30 1 N 7.739445 0.006280 4.234354 0
M  V30 2 C 7.252323 -1.260224 3.806504 0
M  V30 3 O 7.988779 -2.211232 4.094788 0
M  V30 4 C 5.986391 -1.376278 3.091601 0
M  V30 5 C 5.555984 -2.626294 2.693929 0
M  V30 6 C 4.344113 -2.723691 2.010789 0
M  V30 7 C 3.581743 -1.591703 1.733335 0
M  V30 8 C 4.047651 -0.357627 2.148848 0
M  V30 9 C 5.259831 -0.227627 2.836196 0
M  V30 10 C 3.434987 0.958787 1.978158 0
M  V30 11 O 4.180733 1.969225 2.035039 0
M  V30 12 C 2.005926 1.155627 1.745518 0
M  V30 13 C 1.660220 2.485469 1.845642 0
M  V30 14 C 0.365736 2.908324 1.666178 0
M  V30 15 C -0.644478 2.016095 1.377216 0
M  V30 16 N -1.990328 2.427735 1.205727 0
M  V30 17 C -3.124575 1.877526 0.558330 0
M  V30 18 C -4.401837 2.235937 0.925426 0
M  V30 19 C -5.506673 1.719989 0.292085 0
M  V30 20 C -5.338296 0.812088 -0.746978 0
M  V30 21 F -6.496846 0.349121 -1.321347 0
M  V30 22 C -4.069763 0.444321 -1.125412 0
M  V30 23 N -4.053547 -0.490161 -2.199788 0
M  V30 24 C -4.072154 -1.824069 -1.735167 0
M  V30 25 O -4.098936 -1.965106 -0.487221 0
M  V30 26 C -4.062465 -3.009047 -2.590821 0
M  V30 27 C -4.079198 -4.228630 -1.927192 0
M  V30 28 C -4.070853 -5.395838 -2.694830 0
M  V30 29 C -4.046448 -5.325823 -4.073941 0
M  V30 30 C -4.030310 -4.087948 -4.699382 0
M  V30 31 C -4.038151 -2.898906 -3.959436 0
M  V30 32 C -2.974170 0.978255 -0.471945 0
M  V30 33 C -0.286401 0.687126 1.279738 0
M  V30 34 C 1.010139 0.246782 1.457335 0
M  V30 35 O 1.236335 -1.115904 1.332172 0
M  V30 36 C 2.334754 -1.922432 0.997859 0
M  V30 37 H 7.149486 0.272550 5.050760 0
M  V30 38 H 8.470318 0.714820 3.992369 0
M  V30 39 H 6.165919 -3.490904 2.922269 0
M  V30 40 H 3.978716 -3.687554 1.686068 0
M  V30 41 H 5.589396 0.770277 3.146215 0
M  V30 42 H 2.421605 3.212853 2.070538 0
M  V30 43 H 0.119799 3.967936 1.750347 0
M  V30 44 H -2.186845 3.353958 1.666017 0
M  V30 45 H -4.518106 2.942902 1.734660 0
M  V30 46 H -6.479461 2.073423 0.663782 0
M  V30 47 H -4.031101 -0.323686 -3.230338 0
M  V30 48 H -4.098387 -4.358407 -0.853931 0
M  V30 49 H -4.083888 -6.366091 -2.231663 0
M  V30 50 H -4.040809 -6.252277 -4.651837 0
M  V30 51 H -4.011210 -4.042982 -5.784886 0
M  V30 52 H -4.025762 -1.947622 -4.463417 0
M  V30 53 H -2.038397 0.618968 -0.868645 0
M  V30 54 H -0.970747 -0.113391 1.071296 0
M  V30 55 H 2.040240 -2.972819 1.232384 0
M  V30 56 H 2.573078 -1.817966 -0.092450 0
M  V30 END ATOM
M  V30 BEGIN BOND
M  V30 1 1 1 2
M  V30 2 2 2 3
M  V30 3 1 2 4
M  V30 4 2 4 5
M  V30 5 1 5 6
M  V30 6 2 6 7
M  V30 7 1 7 8
M  V30 8 2 8 9
M  V30 9 1 8 10
M  V30 10 2 10 11
M  V30 11 1 10 12
M  V30 12 2 12 13
M  V30 13 1 13 14
M  V30 14 2 14 15
M  V30 15 1 15 16
M  V30 16 1 16 17
M  V30 17 2 17 18
M  V30 18 1 18 19
M  V30 19 2 19 20
M  V30 20 1 20 21
M  V30 21 1 20 22
M  V30 22 1 22 23
M  V30 23 1 23 24
M  V30 24 2 24 25
M  V30 25 1 24 26
M  V30 26 2 26 27
M  V30 27 1 27 28
M  V30 28 2 28 29
M  V30 29 1 29 30
M  V30 30 2 30 31
M  V30 31 2 22 32
M  V30 32 1 15 33
M  V30 33 2 33 34
M  V30 34 1 34 35
M  V30 35 1 35 36
M  V30 36 1 9 4
M  V30 37 1 34 12
M  V30 38 1 36 7
M  V30 39 1 32 17
M  V30 40 1 31 26
M  V30 41 1 1 37
M  V30 42 1 1 38
M  V30 43 1 5 39
M  V30 44 1 6 40
M  V30 45 1 9 41
M  V30 46 1 13 42
M  V30 47 1 14 43
M  V30 48 1 16 44
M  V30 49 1 18 45
M  V30 50 1 19 46
M  V30 51 1 23 47
M  V30 52 1 27 48
M  V30 53 1 28 49
M  V30 54 1 29 50
M  V30 55 1 30 51
M  V30 56 1 31 52
M  V30 57 1 32 53
M  V30 58 1 33 54
M  V30 59 1 36 55
M  V30 60 1 36 56
M  V30 END BOND
M  V30 END CTAB
M  END
>  <Dataset>  (678) 
ChEMBL_Kinases

>  <Ligand_Instance>  (678) 
nan

>  <PDB_ID>  (678) 
nan

>  <Standardized_SMILES>  (678) 
NC(=O)c1ccc2c(c1)C(=O)c1ccc(Nc3ccc(F)c(NC(=O)c4ccccc4)c3)cc1OC2

>  <Name>  (678) 
nan

>  <Pocket>  (678) 
nan

>  <ATP_Site>  (678) 
nan

>  <Peripheral>  (678) 
nan

>  <Num_H_Atoms_ProtBoundConf>  (678) 
nan

>  <Num_Resolved_Atoms>  (678) 
nan

>  <Num_Not_Resolved_Atoms>  (678) 
nan

$$$$
CHEMBL4074629
     RDKit          3D

  0  0  0  0  0  0  0  0  0  0999 V3000
M  V30 BEGIN CTAB
M  V30 COUNTS 41 44 0 0 0
M  V30 BEGIN ATOM
M  V30 1 O 1.820232 -2.407884 4.764629 0
M  V30 2 C 1.950766 -3.002131 3.664983 0
M  V30 3 N 2.194625 -4.275120 3.301336 0
M  V30 4 C 2.237275 -4.374291 1.955993 0
M  V30 5 N 2.462546 -5.515129 1.255906 0
M  V30 6 C 2.459207 -5.366804 -0.097250 0
M  V30 7 C 2.241979 -4.145621 -0.678678 0
M  V30 8 C 2.015001 -3.000630 0.073088 0
M  V30 9 C 2.008507 -3.098109 1.445752 0
M  V30 10 N 1.836289 -2.278062 2.522201 0
M  V30 11 C 1.582099 -0.893582 2.306209 0
M  V30 12 N 0.404631 -0.535459 1.765364 0
M  V30 13 C 0.144361 0.778543 1.552078 0
M  V30 14 N -1.080537 1.230037 0.983414 0
M  V30 15 C -1.348270 2.636343 0.760737 0
M  V30 16 C -2.322533 2.769889 -0.412387 0
M  V30 17 C -1.566315 2.298127 -1.634271 0
M  V30 18 N -1.135692 0.925344 -1.509176 0
M  V30 19 C -2.077470 0.066100 -0.846963 0
M  V30 20 C -2.001075 0.126048 0.664659 0
M  V30 21 C 1.134220 1.667911 1.916402 0
M  V30 22 C 2.345707 1.314943 2.471690 0
M  V30 23 C 2.587977 -0.041611 2.680348 0
M  V30 24 Cl 4.084806 -0.617636 3.377080 0
M  V30 25 H 2.311007 -4.974903 4.086103 0
M  V30 26 H 2.630017 -6.220687 -0.744377 0
M  V30 27 H 2.227624 -3.965019 -1.752439 0
M  V30 28 H 1.839120 -2.018093 -0.333227 0
M  V30 29 H -1.893078 2.996743 1.677549 0
M  V30 30 H -0.474737 3.236937 0.495835 0
M  V30 31 H -3.205465 2.170420 -0.174187 0
M  V30 32 H -2.563794 3.839845 -0.571437 0
M  V30 33 H -0.632381 2.927830 -1.675914 0
M  V30 34 H -2.138920 2.515226 -2.537147 0
M  V30 35 H -1.039115 0.544935 -2.496152 0
M  V30 36 H -3.105584 0.238507 -1.224574 0
M  V30 37 H -1.818835 -0.991496 -1.144355 0
M  V30 38 H -1.655363 -0.820048 1.107363 0
M  V30 39 H -3.033513 0.397165 1.023529 0
M  V30 40 H 1.022279 2.735765 1.786582 0
M  V30 41 H 3.105237 2.029608 2.748786 0
M  V30 END ATOM
M  V30 BEGIN BOND
M  V30 1 2 1 2
M  V30 2 1 2 3
M  V30 3 1 3 4
M  V30 4 2 4 5
M  V30 5 1 5 6
M  V30 6 2 6 7
M  V30 7 1 7 8
M  V30 8 2 8 9
M  V30 9 1 9 10
M  V30 10 1 10 11
M  V30 11 2 11 12
M  V30 12 1 12 13
M  V30 13 1 13 14
M  V30 14 1 14 15
M  V30 15 1 15 16
M  V30 16 1 16 17
M  V30 17 1 17 18
M  V30 18 1 18 19
M  V30 19 1 19 20
M  V30 20 2 13 21
M  V30 21 1 21 22
M  V30 22 2 22 23
M  V30 23 1 23 24
M  V30 24 1 10 2
M  V30 25 1 23 11
M  V30 26 1 9 4
M  V30 27 1 20 14
M  V30 28 1 3 25
M  V30 29 1 6 26
M  V30 30 1 7 27
M  V30 31 1 8 28
M  V30 32 1 15 29
M  V30 33 1 15 30
M  V30 34 1 16 31
M  V30 35 1 16 32
M  V30 36 1 17 33
M  V30 37 1 17 34
M  V30 38 1 18 35
M  V30 39 1 19 36
M  V30 40 1 19 37
M  V30 41 1 20 38
M  V30 42 1 20 39
M  V30 43 1 21 40
M  V30 44 1 22 41
M  V30 END BOND
M  V30 END CTAB
M  END
>  <Dataset>  (679) 
ChEMBL_Kinases

>  <Ligand_Instance>  (679) 
nan

>  <PDB_ID>  (679) 
nan

>  <Standardized_SMILES>  (679) 
O=c1[nH]c2ncccc2n1-c1nc(N2CCCNCC2)ccc1Cl

>  <Name>  (679) 
nan

>  <Pocket>  (679) 
nan

>  <ATP_Site>  (679) 
nan

>  <Peripheral>  (679) 
nan

>  <Num_H_Atoms_ProtBoundConf>  (679) 
nan

>  <Num_Resolved_Atoms>  (679) 
nan

>  <Num_Not_Resolved_Atoms>  (679) 
nan

$$$$
CHEMBL4074603
     RDKit          3D

  0  0  0  0  0  0  0  0  0  0999 V3000
M  V30 BEGIN CTAB
M  V30 COUNTS 38 40 0 0 0
M  V30 BEGIN ATOM
M  V30 1 C -0.157131 -5.945511 2.128471 0
M  V30 2 C 0.284392 -4.506862 2.366278 0
M  V30 3 C 0.779660 -4.373172 3.799331 0
M  V30 4 O -0.856679 -3.714442 2.173302 0
M  V30 5 C -0.803297 -2.625866 1.333263 0
M  V30 6 C 0.156730 -2.028610 0.543645 0
M  V30 7 C -0.151468 -0.906986 -0.189226 0
M  V30 8 C 0.946899 -0.375688 -0.991161 0
M  V30 9 C 1.117339 0.956754 -0.948351 0
M  V30 10 O 0.310843 1.824028 -0.188892 0
M  V30 11 C 0.735889 3.131804 -0.349954 0
M  V30 12 C 0.168534 4.229090 0.252107 0
M  V30 13 C 0.726642 5.477937 -0.020055 0
M  V30 14 C 1.809905 5.515723 -0.878093 0
M  V30 15 C 2.388483 4.405638 -1.491592 0
M  V30 16 C 1.814852 3.186373 -1.201946 0
M  V30 17 C 2.092523 1.814497 -1.609202 0
M  V30 18 O 2.987975 1.403598 -2.378458 0
M  V30 19 C -1.392016 -0.307075 -0.199701 0
M  V30 20 C -2.379351 -0.893254 0.590387 0
M  V30 21 C -2.074396 -2.034852 1.339473 0
M  V30 22 O -3.209952 -2.433827 2.039982 0
M  V30 23 H -0.633641 -6.023203 1.133814 0
M  V30 24 H -0.981365 -6.136410 2.876741 0
M  V30 25 H 0.650096 -6.667051 2.280967 0
M  V30 26 H 1.083682 -4.197535 1.677185 0
M  V30 27 H 0.872371 -5.376080 4.233310 0
M  V30 28 H 1.718882 -3.788479 3.761104 0
M  V30 29 H 0.047987 -3.818846 4.422579 0
M  V30 30 H 1.086003 -2.546769 0.602936 0
M  V30 31 H 1.674890 -0.863647 -1.636232 0
M  V30 32 H -0.679132 4.216045 0.924241 0
M  V30 33 H 0.344023 6.383434 0.409019 0
M  V30 34 H 2.269139 6.477924 -1.111150 0
M  V30 35 H 3.224856 4.440304 -2.155969 0
M  V30 36 H -1.561357 0.576035 -0.801333 0
M  V30 37 H -3.323091 -0.373518 0.533531 0
M  V30 38 H -3.615000 -1.922632 2.811828 0
M  V30 END ATOM
M  V30 BEGIN BOND
M  V30 1 1 1 2
M  V30 2 1 2 3
M  V30 3 1 2 4
M  V30 4 1 4 5
M  V30 5 2 5 6
M  V30 6 1 6 7
M  V30 7 1 7 8
M  V30 8 2 8 9
M  V30 9 1 9 10
M  V30 10 1 10 11
M  V30 11 2 11 12
M  V30 12 1 12 13
M  V30 13 2 13 14
M  V30 14 1 14 15
M  V30 15 2 15 16
M  V30 16 1 16 17
M  V30 17 2 17 18
M  V30 18 2 7 19
M  V30 19 1 19 20
M  V30 20 2 20 21
M  V30 21 1 21 22
M  V30 22 1 21 5
M  V30 23 1 17 9
M  V30 24 1 16 11
M  V30 25 1 1 23
M  V30 26 1 1 24
M  V30 27 1 1 25
M  V30 28 1 2 26
M  V30 29 1 3 27
M  V30 30 1 3 28
M  V30 31 1 3 29
M  V30 32 1 6 30
M  V30 33 1 8 31
M  V30 34 1 12 32
M  V30 35 1 13 33
M  V30 36 1 14 34
M  V30 37 1 15 35
M  V30 38 1 19 36
M  V30 39 1 20 37
M  V30 40 1 22 38
M  V30 END BOND
M  V30 END CTAB
M  END
>  <Dataset>  (680) 
ChEMBL_Kinases

>  <Ligand_Instance>  (680) 
nan

>  <PDB_ID>  (680) 
nan

>  <Standardized_SMILES>  (680) 
CC(C)Oc1cc(/C=C2\Oc3ccccc3C2=O)ccc1O

>  <Name>  (680) 
nan

>  <Pocket>  (680) 
nan

>  <ATP_Site>  (680) 
nan

>  <Peripheral>  (680) 
nan

>  <Num_H_Atoms_ProtBoundConf>  (680) 
nan

>  <Num_Resolved_Atoms>  (680) 
nan

>  <Num_Not_Resolved_Atoms>  (680) 
nan

$$$$
CHEMBL4074586
     RDKit          3D

  0  0  0  0  0  0  0  0  0  0999 V3000
M  V30 BEGIN CTAB
M  V30 COUNTS 50 53 0 0 0
M  V30 BEGIN ATOM
M  V30 1 C -0.581143 0.380316 0.160015 0
M  V30 2 C -0.323175 0.555238 1.660966 0 CFG=2
M  V30 3 C 0.796902 1.535454 1.837715 0
M  V30 4 N 2.095500 0.939417 1.560567 0
M  V30 5 C 3.052653 1.198442 0.548914 0
M  V30 6 C 4.256125 0.523490 0.559508 0
M  V30 7 C 5.146769 0.807190 -0.445271 0
M  V30 8 C 4.958790 1.707104 -1.474134 0
M  V30 9 C 3.744499 2.378825 -1.472080 0
M  V30 10 C 3.484063 3.333318 -2.520014 0
M  V30 11 N 3.266443 4.096072 -3.369716 0
M  V30 12 C 2.814597 2.111680 -0.460814 0
M  V30 13 C 2.302965 -0.062994 2.556147 0
M  V30 14 C 1.026647 -0.606305 3.165254 0
M  V30 15 N -0.009680 -0.786422 2.188403 0
M  V30 16 C -0.733092 -1.864871 1.618402 0
M  V30 17 N -1.869387 -1.585612 0.982461 0
M  V30 18 C -2.678778 -2.451770 0.371954 0
M  V30 19 C -3.918096 -2.102027 -0.298168 0
M  V30 20 C -4.449905 -0.842128 -0.406121 0
M  V30 21 C -5.629945 -0.555175 -1.056373 0
M  V30 22 N -6.293432 -1.582154 -1.616128 0
M  V30 23 C -5.791427 -2.837537 -1.524654 0
M  V30 24 N -4.640840 -3.066228 -0.882688 0
M  V30 25 C -2.277921 -3.765739 0.416019 0
M  V30 26 C -1.117215 -4.126683 1.054365 0
M  V30 27 O -0.773655 -5.331823 1.080241 0
M  V30 28 N -0.389876 -3.161127 1.630850 0
M  V30 29 C 0.818767 -3.588795 2.267993 0
M  V30 30 H -1.626998 0.503596 -0.107012 0
M  V30 31 H -0.096590 -0.546615 -0.185421 0
M  V30 32 H -0.030658 1.222672 -0.352556 0
M  V30 33 H -1.230247 0.971131 2.136544 0
M  V30 34 H 0.808038 2.035422 2.830105 0
M  V30 35 H 0.667671 2.344775 1.082750 0
M  V30 36 H 4.542720 -0.207122 1.301926 0
M  V30 37 H 6.110980 0.275806 -0.446718 0
M  V30 38 H 5.738415 1.853173 -2.220302 0
M  V30 39 H 1.882746 2.670639 -0.515767 0
M  V30 40 H 2.902748 -0.935849 2.241129 0
M  V30 41 H 2.865405 0.372348 3.438333 0
M  V30 42 H 0.662235 0.155233 3.924779 0
M  V30 43 H 1.177456 -1.508724 3.750615 0
M  V30 44 H -3.931991 -0.024623 0.037792 0
M  V30 45 H -6.038710 0.424240 -1.136916 0
M  V30 46 H -6.350570 -3.647204 -1.986589 0
M  V30 47 H -2.884299 -4.513208 -0.057461 0
M  V30 48 H 1.686428 -2.968042 2.029498 0
M  V30 49 H 1.106300 -4.636257 1.919508 0
M  V30 50 H 0.653290 -3.731989 3.351413 0
M  V30 END ATOM
M  V30 BEGIN BOND
M  V30 1 1 1 2
M  V30 2 1 2 3
M  V30 3 1 3 4
M  V30 4 1 4 5
M  V30 5 2 5 6
M  V30 6 1 6 7
M  V30 7 2 7 8
M  V30 8 1 8 9
M  V30 9 1 9 10
M  V30 10 3 10 11
M  V30 11 2 9 12
M  V30 12 1 4 13
M  V30 13 1 13 14
M  V30 14 1 14 15
M  V30 15 1 15 16
M  V30 16 2 16 17
M  V30 17 1 17 18
M  V30 18 1 18 19
M  V30 19 2 19 20
M  V30 20 1 20 21
M  V30 21 2 21 22
M  V30 22 1 22 23
M  V30 23 2 23 24
M  V30 24 2 18 25
M  V30 25 1 25 26
M  V30 26 2 26 27
M  V30 27 1 26 28
M  V30 28 1 28 29
M  V30 29 1 15 2
M  V30 30 1 28 16
M  V30 31 1 12 5
M  V30 32 1 24 19
M  V30 33 1 1 30
M  V30 34 1 1 31
M  V30 35 1 1 32
M  V30 36 1 2 33 CFG=1
M  V30 37 1 3 34
M  V30 38 1 3 35
M  V30 39 1 6 36
M  V30 40 1 7 37
M  V30 41 1 8 38
M  V30 42 1 12 39
M  V30 43 1 13 40
M  V30 44 1 13 41
M  V30 45 1 14 42
M  V30 46 1 14 43
M  V30 47 1 20 44
M  V30 48 1 21 45
M  V30 49 1 23 46
M  V30 50 1 25 47
M  V30 51 1 29 48
M  V30 52 1 29 49
M  V30 53 1 29 50
M  V30 END BOND
M  V30 END CTAB
M  END
>  <Dataset>  (681) 
ChEMBL_Kinases

>  <Ligand_Instance>  (681) 
nan

>  <PDB_ID>  (681) 
nan

>  <Standardized_SMILES>  (681) 
C[C@@H]1CN(c2cccc(C#N)c2)CCN1c1nc(-c2ccncn2)cc(=O)n1C

>  <Name>  (681) 
nan

>  <Pocket>  (681) 
nan

>  <ATP_Site>  (681) 
nan

>  <Peripheral>  (681) 
nan

>  <Num_H_Atoms_ProtBoundConf>  (681) 
nan

>  <Num_Resolved_Atoms>  (681) 
nan

>  <Num_Not_Resolved_Atoms>  (681) 
nan

$$$$
CHEMBL4857079
     RDKit          3D

  0  0  0  0  0  0  0  0  0  0999 V3000
M  V30 BEGIN CTAB
M  V30 COUNTS 44 47 0 0 0
M  V30 BEGIN ATOM
M  V30 1 O 4.663613 -2.153112 3.221706 0
M  V30 2 C 3.410929 -2.108169 3.147631 0
M  V30 3 N 2.666171 -2.475524 4.287880 0
M  V30 4 C 3.317332 -2.900676 5.536807 0
M  V30 5 C 2.166602 -3.233679 6.502587 0
M  V30 6 Br 1.085469 -4.663485 5.750395 0
M  V30 7 C 2.839875 -1.676817 1.874766 0
M  V30 8 C 3.682131 -1.416484 0.818077 0
M  V30 9 C 3.127000 -1.001444 -0.396585 0
M  V30 10 C 1.764287 -0.863111 -0.508157 0
M  V30 11 C 0.920297 -1.128911 0.568115 0
M  V30 12 C 1.454445 -1.539367 1.770571 0
M  V30 13 N -0.421246 -0.974436 0.414815 0
M  V30 14 C -0.944328 -0.565389 -0.774593 0
M  V30 15 N -2.370972 -0.417025 -0.810478 0
M  V30 16 C -2.776387 0.926819 -0.561777 0
M  V30 17 C -1.851080 1.947437 -0.372710 0
M  V30 18 C -2.252070 3.260517 -0.134630 0
M  V30 19 C -3.580822 3.609888 -0.075243 0
M  V30 20 C -4.487228 2.581125 -0.265378 0
M  V30 21 Cl -6.215170 2.899763 -0.214586 0
M  V30 22 C -4.137674 1.249514 -0.507089 0
M  V30 23 C -0.159551 -0.287990 -1.879221 0
M  V30 24 C -0.778584 0.117864 -3.039812 0
M  V30 25 C 0.100926 0.368832 -4.084936 0
M  V30 26 N 1.448994 0.229160 -3.979395 0
M  V30 27 C 1.970539 -0.177459 -2.791077 0
M  V30 28 C 1.193108 -0.455265 -1.686061 0
M  V30 29 H 1.629434 -2.429008 4.198428 0
M  V30 30 H 3.933883 -3.789486 5.423459 0
M  V30 31 H 3.919159 -2.102931 5.994958 0
M  V30 32 H 2.534142 -3.500281 7.492521 0
M  V30 33 H 1.488026 -2.352957 6.615016 0
M  V30 34 H 4.762641 -1.533435 0.927467 0
M  V30 35 H 3.833122 -0.813729 -1.183848 0
M  V30 36 H 0.744577 -1.723102 2.544644 0
M  V30 37 H -3.107504 -1.134251 -0.986535 0
M  V30 38 H -0.780149 1.756974 -0.404413 0
M  V30 39 H -1.478800 4.031894 0.008161 0
M  V30 40 H -3.930919 4.614951 0.104881 0
M  V30 41 H -4.857364 0.469978 -0.649925 0
M  V30 42 H -1.846935 0.234890 -3.144214 0
M  V30 43 H -0.306348 0.697586 -5.049778 0
M  V30 44 H 3.024314 -0.250488 -2.824856 0
M  V30 END ATOM
M  V30 BEGIN BOND
M  V30 1 2 1 2
M  V30 2 1 2 3
M  V30 3 1 3 4
M  V30 4 1 4 5
M  V30 5 1 5 6
M  V30 6 1 2 7
M  V30 7 2 7 8
M  V30 8 1 8 9
M  V30 9 2 9 10
M  V30 10 1 10 11
M  V30 11 2 11 12
M  V30 12 1 11 13
M  V30 13 2 13 14
M  V30 14 1 14 15
M  V30 15 1 15 16
M  V30 16 2 16 17
M  V30 17 1 17 18
M  V30 18 2 18 19
M  V30 19 1 19 20
M  V30 20 1 20 21
M  V30 21 2 20 22
M  V30 22 1 14 23
M  V30 23 2 23 24
M  V30 24 1 24 25
M  V30 25 2 25 26
M  V30 26 1 26 27
M  V30 27 2 27 28
M  V30 28 1 12 7
M  V30 29 1 22 16
M  V30 30 1 28 23
M  V30 31 1 28 10
M  V30 32 1 3 29
M  V30 33 1 4 30
M  V30 34 1 4 31
M  V30 35 1 5 32
M  V30 36 1 5 33
M  V30 37 1 8 34
M  V30 38 1 9 35
M  V30 39 1 12 36
M  V30 40 1 15 37
M  V30 41 1 17 38
M  V30 42 1 18 39
M  V30 43 1 19 40
M  V30 44 1 22 41
M  V30 45 1 24 42
M  V30 46 1 25 43
M  V30 47 1 27 44
M  V30 END BOND
M  V30 END CTAB
M  END
>  <Dataset>  (682) 
ChEMBL_Kinases

>  <Ligand_Instance>  (682) 
nan

>  <PDB_ID>  (682) 
nan

>  <Standardized_SMILES>  (682) 
O=C(NCCBr)c1ccc2c(c1)nc(Nc1cccc(Cl)c1)c1ccncc12

>  <Name>  (682) 
nan

>  <Pocket>  (682) 
nan

>  <ATP_Site>  (682) 
nan

>  <Peripheral>  (682) 
nan

>  <Num_H_Atoms_ProtBoundConf>  (682) 
nan

>  <Num_Resolved_Atoms>  (682) 
nan

>  <Num_Not_Resolved_Atoms>  (682) 
nan

$$$$
CHEMBL4074485
     RDKit          3D

  0  0  0  0  0  0  0  0  0  0999 V3000
M  V30 BEGIN CTAB
M  V30 COUNTS 47 50 0 0 0
M  V30 BEGIN ATOM
M  V30 1 C -0.119840 -4.009989 -1.763390 0
M  V30 2 O 0.481889 -2.751956 -1.421747 0
M  V30 3 C 1.409472 -2.167508 -2.236243 0
M  V30 4 C 1.754937 -2.823693 -3.395652 0
M  V30 5 C 2.686042 -2.350698 -4.296901 0
M  V30 6 C 3.267728 -1.148453 -3.957763 0
M  V30 7 C 2.962371 -0.447143 -2.813505 0
M  V30 8 N 3.557256 0.692390 -2.432808 0
M  V30 9 C 3.290015 1.336601 -1.283243 0
M  V30 10 C 2.323729 0.764692 -0.449835 0
M  V30 11 C 1.655428 -0.427324 -0.785583 0
M  V30 12 N 0.738812 -0.743347 0.233955 0
M  V30 13 C -0.596956 -0.592601 0.643999 0
M  V30 14 C -0.577516 -0.112102 1.974858 0
M  V30 15 C -1.691779 0.210636 2.740813 0
M  V30 16 C -1.637072 0.703701 4.110539 0
M  V30 17 C -2.807942 0.990973 4.772020 0
M  V30 18 C -2.794033 1.459662 6.069720 0
M  V30 19 C -1.559346 1.622592 6.660478 0
M  V30 20 C -0.355888 1.339184 6.013382 0
M  V30 21 C 0.965869 1.525771 6.679433 0
M  V30 22 N -0.458901 0.885383 4.746738 0
M  V30 23 N -2.863233 0.042659 2.143532 0
M  V30 24 C -3.007974 -0.403010 0.891657 0
M  V30 25 C -1.871000 -0.699216 0.197868 0
M  V30 26 C -2.041970 -1.103614 -1.211653 0
M  V30 27 C 2.024744 -0.988138 -1.978656 0
M  V30 28 H -0.728058 -4.398802 -0.946956 0
M  V30 29 H -0.716924 -3.923063 -2.691453 0
M  V30 30 H 0.684084 -4.768753 -1.947815 0
M  V30 31 H 1.292608 -3.785276 -3.669062 0
M  V30 32 H 2.943702 -2.880369 -5.203531 0
M  V30 33 H 4.024138 -0.688530 -4.611797 0
M  V30 34 H 3.820823 2.248664 -1.056206 0
M  V30 35 H 2.187732 1.372364 0.455611 0
M  V30 36 H 1.389825 -1.317576 0.849880 0
M  V30 37 H 0.324734 0.068565 2.577760 0
M  V30 38 H -3.778845 0.862764 4.307229 0
M  V30 39 H -3.704464 1.688283 6.598583 0
M  V30 40 H -1.535005 1.991668 7.683901 0
M  V30 41 H 0.942681 1.293474 7.745510 0
M  V30 42 H 1.309112 2.555567 6.458838 0
M  V30 43 H 1.672563 0.844297 6.121933 0
M  V30 44 H -3.959760 -0.530337 0.432260 0
M  V30 45 H -2.236393 -2.160609 -1.378015 0
M  V30 46 H -1.168439 -0.683913 -1.785878 0
M  V30 47 H -2.908870 -0.538142 -1.671207 0
M  V30 END ATOM
M  V30 BEGIN BOND
M  V30 1 1 1 2
M  V30 2 1 2 3
M  V30 3 2 3 4
M  V30 4 1 4 5
M  V30 5 2 5 6
M  V30 6 1 6 7
M  V30 7 2 7 8
M  V30 8 1 8 9
M  V30 9 2 9 10
M  V30 10 1 10 11
M  V30 11 1 11 12
M  V30 12 1 12 13
M  V30 13 2 13 14
M  V30 14 1 14 15
M  V30 15 1 15 16
M  V30 16 2 16 17
M  V30 17 1 17 18
M  V30 18 2 18 19
M  V30 19 1 19 20
M  V30 20 1 20 21
M  V30 21 2 20 22
M  V30 22 2 15 23
M  V30 23 1 23 24
M  V30 24 2 24 25
M  V30 25 1 25 26
M  V30 26 2 11 27
M  V30 27 1 27 3
M  V30 28 1 27 7
M  V30 29 1 25 13
M  V30 30 1 22 16
M  V30 31 1 1 28
M  V30 32 1 1 29
M  V30 33 1 1 30
M  V30 34 1 4 31
M  V30 35 1 5 32
M  V30 36 1 6 33
M  V30 37 1 9 34
M  V30 38 1 10 35
M  V30 39 1 12 36
M  V30 40 1 14 37
M  V30 41 1 17 38
M  V30 42 1 18 39
M  V30 43 1 19 40
M  V30 44 1 21 41
M  V30 45 1 21 42
M  V30 46 1 21 43
M  V30 47 1 24 44
M  V30 48 1 26 45
M  V30 49 1 26 46
M  V30 50 1 26 47
M  V30 END BOND
M  V30 END CTAB
M  END
>  <Dataset>  (683) 
ChEMBL_Kinases

>  <Ligand_Instance>  (683) 
nan

>  <PDB_ID>  (683) 
nan

>  <Standardized_SMILES>  (683) 
COc1cccc2nccc(Nc3cc(-c4cccc(C)n4)ncc3C)c12

>  <Name>  (683) 
nan

>  <Pocket>  (683) 
nan

>  <ATP_Site>  (683) 
nan

>  <Peripheral>  (683) 
nan

>  <Num_H_Atoms_ProtBoundConf>  (683) 
nan

>  <Num_Resolved_Atoms>  (683) 
nan

>  <Num_Not_Resolved_Atoms>  (683) 
nan

$$$$
CHEMBL4074476
     RDKit          3D

  0  0  0  0  0  0  0  0  0  0999 V3000
M  V30 BEGIN CTAB
M  V30 COUNTS 63 67 0 0 0
M  V30 BEGIN ATOM
M  V30 1 O 0.821817 3.093384 1.343009 0
M  V30 2 C 0.730063 2.138235 2.175573 0
M  V30 3 N 1.689251 2.297309 3.182659 0
M  V30 4 C 2.470963 3.494173 2.950080 0
M  V30 5 C 3.498215 3.661961 4.023952 0
M  V30 6 C 4.464830 2.544793 4.124109 0
M  V30 7 C 4.380802 1.407854 4.898605 0
M  V30 8 C 5.375702 0.452699 4.872591 0
M  V30 9 C 6.477978 0.627935 4.061446 0
M  V30 10 N 6.563924 1.742597 3.299917 0
M  V30 11 C 5.580613 2.688003 3.324760 0
M  V30 12 C -0.262692 1.090386 2.005796 0
M  V30 13 C -1.075013 1.171376 0.884633 0
M  V30 14 C -2.046957 0.227667 0.629309 0
M  V30 15 C -2.928078 0.288298 -0.556697 0 CFG=2
M  V30 16 C -4.391334 0.338292 -0.183394 0
M  V30 17 C -5.143819 0.526534 -1.499020 0
M  V30 18 N -4.270563 0.530447 -2.626686 0
M  V30 19 C -3.431910 -0.611460 -2.746634 0
M  V30 20 C -2.764240 -0.968763 -1.428633 0 CFG=1
M  V30 21 C -1.297618 -1.173142 -1.567771 0
M  V30 22 O -0.850830 -2.236103 -2.306072 0
M  V30 23 C -0.999995 -3.573080 -2.193592 0
M  V30 24 C -1.648612 -4.395614 -1.299810 0
M  V30 25 C -1.659591 -5.769914 -1.397174 0
M  V30 26 C -0.982162 -6.348550 -2.449172 0
M  V30 27 C -0.296701 -5.594010 -3.402922 0
M  V30 28 C -0.322320 -4.202924 -3.250113 0
M  V30 29 O 0.254264 -6.498112 -4.294039 0
M  V30 30 C -0.313126 -7.782835 -4.114333 0
M  V30 31 O -0.822804 -7.684502 -2.795916 0
M  V30 32 C -2.266823 -0.844050 1.467419 0
M  V30 33 C -1.473486 -0.953882 2.594545 0
M  V30 34 C -0.514603 0.007266 2.814929 0
M  V30 35 F 0.251421 -0.111171 3.917297 0
M  V30 36 H 1.716485 1.572849 3.931413 0
M  V30 37 H 1.765531 4.348524 2.974920 0
M  V30 38 H 2.916446 3.442662 1.931539 0
M  V30 39 H 2.944648 3.803530 4.991419 0
M  V30 40 H 4.026970 4.632297 3.871744 0
M  V30 41 H 3.491275 1.342009 5.508368 0
M  V30 42 H 5.202664 -0.395666 5.520519 0
M  V30 43 H 7.190240 -0.166765 4.113276 0
M  V30 44 H 5.816998 3.511630 2.651943 0
M  V30 45 H -1.011541 1.958310 0.144102 0
M  V30 46 H -2.727159 1.177517 -1.188268 0
M  V30 47 H -4.600010 1.138390 0.537963 0
M  V30 48 H -4.671824 -0.672844 0.208535 0
M  V30 49 H -5.600032 1.555598 -1.463641 0
M  V30 50 H -5.972893 -0.172785 -1.630107 0
M  V30 51 H -3.866357 1.433412 -2.899555 0
M  V30 52 H -4.043596 -1.444995 -3.137729 0
M  V30 53 H -2.630297 -0.425377 -3.483856 0
M  V30 54 H -3.268333 -1.818113 -0.958591 0
M  V30 55 H -0.892553 -1.295477 -0.520737 0
M  V30 56 H -0.802480 -0.241715 -1.929279 0
M  V30 57 H -2.136183 -3.842654 -0.523084 0
M  V30 58 H -2.200315 -6.315676 -0.640885 0
M  V30 59 H 0.252191 -3.727921 -4.062032 0
M  V30 60 H 0.443391 -8.586593 -4.210525 0
M  V30 61 H -1.195683 -7.961652 -4.774564 0
M  V30 62 H -3.014603 -1.596581 1.298894 0
M  V30 63 H -1.585012 -1.765580 3.299855 0
M  V30 END ATOM
M  V30 BEGIN BOND
M  V30 1 2 1 2
M  V30 2 1 2 3
M  V30 3 1 3 4
M  V30 4 1 4 5
M  V30 5 1 5 6
M  V30 6 2 6 7
M  V30 7 1 7 8
M  V30 8 2 8 9
M  V30 9 1 9 10
M  V30 10 2 10 11
M  V30 11 1 2 12
M  V30 12 2 12 13
M  V30 13 1 13 14
M  V30 14 1 14 15
M  V30 15 1 15 16
M  V30 16 1 16 17
M  V30 17 1 17 18
M  V30 18 1 18 19
M  V30 19 1 19 20
M  V30 20 1 20 21
M  V30 21 1 21 22
M  V30 22 1 22 23
M  V30 23 2 23 24
M  V30 24 1 24 25
M  V30 25 2 25 26
M  V30 26 1 26 27
M  V30 27 2 27 28
M  V30 28 1 27 29
M  V30 29 1 29 30
M  V30 30 1 30 31
M  V30 31 2 14 32
M  V30 32 1 32 33
M  V30 33 2 33 34
M  V30 34 1 34 35
M  V30 35 1 11 6
M  V30 36 1 34 12
M  V30 37 1 20 15
M  V30 38 1 28 23
M  V30 39 1 31 26
M  V30 40 1 3 36
M  V30 41 1 4 37
M  V30 42 1 4 38
M  V30 43 1 5 39
M  V30 44 1 5 40
M  V30 45 1 7 41
M  V30 46 1 8 42
M  V30 47 1 9 43
M  V30 48 1 11 44
M  V30 49 1 13 45
M  V30 50 1 15 46 CFG=3
M  V30 51 1 16 47
M  V30 52 1 16 48
M  V30 53 1 17 49
M  V30 54 1 17 50
M  V30 55 1 18 51
M  V30 56 1 19 52
M  V30 57 1 19 53
M  V30 58 1 20 54 CFG=1
M  V30 59 1 21 55
M  V30 60 1 21 56
M  V30 61 1 24 57
M  V30 62 1 25 58
M  V30 63 1 28 59
M  V30 64 1 30 60
M  V30 65 1 30 61
M  V30 66 1 32 62
M  V30 67 1 33 63
M  V30 END BOND
M  V30 END CTAB
M  END
>  <Dataset>  (684) 
ChEMBL_Kinases

>  <Ligand_Instance>  (684) 
nan

>  <PDB_ID>  (684) 
nan

>  <Standardized_SMILES>  (684) 
O=C(NCCc1cccnc1)c1cc([C@@H]2CCNC[C@H]2COc2ccc3c(c2)OCO3)ccc1F

>  <Name>  (684) 
nan

>  <Pocket>  (684) 
nan

>  <ATP_Site>  (684) 
nan

>  <Peripheral>  (684) 
nan

>  <Num_H_Atoms_ProtBoundConf>  (684) 
nan

>  <Num_Resolved_Atoms>  (684) 
nan

>  <Num_Not_Resolved_Atoms>  (684) 
nan

$$$$
CHEMBL4074437
     RDKit          3D

  0  0  0  0  0  0  0  0  0  0999 V3000
M  V30 BEGIN CTAB
M  V30 COUNTS 52 55 0 0 0
M  V30 BEGIN ATOM
M  V30 1 C 2.500650 -3.956900 4.533095 0
M  V30 2 O 3.439432 -2.981078 4.343915 0
M  V30 3 C 4.545817 -3.302091 3.623048 0
M  V30 4 C 4.371155 -3.681010 2.197348 0
M  V30 5 N 3.795767 -2.614372 1.401698 0
M  V30 6 C 4.679126 -1.637030 0.802175 0
M  V30 7 C 4.252832 -0.223029 1.059976 0
M  V30 8 C 2.812308 -0.004277 0.774950 0
M  V30 9 N 2.133000 1.101737 0.466886 0
M  V30 10 C 0.832456 0.789402 0.292763 0
M  V30 11 C -0.225795 1.733243 -0.055730 0
M  V30 12 C 0.050239 3.062138 -0.239608 0
M  V30 13 C -0.899192 4.004780 -0.571454 0
M  V30 14 N -2.148949 3.532618 -0.708644 0
M  V30 15 C -2.482955 2.237257 -0.540722 0
M  V30 16 N -3.836470 1.836649 -0.710734 0
M  V30 17 C -4.240249 0.454586 -0.535791 0
M  V30 18 C -3.561559 -0.503804 -1.453250 0
M  V30 19 C -4.302846 -1.817771 -1.409137 0
M  V30 20 O -5.586254 -1.771092 -1.887089 0
M  V30 21 C -6.156406 -0.508589 -1.856175 0
M  V30 22 C -5.733882 0.287283 -0.643514 0
M  V30 23 N -1.530302 1.374898 -0.222363 0
M  V30 24 C 0.630613 -0.574873 0.490909 0
M  V30 25 C 1.898432 -1.038020 0.792066 0
M  V30 26 C 2.425081 -2.361399 1.114226 0
M  V30 27 O 1.661364 -3.388238 1.154518 0
M  V30 28 H 1.676400 -3.478151 5.142299 0
M  V30 29 H 2.866947 -4.775851 5.198479 0
M  V30 30 H 2.009250 -4.350251 3.628905 0
M  V30 31 H 5.240313 -2.411048 3.684828 0
M  V30 32 H 5.077269 -4.114361 4.204151 0
M  V30 33 H 5.324722 -4.040498 1.772591 0
M  V30 34 H 3.670511 -4.557233 2.078490 0
M  V30 35 H 5.687109 -1.793719 1.174554 0
M  V30 36 H 4.688053 -1.816520 -0.288975 0
M  V30 37 H 4.825413 0.486510 0.434746 0
M  V30 38 H 4.435622 0.043547 2.118190 0
M  V30 39 H 2.567722 2.043757 0.381768 0
M  V30 40 H 1.081315 3.357310 -0.109991 0
M  V30 41 H -0.669075 5.065097 -0.716295 0
M  V30 42 H -4.564956 2.539271 -0.966200 0
M  V30 43 H -3.976516 0.181302 0.517830 0
M  V30 44 H -3.443611 -0.182235 -2.485196 0
M  V30 45 H -2.558041 -0.726645 -0.983068 0
M  V30 46 H -3.741464 -2.572287 -2.019240 0
M  V30 47 H -4.297185 -2.234509 -0.372210 0
M  V30 48 H -5.992651 0.057759 -2.795255 0
M  V30 49 H -7.253154 -0.653121 -1.760239 0
M  V30 50 H -6.168876 1.310225 -0.760284 0
M  V30 51 H -6.188938 -0.159552 0.253041 0
M  V30 52 H -0.255252 -1.166360 0.437407 0
M  V30 END ATOM
M  V30 BEGIN BOND
M  V30 1 1 1 2
M  V30 2 1 2 3
M  V30 3 1 3 4
M  V30 4 1 4 5
M  V30 5 1 5 6
M  V30 6 1 6 7
M  V30 7 1 7 8
M  V30 8 1 8 9
M  V30 9 1 9 10
M  V30 10 1 10 11
M  V30 11 2 11 12
M  V30 12 1 12 13
M  V30 13 2 13 14
M  V30 14 1 14 15
M  V30 15 1 15 16
M  V30 16 1 16 17
M  V30 17 1 17 18
M  V30 18 1 18 19
M  V30 19 1 19 20
M  V30 20 1 20 21
M  V30 21 1 21 22
M  V30 22 2 15 23
M  V30 23 2 10 24
M  V30 24 1 24 25
M  V30 25 1 25 26
M  V30 26 2 26 27
M  V30 27 1 26 5
M  V30 28 2 25 8
M  V30 29 1 23 11
M  V30 30 1 22 17
M  V30 31 1 1 28
M  V30 32 1 1 29
M  V30 33 1 1 30
M  V30 34 1 3 31
M  V30 35 1 3 32
M  V30 36 1 4 33
M  V30 37 1 4 34
M  V30 38 1 6 35
M  V30 39 1 6 36
M  V30 40 1 7 37
M  V30 41 1 7 38
M  V30 42 1 9 39
M  V30 43 1 12 40
M  V30 44 1 13 41
M  V30 45 1 16 42
M  V30 46 1 17 43
M  V30 47 1 18 44
M  V30 48 1 18 45
M  V30 49 1 19 46
M  V30 50 1 19 47
M  V30 51 1 21 48
M  V30 52 1 21 49
M  V30 53 1 22 50
M  V30 54 1 22 51
M  V30 55 1 24 52
M  V30 END BOND
M  V30 END CTAB
M  END
>  <Dataset>  (685) 
ChEMBL_Kinases

>  <Ligand_Instance>  (685) 
nan

>  <PDB_ID>  (685) 
nan

>  <Standardized_SMILES>  (685) 
COCCN1CCc2[nH]c(-c3ccnc(NC4CCOCC4)n3)cc2C1=O

>  <Name>  (685) 
nan

>  <Pocket>  (685) 
nan

>  <ATP_Site>  (685) 
nan

>  <Peripheral>  (685) 
nan

>  <Num_H_Atoms_ProtBoundConf>  (685) 
nan

>  <Num_Resolved_Atoms>  (685) 
nan

>  <Num_Not_Resolved_Atoms>  (685) 
nan

$$$$
CHEMBL4074311
     RDKit          3D

  0  0  0  0  0  0  0  0  0  0999 V3000
M  V30 BEGIN CTAB
M  V30 COUNTS 48 51 0 0 0
M  V30 BEGIN ATOM
M  V30 1 C 1.697694 -7.094708 2.830230 0
M  V30 2 O 0.991187 -6.374807 1.903634 0
M  V30 3 C -0.158628 -5.837058 2.407697 0
M  V30 4 C 0.013591 -4.837308 3.487341 0
M  V30 5 N 0.760265 -3.649202 3.114800 0
M  V30 6 C 2.188464 -3.444515 3.235688 0
M  V30 7 C 2.773395 -2.418640 2.341656 0
M  V30 8 C 1.848533 -1.402894 1.816622 0
M  V30 9 N 2.205036 -0.276514 1.173355 0
M  V30 10 C 1.057541 0.358865 0.871223 0
M  V30 11 C 0.983429 1.631101 0.163961 0
M  V30 12 C 2.131782 2.287425 -0.267591 0
M  V30 13 C 2.071286 3.487796 -0.942291 0
M  V30 14 N 0.856810 4.055939 -1.199353 0
M  V30 15 C -0.264711 3.403185 -0.771399 0
M  V30 16 N -1.459922 4.091451 -1.107455 0
M  V30 17 C -2.442059 3.542048 -2.002267 0
M  V30 18 C -2.284645 2.273755 -2.573647 0
M  V30 19 C -3.470091 2.223389 -3.327500 0
M  V30 20 N -4.214637 3.324677 -3.204867 0
M  V30 21 N -3.563913 4.130949 -2.381374 0
M  V30 22 C -4.071514 5.432416 -2.025528 0
M  V30 23 N -0.195287 2.234305 -0.114754 0
M  V30 24 C -0.040853 -0.352254 1.316585 0
M  V30 25 C 0.486865 -1.496868 1.929670 0
M  V30 26 C -0.136496 -2.634384 2.591041 0
M  V30 27 O -1.380761 -2.665742 2.665084 0
M  V30 28 H 2.632124 -7.508041 2.352373 0
M  V30 29 H 1.056688 -7.945353 3.218082 0
M  V30 30 H 2.038591 -6.575401 3.720290 0
M  V30 31 H -0.810808 -5.388340 1.626411 0
M  V30 32 H -0.749968 -6.682797 2.850785 0
M  V30 33 H -0.959063 -4.581426 3.957580 0
M  V30 34 H 0.613632 -5.281078 4.336306 0
M  V30 35 H 2.403489 -3.219785 4.305554 0
M  V30 36 H 2.704719 -4.416494 2.978596 0
M  V30 37 H 3.551756 -1.870659 2.944006 0
M  V30 38 H 3.308673 -2.870157 1.472828 0
M  V30 39 H 3.154217 0.109800 0.917512 0
M  V30 40 H 3.108596 1.886319 -0.093474 0
M  V30 41 H 2.991078 3.982794 -1.268410 0
M  V30 42 H -1.563432 5.021746 -0.652683 0
M  V30 43 H -1.534542 1.512438 -2.515892 0
M  V30 44 H -3.756128 1.364369 -3.955196 0
M  V30 45 H -3.960839 5.660819 -0.952781 0
M  V30 46 H -5.160468 5.531485 -2.243996 0
M  V30 47 H -3.602327 6.230256 -2.669212 0
M  V30 48 H -1.104327 -0.120116 1.235485 0
M  V30 END ATOM
M  V30 BEGIN BOND
M  V30 1 1 1 2
M  V30 2 1 2 3
M  V30 3 1 3 4
M  V30 4 1 4 5
M  V30 5 1 5 6
M  V30 6 1 6 7
M  V30 7 1 7 8
M  V30 8 1 8 9
M  V30 9 1 9 10
M  V30 10 1 10 11
M  V30 11 2 11 12
M  V30 12 1 12 13
M  V30 13 2 13 14
M  V30 14 1 14 15
M  V30 15 1 15 16
M  V30 16 1 16 17
M  V30 17 2 17 18
M  V30 18 1 18 19
M  V30 19 2 19 20
M  V30 20 1 20 21
M  V30 21 1 21 22
M  V30 22 2 15 23
M  V30 23 2 10 24
M  V30 24 1 24 25
M  V30 25 1 25 26
M  V30 26 2 26 27
M  V30 27 1 26 5
M  V30 28 2 25 8
M  V30 29 1 23 11
M  V30 30 1 21 17
M  V30 31 1 1 28
M  V30 32 1 1 29
M  V30 33 1 1 30
M  V30 34 1 3 31
M  V30 35 1 3 32
M  V30 36 1 4 33
M  V30 37 1 4 34
M  V30 38 1 6 35
M  V30 39 1 6 36
M  V30 40 1 7 37
M  V30 41 1 7 38
M  V30 42 1 9 39
M  V30 43 1 12 40
M  V30 44 1 13 41
M  V30 45 1 16 42
M  V30 46 1 18 43
M  V30 47 1 19 44
M  V30 48 1 22 45
M  V30 49 1 22 46
M  V30 50 1 22 47
M  V30 51 1 24 48
M  V30 END BOND
M  V30 END CTAB
M  END
>  <Dataset>  (686) 
ChEMBL_Kinases

>  <Ligand_Instance>  (686) 
nan

>  <PDB_ID>  (686) 
nan

>  <Standardized_SMILES>  (686) 
COCCN1CCc2[nH]c(-c3ccnc(Nc4ccnn4C)n3)cc2C1=O

>  <Name>  (686) 
nan

>  <Pocket>  (686) 
nan

>  <ATP_Site>  (686) 
nan

>  <Peripheral>  (686) 
nan

>  <Num_H_Atoms_ProtBoundConf>  (686) 
nan

>  <Num_Resolved_Atoms>  (686) 
nan

>  <Num_Not_Resolved_Atoms>  (686) 
nan

$$$$
CHEMBL4074237
     RDKit          3D

  0  0  0  0  0  0  0  0  0  0999 V3000
M  V30 BEGIN CTAB
M  V30 COUNTS 72 76 0 0 0
M  V30 BEGIN ATOM
M  V30 1 C 1.555857 -1.993900 4.907116 0
M  V30 2 C 2.729328 -1.180099 4.508859 0
M  V30 3 C 3.962876 -1.293295 5.099615 0
M  V30 4 C 4.953497 -0.467776 4.620807 0
M  V30 5 F 6.170254 -0.583440 5.208164 0
M  V30 6 C 4.773402 0.444801 3.602841 0
M  V30 7 N 5.884704 1.241187 3.203070 0
M  V30 8 C 5.882739 2.434655 3.984844 0
M  V30 9 O 4.920367 2.467077 4.801525 0
M  V30 10 C 6.898897 3.498641 3.840605 0
M  V30 11 C 7.960986 3.516359 2.983394 0
M  V30 12 C 8.835737 4.579135 2.955687 0
M  V30 13 C 8.683028 5.677741 3.792017 0
M  V30 14 C 7.604263 5.639402 4.649329 0
M  V30 15 C 6.718963 4.579509 4.687172 0
M  V30 16 C 3.509145 0.519829 3.039647 0
M  V30 17 C 2.462542 -0.297741 3.488442 0
M  V30 18 N 1.292088 -0.018926 2.748561 0
M  V30 19 C 0.362011 -0.645861 1.880732 0
M  V30 20 C 0.515803 -0.228246 0.549541 0
M  V30 21 C -0.289408 -0.701790 -0.487938 0
M  V30 22 C -1.252699 -1.611955 -0.122353 0
M  V30 23 C -1.463447 -2.068323 1.162763 0
M  V30 24 C -0.634625 -1.560425 2.135447 0
M  V30 25 C -2.425762 -3.014566 1.749952 0
M  V30 26 C -2.830637 -4.146085 0.867784 0
M  V30 27 C -3.535134 -3.789190 -0.366668 0
M  V30 28 C -4.720474 -4.500066 -0.573481 0
M  V30 29 C -5.541629 -4.315133 -1.691901 0
M  V30 30 C -5.144301 -3.379448 -2.626673 0
M  V30 31 C -6.006815 -3.196270 -3.789523 0
M  V30 32 O -7.066390 -3.855273 -3.897856 0
M  V30 33 N -5.734965 -2.295855 -4.856102 0
M  V30 34 C -6.722488 -2.259586 -5.929746 0
M  V30 35 C -6.222870 -1.237247 -6.953350 0 CFG=1
M  V30 36 O -4.972050 -1.726875 -7.373247 0
M  V30 37 C -7.215481 -1.155854 -8.076744 0
M  V30 38 O -8.420865 -0.656836 -7.550195 0
M  V30 39 C -3.985924 -2.646009 -2.480061 0
M  V30 40 C -3.201236 -2.871096 -1.341319 0
M  V30 41 C -2.003504 -2.007280 -1.335884 0
M  V30 42 O -1.636762 -1.604740 -2.478981 0
M  V30 43 H 1.737804 -2.490714 5.880964 0
M  V30 44 H 0.672872 -1.311433 5.056626 0
M  V30 45 H 1.257733 -2.748569 4.177264 0
M  V30 46 H 4.071712 -2.011754 5.888584 0
M  V30 47 H 6.643109 1.105656 2.485390 0
M  V30 48 H 8.030161 2.639109 2.356991 0
M  V30 49 H 9.655558 4.501753 2.236136 0
M  V30 50 H 9.389901 6.499028 3.746114 0
M  V30 51 H 7.442819 6.485518 5.329012 0
M  V30 52 H 5.907896 4.651461 5.396811 0
M  V30 53 H 3.465270 1.265041 2.248034 0
M  V30 54 H 0.941610 0.982803 2.842891 0
M  V30 55 H 1.264082 0.488289 0.223236 0
M  V30 56 H -0.159142 -0.370792 -1.505062 0
M  V30 57 H -0.713520 -1.843584 3.172732 0
M  V30 58 H -3.349845 -2.430418 1.959026 0
M  V30 59 H -2.061153 -3.355038 2.729998 0
M  V30 60 H -1.928718 -4.733599 0.604039 0
M  V30 61 H -3.442031 -4.838752 1.516375 0
M  V30 62 H -5.031229 -5.236333 0.164328 0
M  V30 63 H -6.442751 -4.912515 -1.766313 0
M  V30 64 H -4.865879 -1.720562 -4.821650 0
M  V30 65 H -6.870334 -3.236177 -6.390674 0
M  V30 66 H -7.704212 -1.869300 -5.574248 0
M  V30 67 H -6.116707 -0.237988 -6.499346 0
M  V30 68 H -4.241108 -1.226627 -6.924045 0
M  V30 69 H -6.884540 -0.513551 -8.890753 0
M  V30 70 H -7.389421 -2.176841 -8.521314 0
M  V30 71 H -8.388233 0.348958 -7.585751 0
M  V30 72 H -3.658455 -1.910355 -3.200652 0
M  V30 END ATOM
M  V30 BEGIN BOND
M  V30 1 1 1 2
M  V30 2 2 2 3
M  V30 3 1 3 4
M  V30 4 1 4 5
M  V30 5 2 4 6
M  V30 6 1 6 7
M  V30 7 1 7 8
M  V30 8 2 8 9
M  V30 9 1 8 10
M  V30 10 2 10 11
M  V30 11 1 11 12
M  V30 12 2 12 13
M  V30 13 1 13 14
M  V30 14 2 14 15
M  V30 15 1 6 16
M  V30 16 2 16 17
M  V30 17 1 17 18
M  V30 18 1 18 19
M  V30 19 2 19 20
M  V30 20 1 20 21
M  V30 21 2 21 22
M  V30 22 1 22 23
M  V30 23 2 23 24
M  V30 24 1 23 25
M  V30 25 1 25 26
M  V30 26 1 26 27
M  V30 27 2 27 28
M  V30 28 1 28 29
M  V30 29 2 29 30
M  V30 30 1 30 31
M  V30 31 2 31 32
M  V30 32 1 31 33
M  V30 33 1 33 34
M  V30 34 1 34 35
M  V30 35 1 35 36
M  V30 36 1 35 37
M  V30 37 1 37 38
M  V30 38 1 30 39
M  V30 39 2 39 40
M  V30 40 1 40 41
M  V30 41 2 41 42
M  V30 42 1 17 2
M  V30 43 1 24 19
M  V30 44 1 40 27
M  V30 45 1 15 10
M  V30 46 1 41 22
M  V30 47 1 1 43
M  V30 48 1 1 44
M  V30 49 1 1 45
M  V30 50 1 3 46
M  V30 51 1 7 47
M  V30 52 1 11 48
M  V30 53 1 12 49
M  V30 54 1 13 50
M  V30 55 1 14 51
M  V30 56 1 15 52
M  V30 57 1 16 53
M  V30 58 1 18 54
M  V30 59 1 20 55
M  V30 60 1 21 56
M  V30 61 1 24 57
M  V30 62 1 25 58
M  V30 63 1 25 59
M  V30 64 1 26 60
M  V30 65 1 26 61
M  V30 66 1 28 62
M  V30 67 1 29 63
M  V30 68 1 33 64
M  V30 69 1 34 65
M  V30 70 1 34 66
M  V30 71 1 35 67 CFG=1
M  V30 72 1 36 68
M  V30 73 1 37 69
M  V30 74 1 37 70
M  V30 75 1 38 71
M  V30 76 1 39 72
M  V30 END BOND
M  V30 END CTAB
M  END
>  <Dataset>  (687) 
ChEMBL_Kinases

>  <Ligand_Instance>  (687) 
nan

>  <PDB_ID>  (687) 
nan

>  <Standardized_SMILES>  (687) 
Cc1cc(F)c(NC(=O)c2ccccc2)cc1Nc1ccc2c(c1)CCc1ccc(C(=O)NC[C@@H](O)CO)cc1C2=O

>  <Name>  (687) 
nan

>  <Pocket>  (687) 
nan

>  <ATP_Site>  (687) 
nan

>  <Peripheral>  (687) 
nan

>  <Num_H_Atoms_ProtBoundConf>  (687) 
nan

>  <Num_Resolved_Atoms>  (687) 
nan

>  <Num_Not_Resolved_Atoms>  (687) 
nan

$$$$
CHEMBL4074827
     RDKit          3D

  0  0  0  0  0  0  0  0  0  0999 V3000
M  V30 BEGIN CTAB
M  V30 COUNTS 39 41 0 0 0
M  V30 BEGIN ATOM
M  V30 1 C -4.270620 -2.000551 -0.909264 0
M  V30 2 C -4.745437 -2.730516 0.311190 0
M  V30 3 O -4.432151 -1.973322 1.450515 0
M  V30 4 C -3.132742 -1.662511 1.797393 0
M  V30 5 C -1.984878 -2.020015 1.129348 0
M  V30 6 C -0.688997 -1.670832 1.531370 0
M  V30 7 C 0.363118 -2.155404 0.641339 0
M  V30 8 C 1.399139 -1.390847 0.397764 0
M  V30 9 O 1.716790 -0.142331 0.843875 0
M  V30 10 C 2.936211 0.321048 0.326373 0
M  V30 11 C 3.624241 1.529052 0.522735 0
M  V30 12 O 3.015194 2.412704 1.355942 0
M  V30 13 C 3.491665 3.666796 1.725407 0
M  V30 14 C 4.812343 1.661244 -0.145088 0
M  V30 15 C 5.323672 0.681609 -0.967036 0
M  V30 16 C 4.646559 -0.514460 -1.164756 0
M  V30 17 C 3.436480 -0.695984 -0.508556 0
M  V30 18 C 2.484447 -1.794801 -0.481990 0
M  V30 19 O 2.605819 -2.895199 -1.120761 0
M  V30 20 C -0.580639 -0.924957 2.668416 0
M  V30 21 C -1.711345 -0.540423 3.377577 0
M  V30 22 C -2.987621 -0.910255 2.940492 0
M  V30 23 O -3.987948 -0.448089 3.755721 0
M  V30 24 H -5.181749 -1.640823 -1.473588 0
M  V30 25 H -3.641234 -2.629571 -1.566060 0
M  V30 26 H -3.670665 -1.093916 -0.654307 0
M  V30 27 H -4.248289 -3.733928 0.410587 0
M  V30 28 H -5.853519 -2.897487 0.218383 0
M  V30 29 H -2.116713 -2.618970 0.244724 0
M  V30 30 H 0.275518 -3.141998 0.190415 0
M  V30 31 H 2.704719 4.399929 1.935301 0
M  V30 32 H 4.133926 3.640628 2.635020 0
M  V30 33 H 4.149612 4.072824 0.925954 0
M  V30 34 H 5.338648 2.588576 0.009092 0
M  V30 35 H 6.283867 0.859978 -1.470412 0
M  V30 36 H 5.036997 -1.284205 -1.804742 0
M  V30 37 H 0.437826 -0.681609 2.937439 0
M  V30 38 H -1.437814 0.042777 4.249825 0
M  V30 39 H -4.957467 -0.324964 3.480479 0
M  V30 END ATOM
M  V30 BEGIN BOND
M  V30 1 1 1 2
M  V30 2 1 2 3
M  V30 3 1 3 4
M  V30 4 2 4 5
M  V30 5 1 5 6
M  V30 6 1 6 7
M  V30 7 2 7 8
M  V30 8 1 8 9
M  V30 9 1 9 10
M  V30 10 2 10 11
M  V30 11 1 11 12
M  V30 12 1 12 13
M  V30 13 1 11 14
M  V30 14 2 14 15
M  V30 15 1 15 16
M  V30 16 2 16 17
M  V30 17 1 17 18
M  V30 18 2 18 19
M  V30 19 2 6 20
M  V30 20 1 20 21
M  V30 21 2 21 22
M  V30 22 1 22 23
M  V30 23 1 22 4
M  V30 24 1 18 8
M  V30 25 1 17 10
M  V30 26 1 1 24
M  V30 27 1 1 25
M  V30 28 1 1 26
M  V30 29 1 2 27
M  V30 30 1 2 28
M  V30 31 1 5 29
M  V30 32 1 7 30
M  V30 33 1 13 31
M  V30 34 1 13 32
M  V30 35 1 13 33
M  V30 36 1 14 34
M  V30 37 1 15 35
M  V30 38 1 16 36
M  V30 39 1 20 37
M  V30 40 1 21 38
M  V30 41 1 23 39
M  V30 END BOND
M  V30 END CTAB
M  END
>  <Dataset>  (688) 
ChEMBL_Kinases

>  <Ligand_Instance>  (688) 
nan

>  <PDB_ID>  (688) 
nan

>  <Standardized_SMILES>  (688) 
CCOc1cc(/C=C2\Oc3c(OC)cccc3C2=O)ccc1O

>  <Name>  (688) 
nan

>  <Pocket>  (688) 
nan

>  <ATP_Site>  (688) 
nan

>  <Peripheral>  (688) 
nan

>  <Num_H_Atoms_ProtBoundConf>  (688) 
nan

>  <Num_Resolved_Atoms>  (688) 
nan

>  <Num_Not_Resolved_Atoms>  (688) 
nan

$$$$
CHEMBL4857823
     RDKit          3D

  0  0  0  0  0  0  0  0  0  0999 V3000
M  V30 BEGIN CTAB
M  V30 COUNTS 45 47 0 0 0
M  V30 BEGIN ATOM
M  V30 1 N 1.108489 -6.810899 3.266986 0
M  V30 2 C 0.905413 -6.090107 2.384967 0
M  V30 3 C 0.674823 -5.186832 1.301178 0
M  V30 4 C 1.108060 -5.483119 0.016100 0
M  V30 5 C 0.893871 -4.625078 -1.037149 0
M  V30 6 C 0.239398 -3.423709 -0.885866 0
M  V30 7 N -0.021923 -2.511414 -1.940092 0
M  V30 8 C -0.484384 -1.173116 -1.877651 0
M  V30 9 N -0.785504 -0.546959 -3.027195 0
M  V30 10 C -1.220463 0.716743 -3.068505 0
M  V30 11 C -1.368741 1.412881 -1.896664 0
M  V30 12 C -1.857337 2.817120 -2.005648 0
M  V30 13 F -2.082124 3.182674 -3.323421 0
M  V30 14 F -0.965071 3.691814 -1.429581 0
M  V30 15 F -3.069094 2.892633 -1.319907 0
M  V30 16 C -1.071136 0.812220 -0.691075 0
M  V30 17 N -1.249635 1.533742 0.515846 0
M  V30 18 C -1.029025 1.248865 1.914760 0
M  V30 19 C 0.404191 1.282533 2.348768 0
M  V30 20 C 0.406406 0.950631 3.840303 0
M  V30 21 C 1.750896 1.350773 4.401337 0
M  V30 22 C 2.759745 1.235531 3.281563 0
M  V30 23 N 2.459684 0.081994 2.459643 0
M  V30 24 C 1.260544 0.265940 1.654065 0
M  V30 25 N -0.648955 -0.442609 -0.771804 0
M  V30 26 C -0.167051 -3.184331 0.408173 0
M  V30 27 N 0.043293 -4.027865 1.446778 0
M  V30 28 H 1.626111 -6.397073 -0.196213 0
M  V30 29 H 1.252143 -4.897369 -2.037012 0
M  V30 30 H 0.167204 -2.928493 -2.877687 0
M  V30 31 H -1.452742 1.188009 -4.012073 0
M  V30 32 H -1.631128 2.523830 0.421595 0
M  V30 33 H -1.350847 0.168443 2.084190 0
M  V30 34 H -1.684087 1.817212 2.588155 0
M  V30 35 H 0.850237 2.312894 2.211473 0
M  V30 36 H 0.342573 -0.163031 3.898086 0
M  V30 37 H -0.435457 1.423998 4.384432 0
M  V30 38 H 1.669961 2.380525 4.803700 0
M  V30 39 H 2.055299 0.649069 5.223916 0
M  V30 40 H 2.817616 2.175357 2.726157 0
M  V30 41 H 3.766582 1.051327 3.717295 0
M  V30 42 H 3.274597 -0.211248 1.876854 0
M  V30 43 H 1.520541 0.558017 0.615407 0
M  V30 44 H 0.745617 -0.700171 1.639280 0
M  V30 45 H -0.699755 -2.294355 0.686683 0
M  V30 END ATOM
M  V30 BEGIN BOND
M  V30 1 3 1 2
M  V30 2 1 2 3
M  V30 3 2 3 4
M  V30 4 1 4 5
M  V30 5 2 5 6
M  V30 6 1 6 7
M  V30 7 1 7 8
M  V30 8 2 8 9
M  V30 9 1 9 10
M  V30 10 2 10 11
M  V30 11 1 11 12
M  V30 12 1 12 13
M  V30 13 1 12 14
M  V30 14 1 12 15
M  V30 15 1 11 16
M  V30 16 1 16 17
M  V30 17 1 17 18
M  V30 18 1 18 19
M  V30 19 1 19 20
M  V30 20 1 20 21
M  V30 21 1 21 22
M  V30 22 1 22 23
M  V30 23 1 23 24
M  V30 24 2 16 25
M  V30 25 1 6 26
M  V30 26 2 26 27
M  V30 27 1 27 3
M  V30 28 1 25 8
M  V30 29 1 24 19
M  V30 30 1 4 28
M  V30 31 1 5 29
M  V30 32 1 7 30
M  V30 33 1 10 31
M  V30 34 1 17 32
M  V30 35 1 18 33
M  V30 36 1 18 34
M  V30 37 1 19 35
M  V30 38 1 20 36
M  V30 39 1 20 37
M  V30 40 1 21 38
M  V30 41 1 21 39
M  V30 42 1 22 40
M  V30 43 1 22 41
M  V30 44 1 23 42
M  V30 45 1 24 43
M  V30 46 1 24 44
M  V30 47 1 26 45
M  V30 END BOND
M  V30 END CTAB
M  END
>  <Dataset>  (689) 
ChEMBL_Kinases

>  <Ligand_Instance>  (689) 
nan

>  <PDB_ID>  (689) 
nan

>  <Standardized_SMILES>  (689) 
N#Cc1ccc(Nc2ncc(C(F)(F)F)c(NCC3CCCNC3)n2)cn1

>  <Name>  (689) 
nan

>  <Pocket>  (689) 
nan

>  <ATP_Site>  (689) 
nan

>  <Peripheral>  (689) 
nan

>  <Num_H_Atoms_ProtBoundConf>  (689) 
nan

>  <Num_Resolved_Atoms>  (689) 
nan

>  <Num_Not_Resolved_Atoms>  (689) 
nan

$$$$
CHEMBL4857841
     RDKit          3D

  0  0  0  0  0  0  0  0  0  0999 V3000
M  V30 BEGIN CTAB
M  V30 COUNTS 73 78 0 0 0
M  V30 BEGIN ATOM
M  V30 1 C 6.632733 -1.901151 0.977444 0
M  V30 2 C 5.744153 -2.901145 0.927712 0
M  V30 3 C 4.508035 -2.944115 1.750250 0
M  V30 4 N 3.368892 -2.992390 0.877115 0
M  V30 5 C 2.858457 -4.160442 0.453130 0
M  V30 6 O 3.259584 -5.325902 0.728724 0
M  V30 7 C 1.782983 -3.912852 -0.366274 0
M  V30 8 C 0.884372 -4.681952 -1.076059 0
M  V30 9 N -0.055575 -4.025145 -1.780027 0
M  V30 10 C -0.192174 -2.707002 -1.850194 0
M  V30 11 N -1.301798 -2.428294 -2.682763 0
M  V30 12 C -2.498295 -1.985583 -2.057129 0
M  V30 13 C -2.463393 -1.579753 -0.732807 0
M  V30 14 C -3.568530 -1.142612 -0.021503 0
M  V30 15 C -4.790163 -1.107886 -0.673301 0
M  V30 16 N -5.977966 -0.672128 -0.024945 0
M  V30 17 C -7.366227 -0.845724 -0.504090 0
M  V30 18 C -8.203475 -1.475519 0.584774 0
M  V30 19 N -7.442009 -1.935136 1.700544 0
M  V30 20 C -7.045511 -3.303934 1.678575 0
M  V30 21 C -6.504126 -1.015976 2.239405 0
M  V30 22 C -6.024615 0.027468 1.242958 0
M  V30 23 C -4.854853 -1.505702 -1.990534 0
M  V30 24 C -3.743884 -1.937665 -2.682512 0
M  V30 25 N 0.679241 -1.951039 -1.161408 0
M  V30 26 C 1.656335 -2.541100 -0.427274 0
M  V30 27 N 2.639960 -2.060666 0.342198 0
M  V30 28 C 2.900182 -0.689866 0.594175 0
M  V30 29 C 2.230837 -0.195531 1.723666 0
M  V30 30 C 2.378321 1.128512 2.112595 0
M  V30 31 C 3.172801 2.021743 1.433044 0
M  V30 32 C 3.802587 1.472863 0.333619 0
M  V30 33 N 3.671581 0.195682 -0.057900 0
M  V30 34 C 4.694453 2.324673 -0.502108 0 CFG=2
M  V30 35 C 4.824430 1.744961 -1.903315 0
M  V30 36 O 5.919962 2.546697 0.108168 0
M  V30 37 C 3.943205 3.638176 -0.640356 0
M  V30 38 C 3.772824 4.322455 0.691725 0
M  V30 39 C 3.360790 3.431635 1.812502 0
M  V30 40 H 7.535281 -1.345308 0.722940 0
M  V30 41 H 6.389422 -1.101909 1.675540 0
M  V30 42 H 5.873703 -3.754118 0.273795 0
M  V30 43 H 4.488033 -2.043016 2.420472 0
M  V30 44 H 4.592356 -3.808136 2.419441 0
M  V30 45 H 1.034534 -5.762283 -0.989638 0
M  V30 46 H -1.218548 -2.552449 -3.712027 0
M  V30 47 H -1.509566 -1.594462 -0.188298 0
M  V30 48 H -3.477319 -0.837401 1.003820 0
M  V30 49 H -7.418316 -1.351053 -1.473008 0
M  V30 50 H -7.745503 0.189255 -0.645078 0
M  V30 51 H -8.728656 -2.338214 0.133220 0
M  V30 52 H -8.982389 -0.785283 0.967281 0
M  V30 53 H -7.174105 -3.802366 2.670949 0
M  V30 54 H -5.935766 -3.337662 1.480872 0
M  V30 55 H -7.561155 -3.841165 0.852040 0
M  V30 56 H -5.583662 -1.600113 2.525485 0
M  V30 57 H -6.849981 -0.549841 3.203662 0
M  V30 58 H -5.023230 0.386297 1.555121 0
M  V30 59 H -6.779109 0.835422 1.257149 0
M  V30 60 H -5.733997 -1.522105 -2.597844 0
M  V30 61 H -3.733040 -2.268724 -3.723446 0
M  V30 62 H 1.578856 -0.804937 2.332730 0
M  V30 63 H 1.850481 1.494813 2.990340 0
M  V30 64 H 4.570848 2.488805 -2.679656 0
M  V30 65 H 4.122463 0.885771 -1.980538 0
M  V30 66 H 5.840537 1.319040 -2.027364 0
M  V30 67 H 6.512998 2.947528 -0.576911 0
M  V30 68 H 2.947498 3.376212 -1.083048 0
M  V30 69 H 4.430711 4.319543 -1.338561 0
M  V30 70 H 4.760773 4.805898 0.905395 0
M  V30 71 H 3.057778 5.177289 0.515027 0
M  V30 72 H 2.396689 3.858678 2.219539 0
M  V30 73 H 4.057992 3.481710 2.675900 0
M  V30 END ATOM
M  V30 BEGIN BOND
M  V30 1 2 1 2
M  V30 2 1 2 3
M  V30 3 1 3 4
M  V30 4 1 4 5
M  V30 5 2 5 6
M  V30 6 1 5 7
M  V30 7 2 7 8
M  V30 8 1 8 9
M  V30 9 2 9 10
M  V30 10 1 10 11
M  V30 11 1 11 12
M  V30 12 2 12 13
M  V30 13 1 13 14
M  V30 14 2 14 15
M  V30 15 1 15 16
M  V30 16 1 16 17
M  V30 17 1 17 18
M  V30 18 1 18 19
M  V30 19 1 19 20
M  V30 20 1 19 21
M  V30 21 1 21 22
M  V30 22 1 15 23
M  V30 23 2 23 24
M  V30 24 1 10 25
M  V30 25 2 25 26
M  V30 26 1 26 27
M  V30 27 1 27 28
M  V30 28 2 28 29
M  V30 29 1 29 30
M  V30 30 2 30 31
M  V30 31 1 31 32
M  V30 32 2 32 33
M  V30 33 1 32 34
M  V30 34 1 34 35
M  V30 35 1 34 36 CFG=1
M  V30 36 1 34 37
M  V30 37 1 37 38
M  V30 38 1 38 39
M  V30 39 1 27 4
M  V30 40 1 33 28
M  V30 41 1 26 7
M  V30 42 1 39 31
M  V30 43 1 24 12
M  V30 44 1 22 16
M  V30 45 1 1 40
M  V30 46 1 1 41
M  V30 47 1 2 42
M  V30 48 1 3 43
M  V30 49 1 3 44
M  V30 50 1 8 45
M  V30 51 1 11 46
M  V30 52 1 13 47
M  V30 53 1 14 48
M  V30 54 1 17 49
M  V30 55 1 17 50
M  V30 56 1 18 51
M  V30 57 1 18 52
M  V30 58 1 20 53
M  V30 59 1 20 54
M  V30 60 1 20 55
M  V30 61 1 21 56
M  V30 62 1 21 57
M  V30 63 1 22 58
M  V30 64 1 22 59
M  V30 65 1 23 60
M  V30 66 1 24 61
M  V30 67 1 29 62
M  V30 68 1 30 63
M  V30 69 1 35 64
M  V30 70 1 35 65
M  V30 71 1 35 66
M  V30 72 1 36 67
M  V30 73 1 37 68
M  V30 74 1 37 69
M  V30 75 1 38 70
M  V30 76 1 38 71
M  V30 77 1 39 72
M  V30 78 1 39 73
M  V30 END BOND
M  V30 END CTAB
M  END
>  <Dataset>  (690) 
ChEMBL_Kinases

>  <Ligand_Instance>  (690) 
nan

>  <PDB_ID>  (690) 
nan

>  <Standardized_SMILES>  (690) 
C=CCn1c(=O)c2cnc(Nc3ccc(N4CCN(C)CC4)cc3)nc2n1-c1ccc2c(n1)[C@](C)(O)CCC2

>  <Name>  (690) 
nan

>  <Pocket>  (690) 
nan

>  <ATP_Site>  (690) 
nan

>  <Peripheral>  (690) 
nan

>  <Num_H_Atoms_ProtBoundConf>  (690) 
nan

>  <Num_Resolved_Atoms>  (690) 
nan

>  <Num_Not_Resolved_Atoms>  (690) 
nan

$$$$
CHEMBL4857865
     RDKit          3D

  0  0  0  0  0  0  0  0  0  0999 V3000
M  V30 BEGIN CTAB
M  V30 COUNTS 43 44 0 0 0
M  V30 BEGIN ATOM
M  V30 1 C -0.852871 -5.772107 2.098395 0
M  V30 2 C 0.069579 -5.564183 0.917417 0
M  V30 3 C 0.122092 -4.111139 0.487203 0 CFG=1
M  V30 4 C -1.290259 -3.760627 0.115341 0
M  V30 5 C 0.677874 -3.331393 1.619270 0 CFG=1
M  V30 6 N 2.006333 -3.826451 1.918629 0
M  V30 7 C 0.726687 -1.888311 1.462673 0
M  V30 8 O -0.483872 -1.540454 1.220404 0
M  V30 9 N 1.743512 -0.917275 1.521766 0
M  V30 10 C 1.344603 0.429586 1.301822 0
M  V30 11 C 0.962329 1.183684 2.393336 0
M  V30 12 C 0.569151 2.497803 2.209318 0
M  V30 13 C 0.530710 3.124993 0.981180 0
M  V30 14 C 0.100949 4.513191 0.897048 0
M  V30 15 C -0.021412 5.347343 -0.191122 0
M  V30 16 N -0.458372 6.522426 0.296533 0
M  V30 17 C -0.596431 6.400417 1.646673 0
M  V30 18 O -0.254017 5.191881 1.962102 0
M  V30 19 C 0.918245 2.344205 -0.085920 0
M  V30 20 O 0.905298 2.907550 -1.354053 0
M  V30 21 C 1.290342 2.158860 -2.479939 0
M  V30 22 C 1.316293 1.030348 0.060291 0
M  V30 23 H -1.456167 -4.908928 2.373072 0
M  V30 24 H -0.287379 -6.055218 3.028804 0
M  V30 25 H -1.567498 -6.604403 1.912188 0
M  V30 26 H -0.340025 -6.180139 0.067800 0
M  V30 27 H 1.065391 -5.989674 1.127162 0
M  V30 28 H 0.755347 -4.061112 -0.416940 0
M  V30 29 H -1.370485 -2.921754 -0.594597 0
M  V30 30 H -1.722147 -4.635021 -0.415056 0
M  V30 31 H -1.946757 -3.527378 0.955433 0
M  V30 32 H 0.071503 -3.566987 2.533845 0
M  V30 33 H 1.953317 -4.746622 2.452167 0
M  V30 34 H 2.401665 -3.137714 2.626641 0
M  V30 35 H 2.648373 -1.346391 1.720650 0
M  V30 36 H 0.976196 0.735473 3.374931 0
M  V30 37 H 0.282285 3.019670 3.135198 0
M  V30 38 H 0.190512 5.100875 -1.211716 0
M  V30 39 H -0.924126 7.132032 2.375222 0
M  V30 40 H 1.031789 2.707935 -3.410759 0
M  V30 41 H 0.860580 1.142749 -2.521839 0
M  V30 42 H 2.408785 2.098701 -2.454740 0
M  V30 43 H 1.617047 0.424179 -0.767044 0
M  V30 END ATOM
M  V30 BEGIN BOND
M  V30 1 1 1 2
M  V30 2 1 2 3
M  V30 3 1 3 4
M  V30 4 1 3 5
M  V30 5 1 5 6
M  V30 6 1 5 7
M  V30 7 2 7 8
M  V30 8 1 7 9
M  V30 9 1 9 10
M  V30 10 2 10 11
M  V30 11 1 11 12
M  V30 12 2 12 13
M  V30 13 1 13 14
M  V30 14 2 14 15
M  V30 15 1 15 16
M  V30 16 2 16 17
M  V30 17 1 17 18
M  V30 18 1 13 19
M  V30 19 1 19 20
M  V30 20 1 20 21
M  V30 21 2 19 22
M  V30 22 1 22 10
M  V30 23 1 18 14
M  V30 24 1 1 23
M  V30 25 1 1 24
M  V30 26 1 1 25
M  V30 27 1 2 26
M  V30 28 1 2 27
M  V30 29 1 3 28 CFG=3
M  V30 30 1 4 29
M  V30 31 1 4 30
M  V30 32 1 4 31
M  V30 33 1 5 32 CFG=1
M  V30 34 1 6 33
M  V30 35 1 6 34
M  V30 36 1 9 35
M  V30 37 1 11 36
M  V30 38 1 12 37
M  V30 39 1 15 38
M  V30 40 1 17 39
M  V30 41 1 21 40
M  V30 42 1 21 41
M  V30 43 1 21 42
M  V30 44 1 22 43
M  V30 END BOND
M  V30 END CTAB
M  END
>  <Dataset>  (691) 
ChEMBL_Kinases

>  <Ligand_Instance>  (691) 
nan

>  <PDB_ID>  (691) 
nan

>  <Standardized_SMILES>  (691) 
CC[C@@H](C)[C@@H](N)C(=O)Nc1ccc(-c2cnco2)c(OC)c1

>  <Name>  (691) 
nan

>  <Pocket>  (691) 
nan

>  <ATP_Site>  (691) 
nan

>  <Peripheral>  (691) 
nan

>  <Num_H_Atoms_ProtBoundConf>  (691) 
nan

>  <Num_Resolved_Atoms>  (691) 
nan

>  <Num_Not_Resolved_Atoms>  (691) 
nan

$$$$
CHEMBL4072721
     RDKit          3D

  0  0  0  0  0  0  0  0  0  0999 V3000
M  V30 BEGIN CTAB
M  V30 COUNTS 41 44 0 0 0
M  V30 BEGIN ATOM
M  V30 1 C 0.588559 -4.559446 1.280541 0
M  V30 2 C 0.603552 -3.278114 2.120295 0
M  V30 3 N -0.715549 -2.697163 2.092570 0
M  V30 4 C -1.116743 -1.804297 1.168794 0
M  V30 5 N -0.426868 -1.229238 0.060011 0
M  V30 6 C 0.308533 -0.024705 0.217097 0
M  V30 7 O 0.249730 0.414438 1.416676 0
M  V30 8 C 1.046164 0.642597 -0.849763 0
M  V30 9 C 1.117680 0.179288 -2.148447 0
M  V30 10 C 1.836277 0.863715 -3.110086 0
M  V30 11 N 2.484717 2.014684 -2.770474 0
M  V30 12 C 2.402915 2.454658 -1.488670 0
M  V30 13 N 3.081584 3.666485 -1.116923 0
M  V30 14 C 4.357223 3.942442 -1.369916 0
M  V30 15 C 4.624736 5.193840 -0.855523 0
M  V30 16 N 3.504648 5.681310 -0.286416 0
M  V30 17 C 2.573268 4.726065 -0.460066 0
M  V30 18 C 1.700467 1.806654 -0.501003 0
M  V30 19 N -2.403821 -1.471076 1.440322 0
M  V30 20 C -2.830387 -2.142208 2.529227 0
M  V30 21 C -4.035626 -2.159835 3.204821 0
M  V30 22 C -4.210362 -2.965776 4.329570 0
M  V30 23 C -3.114294 -3.728385 4.710341 0
M  V30 24 C -1.895651 -3.720749 4.040251 0
M  V30 25 C -1.749265 -2.913346 2.928998 0
M  V30 26 H -0.116381 -4.448191 0.422470 0
M  V30 27 H 1.601083 -4.824378 0.914062 0
M  V30 28 H 0.267534 -5.429180 1.917495 0
M  V30 29 H 0.902996 -3.515800 3.166392 0
M  V30 30 H 1.339938 -2.583109 1.636510 0
M  V30 31 H -0.442245 -1.676028 -0.897641 0
M  V30 32 H 0.595697 -0.733810 -2.391473 0
M  V30 33 H 1.857288 0.452477 -4.114417 0
M  V30 34 H 5.103290 3.343714 -1.879271 0
M  V30 35 H 5.577116 5.743509 -0.881030 0
M  V30 36 H 1.536439 4.723709 -0.148913 0
M  V30 37 H 1.673538 2.208374 0.502446 0
M  V30 38 H -4.872332 -1.550232 2.879059 0
M  V30 39 H -5.131373 -3.002421 4.875470 0
M  V30 40 H -3.244248 -4.367114 5.597116 0
M  V30 41 H -1.076993 -4.329412 4.374580 0
M  V30 END ATOM
M  V30 BEGIN BOND
M  V30 1 1 1 2
M  V30 2 1 2 3
M  V30 3 1 3 4
M  V30 4 1 4 5
M  V30 5 1 5 6
M  V30 6 2 6 7
M  V30 7 1 6 8
M  V30 8 2 8 9
M  V30 9 1 9 10
M  V30 10 2 10 11
M  V30 11 1 11 12
M  V30 12 1 12 13
M  V30 13 1 13 14
M  V30 14 2 14 15
M  V30 15 1 15 16
M  V30 16 2 16 17
M  V30 17 2 12 18
M  V30 18 2 4 19
M  V30 19 1 19 20
M  V30 20 2 20 21
M  V30 21 1 21 22
M  V30 22 2 22 23
M  V30 23 1 23 24
M  V30 24 2 24 25
M  V30 25 1 25 3
M  V30 26 1 18 8
M  V30 27 1 25 20
M  V30 28 1 17 13
M  V30 29 1 1 26
M  V30 30 1 1 27
M  V30 31 1 1 28
M  V30 32 1 2 29
M  V30 33 1 2 30
M  V30 34 1 5 31
M  V30 35 1 9 32
M  V30 36 1 10 33
M  V30 37 1 14 34
M  V30 38 1 15 35
M  V30 39 1 17 36
M  V30 40 1 18 37
M  V30 41 1 21 38
M  V30 42 1 22 39
M  V30 43 1 23 40
M  V30 44 1 24 41
M  V30 END BOND
M  V30 END CTAB
M  END
>  <Dataset>  (692) 
ChEMBL_Kinases

>  <Ligand_Instance>  (692) 
nan

>  <PDB_ID>  (692) 
nan

>  <Standardized_SMILES>  (692) 
CCn1c(NC(=O)c2ccnc(-n3ccnc3)c2)nc2ccccc21

>  <Name>  (692) 
nan

>  <Pocket>  (692) 
nan

>  <ATP_Site>  (692) 
nan

>  <Peripheral>  (692) 
nan

>  <Num_H_Atoms_ProtBoundConf>  (692) 
nan

>  <Num_Resolved_Atoms>  (692) 
nan

>  <Num_Not_Resolved_Atoms>  (692) 
nan

$$$$
CHEMBL4857929
     RDKit          3D

  0  0  0  0  0  0  0  0  0  0999 V3000
M  V30 BEGIN CTAB
M  V30 COUNTS 47 49 0 0 0
M  V30 BEGIN ATOM
M  V30 1 C -0.736227 -2.917098 3.298675 0
M  V30 2 N -1.074172 -3.464532 2.018805 0
M  V30 3 C -0.787851 -3.506067 0.633000 0
M  V30 4 N 0.234167 -2.765329 0.185985 0
M  V30 5 C 0.563213 -2.771774 -1.110711 0
M  V30 6 N 1.540519 -2.085921 -1.877321 0
M  V30 7 C 1.801387 -0.672887 -1.758553 0
M  V30 8 C 2.690911 0.031919 -2.533333 0
M  V30 9 N 2.895352 1.349584 -2.392428 0
M  V30 10 C 2.241075 2.087608 -1.471429 0
M  V30 11 C 2.457414 3.518742 -1.327695 0
M  V30 12 N 2.630665 4.660481 -1.192459 0
M  V30 13 C 1.330690 1.463543 -0.648630 0
M  V30 14 N 0.583323 2.175102 0.369191 0
M  V30 15 C -0.398028 1.740053 1.333586 0 CFG=2
M  V30 16 C -0.926760 2.868855 2.176378 0
M  V30 17 C -0.012127 3.247097 3.306380 0
M  V30 18 C 1.038441 2.194028 3.576405 0
M  V30 19 N 0.309617 0.923620 3.563654 0
M  V30 20 C 0.166852 0.610844 2.130843 0
M  V30 21 C 1.135064 0.106307 -0.811746 0
M  V30 22 N -0.164491 -3.547383 -1.947957 0
M  V30 23 C -1.195366 -4.302094 -1.538987 0
M  V30 24 C -1.548215 -4.308329 -0.214247 0
M  V30 25 C -2.688265 -5.104776 0.289837 0
M  V30 26 F -3.634794 -4.251780 0.839099 0
M  V30 27 F -3.217596 -5.800831 -0.777269 0
M  V30 28 F -2.320539 -6.034961 1.230683 0
M  V30 29 H -0.422293 -3.699315 4.016356 0
M  V30 30 H 0.081881 -2.157251 3.282369 0
M  V30 31 H -1.597214 -2.335175 3.758211 0
M  V30 32 H -1.883822 -4.095419 2.324851 0
M  V30 33 H 2.145504 -2.564497 -2.584912 0
M  V30 34 H 3.248473 -0.534422 -3.299523 0
M  V30 35 H 0.804415 3.200924 0.416265 0
M  V30 36 H -1.240097 1.352706 0.720830 0
M  V30 37 H -1.901230 2.593646 2.621331 0
M  V30 38 H -1.099234 3.731895 1.514619 0
M  V30 39 H -0.557821 3.401207 4.259230 0
M  V30 40 H 0.515038 4.186694 3.079055 0
M  V30 41 H 1.485372 2.378885 4.559158 0
M  V30 42 H 1.759830 2.154752 2.732314 0
M  V30 43 H 0.929809 0.204629 3.955667 0
M  V30 44 H 1.236746 0.460588 1.812257 0
M  V30 45 H -0.461048 -0.279952 1.990249 0
M  V30 46 H 0.434223 -0.455562 -0.210364 0
M  V30 47 H -1.802705 -4.932623 -2.176128 0
M  V30 END ATOM
M  V30 BEGIN BOND
M  V30 1 1 1 2
M  V30 2 1 2 3
M  V30 3 2 3 4
M  V30 4 1 4 5
M  V30 5 1 5 6
M  V30 6 1 6 7
M  V30 7 2 7 8
M  V30 8 1 8 9
M  V30 9 2 9 10
M  V30 10 1 10 11
M  V30 11 3 11 12
M  V30 12 1 10 13
M  V30 13 1 13 14
M  V30 14 1 14 15
M  V30 15 1 15 16
M  V30 16 1 16 17
M  V30 17 1 17 18
M  V30 18 1 18 19
M  V30 19 1 19 20
M  V30 20 2 13 21
M  V30 21 2 5 22
M  V30 22 1 22 23
M  V30 23 2 23 24
M  V30 24 1 24 25
M  V30 25 1 25 26
M  V30 26 1 25 27
M  V30 27 1 25 28
M  V30 28 1 24 3
M  V30 29 1 21 7
M  V30 30 1 20 15
M  V30 31 1 1 29
M  V30 32 1 1 30
M  V30 33 1 1 31
M  V30 34 1 2 32
M  V30 35 1 6 33
M  V30 36 1 8 34
M  V30 37 1 14 35
M  V30 38 1 15 36 CFG=3
M  V30 39 1 16 37
M  V30 40 1 16 38
M  V30 41 1 17 39
M  V30 42 1 17 40
M  V30 43 1 18 41
M  V30 44 1 18 42
M  V30 45 1 19 43
M  V30 46 1 20 44
M  V30 47 1 20 45
M  V30 48 1 21 46
M  V30 49 1 23 47
M  V30 END BOND
M  V30 END CTAB
M  END
>  <Dataset>  (693) 
ChEMBL_Kinases

>  <Ligand_Instance>  (693) 
nan

>  <PDB_ID>  (693) 
nan

>  <Standardized_SMILES>  (693) 
CNc1nc(Nc2cnc(C#N)c(N[C@@H]3CCCNC3)c2)ncc1C(F)(F)F

>  <Name>  (693) 
nan

>  <Pocket>  (693) 
nan

>  <ATP_Site>  (693) 
nan

>  <Peripheral>  (693) 
nan

>  <Num_H_Atoms_ProtBoundConf>  (693) 
nan

>  <Num_Resolved_Atoms>  (693) 
nan

>  <Num_Not_Resolved_Atoms>  (693) 
nan

$$$$
CHEMBL4072693
     RDKit          3D

  0  0  0  0  0  0  0  0  0  0999 V3000
M  V30 BEGIN CTAB
M  V30 COUNTS 32 34 0 0 0
M  V30 BEGIN ATOM
M  V30 1 N -0.722813 -1.513502 4.130974 0
M  V30 2 C 0.263139 -1.770376 3.589675 0
M  V30 3 C 1.492243 -2.099851 2.940087 0
M  V30 4 C 2.505953 -2.808630 3.594277 0
M  V30 5 N 3.537292 -2.973857 2.746347 0
M  V30 6 C 3.209814 -2.393156 1.577350 0
M  V30 7 N 3.841830 -2.256327 0.409499 0
M  V30 8 C 3.279231 -1.608553 -0.646251 0
M  V30 9 N 3.941007 -1.451196 -1.907443 0
M  V30 10 N 2.046989 -1.095115 -0.493591 0
M  V30 11 C 1.329498 -1.176982 0.632169 0
M  V30 12 N 0.031141 -0.609758 0.721581 0
M  V30 13 C -0.503968 0.066558 -0.446470 0
M  V30 14 C -1.865804 0.614741 -0.225338 0
M  V30 15 C -2.022112 1.913375 0.260897 0
M  V30 16 C -3.277347 2.473481 0.485170 0
M  V30 17 C -4.413894 1.722405 0.218990 0
M  V30 18 C -4.266475 0.438046 -0.261812 0
M  V30 19 C -3.015814 -0.124764 -0.487038 0
M  V30 20 C 1.946657 -1.842480 1.667522 0
M  V30 21 H 2.503638 -3.183414 4.617619 0
M  V30 22 H 4.459066 -3.467828 2.931367 0
M  V30 23 H 4.090444 -0.409160 -2.052488 0
M  V30 24 H 4.153483 -2.309857 -2.438610 0
M  V30 25 H -0.591245 -0.618776 1.529321 0
M  V30 26 H -0.506746 -0.582410 -1.355297 0
M  V30 27 H 0.147019 0.949556 -0.689253 0
M  V30 28 H -1.120262 2.482630 0.462145 0
M  V30 29 H -3.362082 3.487833 0.864506 0
M  V30 30 H -5.397266 2.112586 0.376558 0
M  V30 31 H -5.133554 -0.173805 -0.479372 0
M  V30 32 H -2.881176 -1.135711 -0.865716 0
M  V30 END ATOM
M  V30 BEGIN BOND
M  V30 1 3 1 2
M  V30 2 1 2 3
M  V30 3 2 3 4
M  V30 4 1 4 5
M  V30 5 1 5 6
M  V30 6 2 6 7
M  V30 7 1 7 8
M  V30 8 1 8 9
M  V30 9 2 8 10
M  V30 10 1 10 11
M  V30 11 1 11 12
M  V30 12 1 12 13
M  V30 13 1 13 14
M  V30 14 2 14 15
M  V30 15 1 15 16
M  V30 16 2 16 17
M  V30 17 1 17 18
M  V30 18 2 18 19
M  V30 19 2 11 20
M  V30 20 1 20 3
M  V30 21 1 20 6
M  V30 22 1 19 14
M  V30 23 1 4 21
M  V30 24 1 5 22
M  V30 25 1 9 23
M  V30 26 1 9 24
M  V30 27 1 12 25
M  V30 28 1 13 26
M  V30 29 1 13 27
M  V30 30 1 15 28
M  V30 31 1 16 29
M  V30 32 1 17 30
M  V30 33 1 18 31
M  V30 34 1 19 32
M  V30 END BOND
M  V30 END CTAB
M  END
>  <Dataset>  (694) 
ChEMBL_Kinases

>  <Ligand_Instance>  (694) 
nan

>  <PDB_ID>  (694) 
nan

>  <Standardized_SMILES>  (694) 
N#Cc1c[nH]c2nc(N)nc(NCc3ccccc3)c12

>  <Name>  (694) 
nan

>  <Pocket>  (694) 
nan

>  <ATP_Site>  (694) 
nan

>  <Peripheral>  (694) 
nan

>  <Num_H_Atoms_ProtBoundConf>  (694) 
nan

>  <Num_Resolved_Atoms>  (694) 
nan

>  <Num_Not_Resolved_Atoms>  (694) 
nan

$$$$
CHEMBL4857940
     RDKit          3D

  0  0  0  0  0  0  0  0  0  0999 V3000
M  V30 BEGIN CTAB
M  V30 COUNTS 43 45 0 0 0
M  V30 BEGIN ATOM
M  V30 1 C -0.811332 -4.188997 3.667018 0
M  V30 2 N -1.011604 -3.621953 2.381184 0
M  V30 3 C -1.182521 -3.068527 1.124643 0
M  V30 4 N -0.379571 -2.644282 0.139861 0
M  V30 5 C -0.782136 -2.129227 -1.026040 0
M  V30 6 N 0.328674 -1.777777 -1.826738 0
M  V30 7 C 0.380817 -0.333728 -1.752141 0
M  V30 8 C -0.664035 0.492571 -2.216885 0
M  V30 9 N -0.627798 1.830364 -2.106763 0
M  V30 10 C 0.399033 2.474588 -1.547431 0
M  V30 11 C 0.552088 3.881836 -1.381131 0
M  V30 12 N 0.689627 5.027428 -1.232053 0
M  V30 13 C 1.456211 1.736101 -1.069158 0
M  V30 14 O 2.660668 2.092380 -0.423136 0
M  V30 15 C 2.583005 1.944093 0.987768 0 CFG=2
M  V30 16 C 3.599040 2.693611 1.756331 0
M  V30 17 C 3.492552 1.998079 3.119542 0
M  V30 18 N 3.124127 0.653323 2.863427 0
M  V30 19 C 2.844636 0.500455 1.439012 0
M  V30 20 C 1.430212 0.356501 -1.179988 0
M  V30 21 N -2.092903 -2.050751 -1.166751 0
M  V30 22 C -2.999945 -2.432737 -0.276697 0
M  V30 23 C -2.579547 -2.977801 0.954278 0
M  V30 24 C -3.677177 -3.384346 1.865871 0
M  V30 25 F -3.648613 -2.737286 3.077986 0
M  V30 26 F -4.898840 -3.153341 1.278086 0
M  V30 27 F -3.621987 -4.772158 2.138247 0
M  V30 28 H -0.412871 -5.219019 3.660831 0
M  V30 29 H -0.160232 -3.602842 4.377990 0
M  V30 30 H -1.809759 -4.294317 4.221000 0
M  V30 31 H 0.071778 -3.617836 2.291060 0
M  V30 32 H 1.010627 -2.358183 -2.382717 0
M  V30 33 H -1.539066 0.008724 -2.686737 0
M  V30 34 H 1.541500 2.215024 1.333948 0
M  V30 35 H 3.396871 3.780679 1.819863 0
M  V30 36 H 4.637258 2.444507 1.397817 0
M  V30 37 H 2.669984 2.501038 3.668121 0
M  V30 38 H 4.445736 2.081376 3.674059 0
M  V30 39 H 3.761408 -0.076541 3.161651 0
M  V30 40 H 3.727260 0.143684 0.900767 0
M  V30 41 H 1.929357 -0.140061 1.321840 0
M  V30 42 H 2.195802 -0.358548 -0.887300 0
M  V30 43 H -4.053366 -2.295486 -0.571743 0
M  V30 END ATOM
M  V30 BEGIN BOND
M  V30 1 1 1 2
M  V30 2 1 2 3
M  V30 3 2 3 4
M  V30 4 1 4 5
M  V30 5 1 5 6
M  V30 6 1 6 7
M  V30 7 2 7 8
M  V30 8 1 8 9
M  V30 9 2 9 10
M  V30 10 1 10 11
M  V30 11 3 11 12
M  V30 12 1 10 13
M  V30 13 1 13 14
M  V30 14 1 14 15
M  V30 15 1 15 16
M  V30 16 1 16 17
M  V30 17 1 17 18
M  V30 18 1 18 19
M  V30 19 2 13 20
M  V30 20 2 5 21
M  V30 21 1 21 22
M  V30 22 2 22 23
M  V30 23 1 23 24
M  V30 24 1 24 25
M  V30 25 1 24 26
M  V30 26 1 24 27
M  V30 27 1 23 3
M  V30 28 1 20 7
M  V30 29 1 19 15
M  V30 30 1 1 28
M  V30 31 1 1 29
M  V30 32 1 1 30
M  V30 33 1 2 31
M  V30 34 1 6 32
M  V30 35 1 8 33
M  V30 36 1 15 34 CFG=1
M  V30 37 1 16 35
M  V30 38 1 16 36
M  V30 39 1 17 37
M  V30 40 1 17 38
M  V30 41 1 18 39
M  V30 42 1 19 40
M  V30 43 1 19 41
M  V30 44 1 20 42
M  V30 45 1 22 43
M  V30 END BOND
M  V30 END CTAB
M  END
>  <Dataset>  (695) 
ChEMBL_Kinases

>  <Ligand_Instance>  (695) 
nan

>  <PDB_ID>  (695) 
nan

>  <Standardized_SMILES>  (695) 
CNc1nc(Nc2cnc(C#N)c(O[C@@H]3CCNC3)c2)ncc1C(F)(F)F

>  <Name>  (695) 
nan

>  <Pocket>  (695) 
nan

>  <ATP_Site>  (695) 
nan

>  <Peripheral>  (695) 
nan

>  <Num_H_Atoms_ProtBoundConf>  (695) 
nan

>  <Num_Resolved_Atoms>  (695) 
nan

>  <Num_Not_Resolved_Atoms>  (695) 
nan

$$$$
CHEMBL4072622
     RDKit          3D

  0  0  0  0  0  0  0  0  0  0999 V3000
M  V30 BEGIN CTAB
M  V30 COUNTS 42 45 0 0 0
M  V30 BEGIN ATOM
M  V30 1 O 0.585141 -3.476098 3.262095 0
M  V30 2 C 1.222779 -3.759606 2.199341 0
M  V30 3 N 1.848797 -5.053388 2.087561 0
M  V30 4 C 1.974189 -5.596888 0.742698 0
M  V30 5 C 2.721177 -4.613758 -0.125183 0
M  V30 6 N 2.092633 -3.313395 -0.014565 0
M  V30 7 C 2.058798 -2.275849 -0.896448 0
M  V30 8 C 1.356395 -1.221449 -0.406746 0
M  V30 9 C 1.071746 0.075363 -1.006190 0
M  V30 10 C 1.541598 0.386798 -2.266860 0
M  V30 11 C 1.221213 1.649831 -2.761226 0
M  V30 12 N 0.488578 2.542998 -2.060814 0
M  V30 13 C 0.039673 2.215558 -0.828907 0
M  V30 14 N -0.739558 3.033205 0.037499 0
M  V30 15 C -1.192662 2.632372 1.345524 0
M  V30 16 C -0.085588 2.298296 2.287128 0
M  V30 17 C -0.538050 1.457066 3.435903 0
M  V30 18 O -1.912794 1.403238 3.573959 0
M  V30 19 C -2.474052 0.770454 2.460405 0
M  V30 20 C -2.190017 1.504036 1.184572 0
M  V30 21 N 0.354471 1.010446 -0.376108 0
M  V30 22 C 0.919240 -1.603894 0.851132 0
M  V30 23 C 1.389968 -2.882959 1.048232 0
M  V30 24 H 2.187460 -5.552466 2.961546 0
M  V30 25 H 0.944591 -5.689546 0.301931 0
M  V30 26 H 2.483570 -6.578692 0.776404 0
M  V30 27 H 2.726026 -4.984883 -1.167083 0
M  V30 28 H 3.757504 -4.512137 0.301580 0
M  V30 29 H 2.522436 -2.260689 -1.872245 0
M  V30 30 H 2.129277 -0.300526 -2.855412 0
M  V30 31 H 1.560865 1.962723 -3.753085 0
M  V30 32 H -0.951860 3.981233 -0.392053 0
M  V30 33 H -1.752728 3.493787 1.766277 0
M  V30 34 H 0.331789 3.262659 2.679374 0
M  V30 35 H 0.787165 1.788182 1.831949 0
M  V30 36 H -0.121535 0.414883 3.410120 0
M  V30 37 H -0.142031 1.881205 4.397228 0
M  V30 38 H -2.092725 -0.290048 2.425373 0
M  V30 39 H -3.560075 0.677086 2.687848 0
M  V30 40 H -1.894284 0.770452 0.408673 0
M  V30 41 H -3.135936 1.965054 0.831449 0
M  V30 42 H 0.331710 -1.003202 1.518836 0
M  V30 END ATOM
M  V30 BEGIN BOND
M  V30 1 2 1 2
M  V30 2 1 2 3
M  V30 3 1 3 4
M  V30 4 1 4 5
M  V30 5 1 5 6
M  V30 6 1 6 7
M  V30 7 2 7 8
M  V30 8 1 8 9
M  V30 9 2 9 10
M  V30 10 1 10 11
M  V30 11 2 11 12
M  V30 12 1 12 13
M  V30 13 1 13 14
M  V30 14 1 14 15
M  V30 15 1 15 16
M  V30 16 1 16 17
M  V30 17 1 17 18
M  V30 18 1 18 19
M  V30 19 1 19 20
M  V30 20 2 13 21
M  V30 21 1 8 22
M  V30 22 2 22 23
M  V30 23 1 23 2
M  V30 24 1 23 6
M  V30 25 1 21 9
M  V30 26 1 20 15
M  V30 27 1 3 24
M  V30 28 1 4 25
M  V30 29 1 4 26
M  V30 30 1 5 27
M  V30 31 1 5 28
M  V30 32 1 7 29
M  V30 33 1 10 30
M  V30 34 1 11 31
M  V30 35 1 14 32
M  V30 36 1 15 33
M  V30 37 1 16 34
M  V30 38 1 16 35
M  V30 39 1 17 36
M  V30 40 1 17 37
M  V30 41 1 19 38
M  V30 42 1 19 39
M  V30 43 1 20 40
M  V30 44 1 20 41
M  V30 45 1 22 42
M  V30 END BOND
M  V30 END CTAB
M  END
>  <Dataset>  (696) 
ChEMBL_Kinases

>  <Ligand_Instance>  (696) 
nan

>  <PDB_ID>  (696) 
nan

>  <Standardized_SMILES>  (696) 
O=C1NCCn2cc(-c3ccnc(NC4CCOCC4)n3)cc21

>  <Name>  (696) 
nan

>  <Pocket>  (696) 
nan

>  <ATP_Site>  (696) 
nan

>  <Peripheral>  (696) 
nan

>  <Num_H_Atoms_ProtBoundConf>  (696) 
nan

>  <Num_Resolved_Atoms>  (696) 
nan

>  <Num_Not_Resolved_Atoms>  (696) 
nan

$$$$
CHEMBL4857955
     RDKit          3D

  0  0  0  0  0  0  0  0  0  0999 V3000
M  V30 BEGIN CTAB
M  V30 COUNTS 67 71 0 0 0
M  V30 BEGIN ATOM
M  V30 1 O 0.641681 -3.999029 3.557429 0
M  V30 2 C 0.336319 -2.789693 3.706638 0
M  V30 3 N 1.214522 -1.736437 3.413112 0
M  V30 4 C 2.544287 -1.631704 2.923600 0
M  V30 5 C 3.604525 -1.617134 3.791505 0
M  V30 6 N 4.867860 -1.513577 3.285164 0
M  V30 7 C 5.050893 -1.427213 1.935784 0
M  V30 8 C 4.019378 -1.437388 1.019276 0
M  V30 9 C 4.318422 -1.338978 -0.400471 0
M  V30 10 O 5.538682 -1.243571 -0.692507 0
M  V30 11 N 3.291807 -1.351139 -1.377676 0
M  V30 12 C 3.636797 -1.250370 -2.773201 0
M  V30 13 C 3.114220 0.045785 -3.348566 0
M  V30 14 C 1.578335 0.053797 -3.328928 0
M  V30 15 N 1.087272 -1.290434 -3.603553 0
M  V30 16 C -0.243064 -1.297816 -4.130096 0
M  V30 17 C -1.158387 -0.674269 -3.150671 0
M  V30 18 C -1.764282 -1.493493 -2.191382 0
M  V30 19 C -2.638825 -1.069438 -1.212877 0
M  V30 20 C -2.941775 0.285336 -1.179344 0
M  V30 21 C -2.365320 1.139425 -2.110959 0
M  V30 22 C -1.495925 0.656012 -3.067986 0
M  V30 23 C 2.040753 -1.969777 -4.459945 0
M  V30 24 C 3.218013 -2.383024 -3.610902 0
M  V30 25 C 2.755076 -1.543142 1.563528 0
M  V30 26 C -0.994288 -2.468666 4.208862 0
M  V30 27 C -1.822641 -3.535463 4.487252 0
M  V30 28 C -3.119600 -3.360595 4.972856 0
M  V30 29 N -3.561290 -2.113715 5.170183 0
M  V30 30 C -2.772832 -1.040870 4.906691 0
M  V30 31 N -3.171715 0.328766 5.091104 0
M  V30 32 C -3.801257 1.088198 4.063466 0
M  V30 33 O -4.041740 0.594446 2.934865 0
M  V30 34 C -4.223388 2.495117 4.217605 0
M  V30 35 C -5.435107 2.999220 3.471814 0
M  V30 36 C -4.089129 3.403032 3.031987 0
M  V30 37 C -1.470380 -1.200563 4.419497 0
M  V30 38 H 1.031904 -0.716515 3.511519 0
M  V30 39 H 3.462128 -1.685777 4.869437 0
M  V30 40 H 6.096484 -1.349410 1.658315 0
M  V30 41 H 2.286915 -1.430808 -1.125067 0
M  V30 42 H 4.743887 -1.173981 -2.815695 0
M  V30 43 H 3.418948 0.226695 -4.384257 0
M  V30 44 H 3.428976 0.926707 -2.758233 0
M  V30 45 H 1.273736 0.789092 -4.099209 0
M  V30 46 H 1.177804 0.425286 -2.365027 0
M  V30 47 H -0.316192 -0.686129 -5.066626 0
M  V30 48 H -0.575200 -2.327337 -4.285874 0
M  V30 49 H -1.528534 -2.554187 -2.215858 0
M  V30 50 H -3.048914 -1.793587 -0.520681 0
M  V30 51 H -3.629489 0.594549 -0.403581 0
M  V30 52 H -2.613102 2.189773 -2.068797 0
M  V30 53 H -1.046128 1.309623 -3.792303 0
M  V30 54 H 1.582316 -2.832373 -4.987398 0
M  V30 55 H 2.366379 -1.272063 -5.256092 0
M  V30 56 H 4.058504 -2.750334 -4.267014 0
M  V30 57 H 2.833334 -3.265989 -3.022861 0
M  V30 58 H 1.917354 -1.554494 0.878074 0
M  V30 59 H -1.532127 -4.582421 4.351381 0
M  V30 60 H -3.755196 -4.209648 5.185685 0
M  V30 61 H -3.009876 0.830521 6.010819 0
M  V30 62 H -4.004491 2.921582 5.220555 0
M  V30 63 H -6.104637 3.755197 3.964462 0
M  V30 64 H -5.985915 2.313169 2.823414 0
M  V30 65 H -3.675575 3.007423 2.080780 0
M  V30 66 H -3.747487 4.454603 3.242244 0
M  V30 67 H -0.842941 -0.371019 4.209507 0
M  V30 END ATOM
M  V30 BEGIN BOND
M  V30 1 2 1 2
M  V30 2 1 2 3
M  V30 3 1 3 4
M  V30 4 2 4 5
M  V30 5 1 5 6
M  V30 6 2 6 7
M  V30 7 1 7 8
M  V30 8 1 8 9
M  V30 9 2 9 10
M  V30 10 1 9 11
M  V30 11 1 11 12
M  V30 12 1 12 13
M  V30 13 1 13 14
M  V30 14 1 14 15
M  V30 15 1 15 16
M  V30 16 1 16 17
M  V30 17 2 17 18
M  V30 18 1 18 19
M  V30 19 2 19 20
M  V30 20 1 20 21
M  V30 21 2 21 22
M  V30 22 1 15 23
M  V30 23 1 23 24
M  V30 24 2 8 25
M  V30 25 1 2 26
M  V30 26 2 26 27
M  V30 27 1 27 28
M  V30 28 2 28 29
M  V30 29 1 29 30
M  V30 30 1 30 31
M  V30 31 1 31 32
M  V30 32 2 32 33
M  V30 33 1 32 34
M  V30 34 1 34 35
M  V30 35 1 35 36
M  V30 36 2 30 37
M  V30 37 1 25 4
M  V30 38 1 37 26
M  V30 39 1 24 12
M  V30 40 1 36 34
M  V30 41 1 22 17
M  V30 42 1 3 38
M  V30 43 1 5 39
M  V30 44 1 7 40
M  V30 45 1 11 41
M  V30 46 1 12 42
M  V30 47 1 13 43
M  V30 48 1 13 44
M  V30 49 1 14 45
M  V30 50 1 14 46
M  V30 51 1 16 47
M  V30 52 1 16 48
M  V30 53 1 18 49
M  V30 54 1 19 50
M  V30 55 1 20 51
M  V30 56 1 21 52
M  V30 57 1 22 53
M  V30 58 1 23 54
M  V30 59 1 23 55
M  V30 60 1 24 56
M  V30 61 1 24 57
M  V30 62 1 25 58
M  V30 63 1 27 59
M  V30 64 1 28 60
M  V30 65 1 31 61
M  V30 66 1 34 62
M  V30 67 1 35 63
M  V30 68 1 35 64
M  V30 69 1 36 65
M  V30 70 1 36 66
M  V30 71 1 37 67
M  V30 END BOND
M  V30 END CTAB
M  END
>  <Dataset>  (697) 
ChEMBL_Kinases

>  <Ligand_Instance>  (697) 
nan

>  <PDB_ID>  (697) 
nan

>  <Standardized_SMILES>  (697) 
O=C(Nc1cncc(C(=O)NC2CCN(Cc3ccccc3)CC2)c1)c1ccnc(NC(=O)C2CC2)c1

>  <Name>  (697) 
nan

>  <Pocket>  (697) 
nan

>  <ATP_Site>  (697) 
nan

>  <Peripheral>  (697) 
nan

>  <Num_H_Atoms_ProtBoundConf>  (697) 
nan

>  <Num_Resolved_Atoms>  (697) 
nan

>  <Num_Not_Resolved_Atoms>  (697) 
nan

$$$$
CHEMBL4857965
     RDKit          3D

  0  0  0  0  0  0  0  0  0  0999 V3000
M  V30 BEGIN CTAB
M  V30 COUNTS 50 53 0 0 0
M  V30 BEGIN ATOM
M  V30 1 N 0.882354 -5.584961 1.089234 0
M  V30 2 C 1.422229 -4.563945 1.919598 0
M  V30 3 O 1.967861 -5.039790 2.938459 0
M  V30 4 C 1.383008 -3.128395 1.678824 0
M  V30 5 C 1.983541 -2.349227 2.638617 0
M  V30 6 C 1.988303 -0.971340 2.477911 0
M  V30 7 C 1.378286 -0.448381 1.341802 0
M  V30 8 C 0.788844 -1.272861 0.407309 0
M  V30 9 C 0.210664 -0.649758 -0.685946 0
M  V30 10 N 0.174421 0.774296 -0.936247 0
M  V30 11 C -0.469854 1.264810 -2.124802 0 CFG=2
M  V30 12 C -1.936177 1.079182 -2.207803 0
M  V30 13 N -2.627676 1.745360 -1.152248 0
M  V30 14 C -4.084312 1.710763 -1.365370 0
M  V30 15 C -4.670253 2.040749 -0.009519 0
M  V30 16 C -3.684519 1.493067 0.967183 0
M  V30 17 C -2.474556 1.093185 0.140952 0
M  V30 18 C 0.224552 0.678674 -3.340220 0
M  V30 19 C 1.616458 0.770932 -3.246282 0
M  V30 20 C 2.419591 0.290469 -4.247200 0
M  V30 21 C 1.873029 -0.303075 -5.386049 0
M  V30 22 C 0.488008 -0.378094 -5.445899 0
M  V30 23 F -0.203016 -0.929850 -6.489763 0
M  V30 24 C -0.339599 0.097163 -4.453815 0
M  V30 25 N -0.354726 -1.462225 -1.579900 0
M  V30 26 C -0.356644 -2.785601 -1.421008 0
M  V30 27 N 0.195200 -3.405840 -0.374739 0
M  V30 28 C 0.773710 -2.639633 0.548412 0
M  V30 29 H 0.064840 -6.226458 1.054416 0
M  V30 30 H 1.499826 -5.748532 0.240161 0
M  V30 31 H 2.452590 -2.772118 3.515059 0
M  V30 32 H 2.466371 -0.381531 3.246081 0
M  V30 33 H 1.416287 0.626766 1.278588 0
M  V30 34 H 0.602999 1.471797 -0.291442 0
M  V30 35 H -0.206300 2.366666 -2.214255 0
M  V30 36 H -2.331756 1.403509 -3.206755 0
M  V30 37 H -2.137555 -0.025992 -2.156240 0
M  V30 38 H -4.418179 0.741856 -1.774895 0
M  V30 39 H -4.360056 2.506262 -2.077004 0
M  V30 40 H -5.642385 1.555456 0.138842 0
M  V30 41 H -4.695070 3.152687 0.120651 0
M  V30 42 H -4.064256 0.577594 1.493956 0
M  V30 43 H -3.385181 2.246381 1.727601 0
M  V30 44 H -1.575895 1.473107 0.619352 0
M  V30 45 H -2.441163 0.004799 0.042226 0
M  V30 46 H 2.204421 1.199563 -2.437385 0
M  V30 47 H 3.506060 0.323493 -4.252081 0
M  V30 48 H 2.423024 -0.713708 -6.232281 0
M  V30 49 H -1.403754 0.074916 -4.427792 0
M  V30 50 H -0.858905 -3.328444 -2.236809 0
M  V30 END ATOM
M  V30 BEGIN BOND
M  V30 1 1 1 2
M  V30 2 2 2 3
M  V30 3 1 2 4
M  V30 4 2 4 5
M  V30 5 1 5 6
M  V30 6 2 6 7
M  V30 7 1 7 8
M  V30 8 2 8 9
M  V30 9 1 9 10
M  V30 10 1 10 11
M  V30 11 1 11 12
M  V30 12 1 12 13
M  V30 13 1 13 14
M  V30 14 1 14 15
M  V30 15 1 15 16
M  V30 16 1 16 17
M  V30 17 1 11 18
M  V30 18 2 18 19
M  V30 19 1 19 20
M  V30 20 2 20 21
M  V30 21 1 21 22
M  V30 22 1 22 23
M  V30 23 2 22 24
M  V30 24 1 9 25
M  V30 25 2 25 26
M  V30 26 1 26 27
M  V30 27 2 27 28
M  V30 28 1 28 4
M  V30 29 1 28 8
M  V30 30 1 17 13
M  V30 31 1 24 18
M  V30 32 1 1 29
M  V30 33 1 1 30
M  V30 34 1 5 31
M  V30 35 1 6 32
M  V30 36 1 7 33
M  V30 37 1 10 34
M  V30 38 1 11 35 CFG=3
M  V30 39 1 12 36
M  V30 40 1 12 37
M  V30 41 1 14 38
M  V30 42 1 14 39
M  V30 43 1 15 40
M  V30 44 1 15 41
M  V30 45 1 16 42
M  V30 46 1 16 43
M  V30 47 1 17 44
M  V30 48 1 17 45
M  V30 49 1 19 46
M  V30 50 1 20 47
M  V30 51 1 21 48
M  V30 52 1 24 49
M  V30 53 1 26 50
M  V30 END BOND
M  V30 END CTAB
M  END
>  <Dataset>  (698) 
ChEMBL_Kinases

>  <Ligand_Instance>  (698) 
nan

>  <PDB_ID>  (698) 
nan

>  <Standardized_SMILES>  (698) 
NC(=O)c1cccc2c(N[C@H](CN3CCCC3)c3cccc(F)c3)ncnc12

>  <Name>  (698) 
nan

>  <Pocket>  (698) 
nan

>  <ATP_Site>  (698) 
nan

>  <Peripheral>  (698) 
nan

>  <Num_H_Atoms_ProtBoundConf>  (698) 
nan

>  <Num_Resolved_Atoms>  (698) 
nan

>  <Num_Not_Resolved_Atoms>  (698) 
nan

$$$$
CHEMBL4857982
     RDKit          3D

  0  0  0  0  0  0  0  0  0  0999 V3000
M  V30 BEGIN CTAB
M  V30 COUNTS 55 59 0 0 0
M  V30 BEGIN ATOM
M  V30 1 C 7.411248 -2.418832 1.075413 0
M  V30 2 N 6.596761 -1.478484 1.782473 0
M  V30 3 C 7.007090 -0.903195 3.049966 0
M  V30 4 C 5.341039 -1.079063 1.246639 0
M  V30 5 C 4.889430 -1.586885 0.046559 0
M  V30 6 C 3.683646 -1.242617 -0.528765 0
M  V30 7 C 2.883713 -0.329413 0.148465 0
M  V30 8 C 1.571476 0.175225 -0.277424 0
M  V30 9 C 0.571941 0.546449 0.594905 0
M  V30 10 C -0.624801 1.008257 0.093168 0
M  V30 11 C -0.846004 1.107532 -1.256263 0
M  V30 12 C -2.067955 1.582058 -1.684642 0
M  V30 13 N -3.137811 1.981884 -0.837288 0
M  V30 14 C -3.952969 1.344021 0.138829 0
M  V30 15 C -4.852452 2.101474 0.859170 0
M  V30 16 C -5.602310 1.393207 1.774550 0
M  V30 17 N -5.518141 0.070249 2.001405 0
M  V30 18 C -4.661707 -0.676898 1.321606 0
M  V30 19 C -4.541386 -2.112918 1.538523 0
M  V30 20 C -3.678841 -2.975982 0.880898 0
M  V30 21 C -3.656147 -4.322161 1.173586 0
M  V30 22 F -2.780548 -5.129821 0.489929 0
M  V30 23 C -4.494955 -4.836362 2.130135 0
M  V30 24 C -5.381122 -4.035297 2.825856 0
M  V30 25 C -5.358418 -2.698130 2.490019 0
M  V30 26 F -6.237764 -1.904024 3.180207 0
M  V30 27 C -3.896224 -0.009307 0.400207 0
M  V30 28 C -2.205909 1.655210 -3.061104 0
M  V30 29 C -1.247221 1.301109 -3.986462 0
M  V30 30 N -0.098610 0.852563 -3.452748 0
M  V30 31 C 0.147800 0.738877 -2.139065 0
M  V30 32 C 1.354876 0.273230 -1.648402 0
M  V30 33 C 3.333775 0.190491 1.365916 0
M  V30 34 N 4.534287 -0.202231 1.861464 0
M  V30 35 H 7.059420 -3.472174 1.280355 0
M  V30 36 H 7.437938 -2.285026 -0.009353 0
M  V30 37 H 8.438530 -2.380904 1.516411 0
M  V30 38 H 7.070106 0.210143 2.922298 0
M  V30 39 H 8.014795 -1.231865 3.351968 0
M  V30 40 H 6.277567 -1.063315 3.847662 0
M  V30 41 H 5.465016 -2.303054 -0.532202 0
M  V30 42 H 3.283253 -1.599666 -1.448605 0
M  V30 43 H 0.755253 0.464684 1.652148 0
M  V30 44 H -1.374931 1.291467 0.812863 0
M  V30 45 H -3.282144 2.986457 -1.055305 0
M  V30 46 H -4.985848 3.171552 0.740865 0
M  V30 47 H -6.328563 1.977691 2.362419 0
M  V30 48 H -3.039463 -2.538318 0.141349 0
M  V30 49 H -4.495558 -5.897966 2.379255 0
M  V30 50 H -6.053458 -4.412542 3.584378 0
M  V30 51 H -3.153462 -0.540089 -0.216944 0
M  V30 52 H -3.168289 2.029781 -3.423781 0
M  V30 53 H -1.425990 1.385346 -5.049777 0
M  V30 54 H 2.136430 -0.016764 -2.350756 0
M  V30 55 H 2.828692 0.903412 2.004276 0
M  V30 END ATOM
M  V30 BEGIN BOND
M  V30 1 1 1 2
M  V30 2 1 2 3
M  V30 3 1 2 4
M  V30 4 2 4 5
M  V30 5 1 5 6
M  V30 6 2 6 7
M  V30 7 1 7 8
M  V30 8 2 8 9
M  V30 9 1 9 10
M  V30 10 2 10 11
M  V30 11 1 11 12
M  V30 12 1 12 13
M  V30 13 1 13 14
M  V30 14 2 14 15
M  V30 15 1 15 16
M  V30 16 2 16 17
M  V30 17 1 17 18
M  V30 18 1 18 19
M  V30 19 2 19 20
M  V30 20 1 20 21
M  V30 21 1 21 22
M  V30 22 2 21 23
M  V30 23 1 23 24
M  V30 24 2 24 25
M  V30 25 1 25 26
M  V30 26 2 18 27
M  V30 27 2 12 28
M  V30 28 1 28 29
M  V30 29 2 29 30
M  V30 30 1 30 31
M  V30 31 2 31 32
M  V30 32 1 7 33
M  V30 33 2 33 34
M  V30 34 1 34 4
M  V30 35 1 32 8
M  V30 36 1 31 11
M  V30 37 1 27 14
M  V30 38 1 25 19
M  V30 39 1 1 35
M  V30 40 1 1 36
M  V30 41 1 1 37
M  V30 42 1 3 38
M  V30 43 1 3 39
M  V30 44 1 3 40
M  V30 45 1 5 41
M  V30 46 1 6 42
M  V30 47 1 9 43
M  V30 48 1 10 44
M  V30 49 1 13 45
M  V30 50 1 15 46
M  V30 51 1 16 47
M  V30 52 1 20 48
M  V30 53 1 23 49
M  V30 54 1 24 50
M  V30 55 1 27 51
M  V30 56 1 28 52
M  V30 57 1 29 53
M  V30 58 1 32 54
M  V30 59 1 33 55
M  V30 END BOND
M  V30 END CTAB
M  END
>  <Dataset>  (699) 
ChEMBL_Kinases

>  <Ligand_Instance>  (699) 
nan

>  <PDB_ID>  (699) 
nan

>  <Standardized_SMILES>  (699) 
CN(C)c1ccc(-c2ccc3c(Nc4ccnc(-c5cc(F)ccc5F)c4)ccnc3c2)cn1

>  <Name>  (699) 
nan

>  <Pocket>  (699) 
nan

>  <ATP_Site>  (699) 
nan

>  <Peripheral>  (699) 
nan

>  <Num_H_Atoms_ProtBoundConf>  (699) 
nan

>  <Num_Resolved_Atoms>  (699) 
nan

>  <Num_Not_Resolved_Atoms>  (699) 
nan

$$$$
CHEMBL4073609
     RDKit          3D

  0  0  0  0  0  0  0  0  0  0999 V3000
M  V30 BEGIN CTAB
M  V30 COUNTS 63 67 0 0 0
M  V30 BEGIN ATOM
M  V30 1 C 4.359173 -2.843933 -3.229078 0
M  V30 2 C 4.427472 -1.349250 -3.125747 0
M  V30 3 C 3.168563 -0.715140 -2.577534 0
M  V30 4 C 3.317798 0.808894 -2.517587 0
M  V30 5 C 2.062604 1.417303 -1.970404 0
M  V30 6 C 2.034715 1.539162 -0.576027 0
M  V30 7 C 0.934602 2.068940 0.065273 0
M  V30 8 C -0.156328 2.484063 -0.685594 0
M  V30 9 C -1.360331 3.040883 -0.315339 0
M  V30 10 C -1.893772 3.313394 1.026824 0
M  V30 11 C -1.853436 2.341376 1.942275 0
M  V30 12 O -1.349317 1.101019 1.714495 0
M  V30 13 C -1.403733 0.247953 2.800563 0
M  V30 14 C -1.982430 0.971282 3.813935 0
M  V30 15 C -2.165624 0.360894 5.035053 0
M  V30 16 C -1.771683 -0.946376 5.222110 0
M  V30 17 C -1.190251 -1.675216 4.208612 0
M  V30 18 O -0.734828 -2.982337 4.212770 0
M  V30 19 C -0.794987 -3.834019 5.326604 0
M  V30 20 C -0.990561 -1.082942 2.953991 0
M  V30 21 C -0.373693 -1.711633 1.755487 0
M  V30 22 N -1.281835 -2.081822 0.731790 0
M  V30 23 C -0.748969 -2.653135 -0.439731 0
M  V30 24 C -1.546023 -3.758636 -1.073860 0
M  V30 25 N -2.925612 -3.266466 -1.165885 0
M  V30 26 C -3.438746 -3.163709 0.185855 0
M  V30 27 C -2.630133 -2.285995 1.064261 0
M  V30 28 C -2.291380 2.310204 3.329839 0
M  V30 29 O -2.830550 3.289269 3.941366 0
M  V30 30 C -2.038197 3.250579 -1.507252 0
M  V30 31 N -1.245771 2.823436 -2.530290 0
M  V30 32 C -0.067015 2.339009 -2.053377 0
M  V30 33 N 0.989100 1.827816 -2.707204 0
M  V30 34 H 3.489614 -3.215161 -3.803164 0
M  V30 35 H 4.386478 -3.318982 -2.205359 0
M  V30 36 H 5.251706 -3.155984 -3.823241 0
M  V30 37 H 5.247371 -1.139396 -2.375830 0
M  V30 38 H 4.712809 -0.922128 -4.105275 0
M  V30 39 H 2.913992 -1.138464 -1.601538 0
M  V30 40 H 2.354709 -0.925526 -3.302064 0
M  V30 41 H 4.161536 1.099243 -1.885508 0
M  V30 42 H 3.431501 1.156362 -3.570738 0
M  V30 43 H 2.889117 1.214846 0.027680 0
M  V30 44 H 0.984068 2.151082 1.125546 0
M  V30 45 H -2.323446 4.254584 1.338939 0
M  V30 46 H -2.618884 0.905291 5.851187 0
M  V30 47 H -1.881526 -1.492362 6.146638 0
M  V30 48 H -0.679392 -4.906554 5.027774 0
M  V30 49 H -1.760676 -3.724184 5.898680 0
M  V30 50 H -0.006038 -3.505050 6.049029 0
M  V30 51 H 0.402315 -1.040630 1.334782 0
M  V30 52 H 0.206435 -2.595421 2.155398 0
M  V30 53 H -0.711164 -1.833223 -1.218593 0
M  V30 54 H 0.278000 -3.033686 -0.246468 0
M  V30 55 H -1.489697 -4.723512 -0.542617 0
M  V30 56 H -1.174457 -3.878161 -2.127450 0
M  V30 57 H -3.500648 -4.010633 -1.638913 0
M  V30 58 H -3.550383 -4.214619 0.548605 0
M  V30 59 H -4.477941 -2.785043 0.107056 0
M  V30 60 H -3.130775 -1.272200 1.073295 0
M  V30 61 H -2.719952 -2.622178 2.127125 0
M  V30 62 H -3.029828 3.676906 -1.656613 0
M  V30 63 H -1.539130 2.877349 -3.544265 0
M  V30 END ATOM
M  V30 BEGIN BOND
M  V30 1 1 1 2
M  V30 2 1 2 3
M  V30 3 1 3 4
M  V30 4 1 4 5
M  V30 5 2 5 6
M  V30 6 1 6 7
M  V30 7 2 7 8
M  V30 8 1 8 9
M  V30 9 1 9 10
M  V30 10 2 10 11
M  V30 11 1 11 12
M  V30 12 1 12 13
M  V30 13 2 13 14
M  V30 14 1 14 15
M  V30 15 2 15 16
M  V30 16 1 16 17
M  V30 17 1 17 18
M  V30 18 1 18 19
M  V30 19 2 17 20
M  V30 20 1 20 21
M  V30 21 1 21 22
M  V30 22 1 22 23
M  V30 23 1 23 24
M  V30 24 1 24 25
M  V30 25 1 25 26
M  V30 26 1 26 27
M  V30 27 1 14 28
M  V30 28 2 28 29
M  V30 29 2 9 30
M  V30 30 1 30 31
M  V30 31 1 31 32
M  V30 32 2 32 33
M  V30 33 1 33 5
M  V30 34 1 32 8
M  V30 35 1 28 11
M  V30 36 1 20 13
M  V30 37 1 27 22
M  V30 38 1 1 34
M  V30 39 1 1 35
M  V30 40 1 1 36
M  V30 41 1 2 37
M  V30 42 1 2 38
M  V30 43 1 3 39
M  V30 44 1 3 40
M  V30 45 1 4 41
M  V30 46 1 4 42
M  V30 47 1 6 43
M  V30 48 1 7 44
M  V30 49 1 10 45
M  V30 50 1 15 46
M  V30 51 1 16 47
M  V30 52 1 19 48
M  V30 53 1 19 49
M  V30 54 1 19 50
M  V30 55 1 21 51
M  V30 56 1 21 52
M  V30 57 1 23 53
M  V30 58 1 23 54
M  V30 59 1 24 55
M  V30 60 1 24 56
M  V30 61 1 25 57
M  V30 62 1 26 58
M  V30 63 1 26 59
M  V30 64 1 27 60
M  V30 65 1 27 61
M  V30 66 1 30 62
M  V30 67 1 31 63
M  V30 END BOND
M  V30 END CTAB
M  END
>  <Dataset>  (700) 
ChEMBL_Kinases

>  <Ligand_Instance>  (700) 
nan

>  <PDB_ID>  (700) 
nan

>  <Standardized_SMILES>  (700) 
CCCCc1ccc2c(/C=C3\Oc4c(ccc(OC)c4CN4CCNCC4)C3=O)c[nH]c2n1

>  <Name>  (700) 
nan

>  <Pocket>  (700) 
nan

>  <ATP_Site>  (700) 
nan

>  <Peripheral>  (700) 
nan

>  <Num_H_Atoms_ProtBoundConf>  (700) 
nan

>  <Num_Resolved_Atoms>  (700) 
nan

>  <Num_Not_Resolved_Atoms>  (700) 
nan

$$$$
CHEMBL4072540
     RDKit          3D

  0  0  0  0  0  0  0  0  0  0999 V3000
M  V30 BEGIN CTAB
M  V30 COUNTS 205 211 0 0 0
M  V30 BEGIN ATOM
M  V30 1 C 5.101552 7.675136 2.907856 0
M  V30 2 C 3.927710 8.098973 2.050254 0
M  V30 3 N 2.932390 7.051019 1.959958 0
M  V30 4 C 2.749927 6.336612 0.699767 0
M  V30 5 C 3.257300 6.542139 -0.583017 0
M  V30 6 C 2.950609 5.745401 -1.669249 0
M  V30 7 S 3.611433 6.022974 -3.262474 0
M  V30 8 O 3.448174 4.728109 -4.057923 0
M  V30 9 O 5.055851 6.329538 -3.274699 0
M  V30 10 O 2.670759 7.212212 -4.010509 0
M  V30 11 C 2.077782 4.665163 -1.476294 0
M  V30 12 C 1.562819 4.435737 -0.232140 0
M  V30 13 C 1.887797 5.235901 0.797954 0
M  V30 14 C 1.507489 5.249075 2.158851 0
M  V30 15 C 0.723261 4.462655 2.812510 0
M  V30 16 C 0.029973 3.331456 2.195198 0
M  V30 17 C -0.723500 2.690995 3.099691 0
M  V30 18 C -1.584687 1.510307 2.870470 0
M  V30 19 C -2.240768 1.010669 3.871049 0
M  V30 20 C -3.132413 -0.133275 3.787863 0
M  V30 21 N -3.706477 -0.578787 4.887880 0 CHG=1 VAL=4
M  V30 22 C -3.660158 -0.173092 6.286966 0
M  V30 23 C -3.130905 -1.261812 7.181256 0
M  V30 24 C -4.543528 -1.642096 4.498492 0
M  V30 25 C -5.426310 -2.477434 5.185796 0
M  V30 26 C -6.209686 -3.456249 4.620218 0
M  V30 27 C -6.143446 -3.659143 3.265357 0
M  V30 28 S -7.110700 -4.833579 2.443705 0
M  V30 29 O -7.538010 -5.937465 3.385004 0
M  V30 30 O -6.396040 -5.472763 1.305608 0
M  V30 31 O -8.497358 -4.123480 1.821039 0 CHG=-1 VAL=1
M  V30 32 C -5.285397 -2.863187 2.543565 0
M  V30 33 C -4.513025 -1.886521 3.151171 0
M  V30 34 C -3.527995 -0.892721 2.592450 0
M  V30 35 C -2.429505 -1.630407 1.906948 0
M  V30 36 C -4.343325 -0.054268 1.622173 0
M  V30 37 C 2.040898 6.481976 2.859464 0
M  V30 38 C 2.590406 6.060261 4.180467 0
M  V30 39 C 0.747453 7.291349 3.163670 0
M  V30 40 C 0.044045 7.576042 1.894280 0
M  V30 41 C -1.421304 7.923568 1.923892 0
M  V30 42 C -2.121440 6.626738 2.385230 0
M  V30 43 O -2.511200 5.873723 3.310479 0
M  V30 44 N -2.511025 5.845869 1.244878 0
M  V30 45 C -3.123151 4.576836 0.769963 0
M  V30 46 C -3.073662 4.539632 -0.707347 0
M  V30 47 C -3.379645 3.175293 -1.290236 0
M  V30 48 C -3.252637 3.300819 -2.786120 0
M  V30 49 C -3.248486 2.102256 -3.644070 0 CFG=2
M  V30 50 N -4.298811 1.185263 -3.670497 0
M  V30 51 C -5.456090 0.495681 -3.174249 0
M  V30 52 O -5.770274 0.869321 -2.037433 0
M  V30 53 C -6.165212 -0.549806 -3.956825 0
M  V30 54 C -6.524236 -1.740875 -3.020401 0
M  V30 55 C -5.198894 -2.248187 -2.576616 0
M  V30 56 C -5.223332 -3.458687 -1.675860 0
M  V30 57 C -3.791649 -3.831799 -1.399944 0
M  V30 58 C -3.545324 -5.018182 -0.548363 0
M  V30 59 C -2.012076 -5.245841 -0.440294 0
M  V30 60 C -1.769924 -6.488169 0.421254 0
M  V30 61 N -0.321470 -6.699895 0.498514 0
M  V30 62 C 0.235807 -7.468755 -0.463190 0
M  V30 63 O -0.492022 -8.013331 -1.348190 0
M  V30 64 C 1.583025 -7.646109 -0.462031 0
M  V30 65 C 2.150413 -8.422026 -1.446481 0
M  V30 66 C 3.514482 -8.612932 -1.479945 0
M  V30 67 N 4.325366 -8.037722 -0.540511 0
M  V30 68 C 3.758380 -7.272947 0.435108 0
M  V30 69 C 2.407526 -7.074497 0.482854 0
M  V30 70 C 1.814576 -6.306313 1.446461 0
M  V30 71 C 2.605756 -5.726576 2.407167 0
M  V30 72 C 2.049078 -4.927355 3.418099 0
M  V30 73 C 0.656353 -4.792790 3.344121 0
M  V30 74 C 0.038565 -3.967629 4.386488 0
M  V30 75 O 0.630837 -3.394995 5.324628 0
M  V30 76 O -1.338561 -3.760182 4.399203 0
M  V30 77 C -0.159746 -5.361727 2.395258 0
M  V30 78 C 0.457104 -6.127105 1.442137 0
M  V30 79 C -1.862005 1.485751 -3.682830 0
M  V30 80 O -1.017984 2.466430 -3.567875 0
M  V30 81 N -1.216784 0.221961 -3.796941 0
M  V30 82 C 0.209299 0.198098 -3.732091 0 CFG=1
M  V30 83 C 0.698470 -0.932957 -2.828392 0
M  V30 84 C 0.211031 -2.194790 -3.423908 0
M  V30 85 O 0.759706 -2.662524 -4.453590 0
M  V30 86 O -0.778399 -3.164098 -3.193349 0
M  V30 87 C 0.883234 -0.068186 -5.057194 0
M  V30 88 O 0.210105 -0.360787 -6.075220 0
M  V30 89 N 2.309983 0.053824 -4.963642 0
M  V30 90 C 3.126081 -0.185869 -6.148907 0 CFG=1
M  V30 91 C 3.858253 1.135804 -6.491210 0
M  V30 92 C 4.676897 0.877231 -7.704919 0
M  V30 93 O 5.092650 0.121653 -8.611082 0
M  V30 94 O 5.534086 1.473431 -8.584782 0
M  V30 95 C 4.168158 -1.168968 -5.810798 0
M  V30 96 O 4.703502 -1.699840 -6.825229 0
M  V30 97 N 4.725364 -1.666805 -4.638797 0
M  V30 98 C 5.607434 -2.521820 -3.974628 0 CFG=1
M  V30 99 C 7.083831 -2.429655 -4.404710 0
M  V30 100 C 7.255943 -2.800660 -5.825926 0
M  V30 101 O 7.922962 -2.194492 -6.727968 0
M  V30 102 O 6.776734 -3.854787 -6.579711 0
M  V30 103 C 5.532830 -2.463449 -2.529758 0
M  V30 104 O 6.270616 -3.395166 -2.060318 0
M  V30 105 N 4.875246 -1.660110 -1.570879 0
M  V30 106 C 4.976703 -1.809233 -0.128349 0 CFG=1
M  V30 107 C 5.832521 -0.687651 0.426535 0
M  V30 108 C 5.984248 -0.815016 1.884257 0
M  V30 109 O 5.636129 -1.597212 2.838313 0
M  V30 110 O 6.745121 0.244223 2.407239 0
M  V30 111 C 3.639677 -1.774220 0.502886 0
M  V30 112 O 3.306710 -1.839691 1.730668 0
M  V30 113 O 2.273790 -1.714605 0.809841 0
M  V30 114 H 5.111739 8.169587 3.894477 0
M  V30 115 H 5.119540 6.570647 3.091311 0
M  V30 116 H 6.056713 8.000669 2.395006 0
M  V30 117 H 4.206036 8.476454 1.061791 0
M  V30 118 H 3.471364 8.984140 2.584121 0
M  V30 119 H 3.925522 7.350776 -0.803078 0
M  V30 120 H 1.753961 6.851359 -4.132388 0
M  V30 121 H 1.851030 4.069003 -2.346285 0
M  V30 122 H 0.920968 3.598200 -0.204217 0
M  V30 123 H 0.606038 4.671425 3.869411 0
M  V30 124 H -0.210416 2.718500 1.354611 0
M  V30 125 H -0.741182 3.042602 4.160513 0
M  V30 126 H -1.688809 1.057004 1.919557 0
M  V30 127 H -2.102391 1.508695 4.852516 0
M  V30 128 H -3.106305 0.775147 6.417276 0
M  V30 129 H -4.735746 0.005074 6.587986 0
M  V30 130 H -3.203231 -2.219423 6.657513 0
M  V30 131 H -3.666217 -1.336461 8.156369 0
M  V30 132 H -2.073846 -0.985400 7.417239 0
M  V30 133 H -5.545038 -2.385868 6.274807 0
M  V30 134 H -6.867110 -4.062242 5.201305 0
M  V30 135 H -5.162741 -2.949444 1.479238 0
M  V30 136 H -1.537078 -1.836626 2.535441 0
M  V30 137 H -2.842321 -2.641173 1.626954 0
M  V30 138 H -2.091733 -1.112691 0.983753 0
M  V30 139 H -4.127366 -0.378913 0.606870 0
M  V30 140 H -5.423295 -0.067288 1.828158 0
M  V30 141 H -4.025181 1.007398 1.728449 0
M  V30 142 H 3.064593 5.066546 4.111994 0
M  V30 143 H 3.248460 6.849860 4.619887 0
M  V30 144 H 1.734003 5.946281 4.896608 0
M  V30 145 H 1.069358 8.186954 3.717220 0
M  V30 146 H 0.199661 6.641507 3.871240 0
M  V30 147 H 0.545222 8.484318 1.420053 0
M  V30 148 H 0.129282 6.799005 1.102548 0
M  V30 149 H -1.592898 8.693559 2.669339 0
M  V30 150 H -1.811313 8.237798 0.989871 0
M  V30 151 H -2.297679 6.285773 0.303357 0
M  V30 152 H -2.718650 3.719240 1.289678 0
M  V30 153 H -4.197242 4.699635 1.076706 0
M  V30 154 H -3.840982 5.234085 -1.170289 0
M  V30 155 H -2.096513 4.871264 -1.131721 0
M  V30 156 H -4.389706 2.926267 -0.926763 0
M  V30 157 H -2.679679 2.479015 -0.818720 0
M  V30 158 H -2.263677 3.863813 -2.903751 0
M  V30 159 H -3.970801 4.100932 -3.142459 0
M  V30 160 H -3.307776 2.617304 -4.698692 0
M  V30 161 H -4.091353 0.690010 -4.610880 0
M  V30 162 H -5.608911 -0.908441 -4.820998 0
M  V30 163 H -7.176500 -0.164387 -4.284534 0
M  V30 164 H -7.016171 -2.490199 -3.653378 0
M  V30 165 H -7.212419 -1.404322 -2.252209 0
M  V30 166 H -4.625361 -2.502647 -3.520020 0
M  V30 167 H -4.576575 -1.464277 -2.084003 0
M  V30 168 H -5.812223 -3.330447 -0.769188 0
M  V30 169 H -5.731975 -4.271465 -2.268063 0
M  V30 170 H -3.313678 -3.928010 -2.411891 0
M  V30 171 H -3.334972 -2.957119 -0.845987 0
M  V30 172 H -3.942755 -4.830502 0.462454 0
M  V30 173 H -3.952404 -5.929110 -0.996381 0
M  V30 174 H -1.522331 -4.408025 0.052495 0
M  V30 175 H -1.621654 -5.389059 -1.447773 0
M  V30 176 H -2.187345 -7.337397 -0.153721 0
M  V30 177 H -2.285502 -6.468524 1.372704 0
M  V30 178 H 1.514938 -8.885262 -2.190953 0
M  V30 179 H 3.943986 -9.222138 -2.261039 0
M  V30 180 H 4.470211 -6.874076 1.118969 0
M  V30 181 H 3.664792 -5.799842 2.499347 0
M  V30 182 H 2.610615 -4.444643 4.210346 0
M  V30 183 H -1.777117 -3.034454 4.928823 0
M  V30 184 H -1.229420 -5.178409 2.465309 0
M  V30 185 H -2.008465 -0.426383 -3.906746 0
M  V30 186 H 0.612360 1.133917 -3.374503 0
M  V30 187 H 1.786505 -0.955099 -2.764806 0
M  V30 188 H 0.203828 -0.820291 -1.851434 0
M  V30 189 H -1.600447 -3.123244 -3.777728 0
M  V30 190 H 2.797318 0.314272 -4.068399 0
M  V30 191 H 2.571862 -0.465938 -7.036888 0
M  V30 192 H 3.137428 1.932712 -6.661507 0
M  V30 193 H 4.505710 1.408637 -5.643604 0
M  V30 194 H 5.722927 2.432801 -8.779077 0
M  V30 195 H 4.182603 -1.078591 -3.921616 0
M  V30 196 H 5.368474 -3.577595 -4.326751 0
M  V30 197 H 7.513675 -1.461859 -4.160578 0
M  V30 198 H 7.603647 -3.192131 -3.797119 0
M  V30 199 H 7.294434 -4.642171 -6.921813 0
M  V30 200 H 4.282807 -0.917719 -1.987048 0
M  V30 201 H 5.503058 -2.735247 0.085336 0
M  V30 202 H 5.445152 0.305440 0.168355 0
M  V30 203 H 6.846983 -0.846506 -0.035196 0
M  V30 204 H 7.250712 0.161188 3.292807 0
M  V30 205 H 1.571538 -1.663642 0.045317 0
M  V30 END ATOM
M  V30 BEGIN BOND
M  V30 1 1 1 2
M  V30 2 1 2 3
M  V30 3 1 3 4
M  V30 4 2 4 5
M  V30 5 1 5 6
M  V30 6 1 6 7
M  V30 7 2 7 8
M  V30 8 2 7 9
M  V30 9 1 7 10
M  V30 10 2 6 11
M  V30 11 1 11 12
M  V30 12 2 12 13
M  V30 13 1 13 14
M  V30 14 2 14 15
M  V30 15 1 15 16
M  V30 16 2 16 17
M  V30 17 1 17 18
M  V30 18 2 18 19
M  V30 19 1 19 20
M  V30 20 2 20 21
M  V30 21 1 21 22
M  V30 22 1 22 23
M  V30 23 1 21 24
M  V30 24 2 24 25
M  V30 25 1 25 26
M  V30 26 2 26 27
M  V30 27 1 27 28
M  V30 28 2 28 29
M  V30 29 2 28 30
M  V30 30 1 28 31
M  V30 31 1 27 32
M  V30 32 2 32 33
M  V30 33 1 33 34
M  V30 34 1 34 35
M  V30 35 1 34 36
M  V30 36 1 14 37
M  V30 37 1 37 38
M  V30 38 1 37 39
M  V30 39 1 39 40
M  V30 40 1 40 41
M  V30 41 1 41 42
M  V30 42 2 42 43
M  V30 43 1 42 44
M  V30 44 1 44 45
M  V30 45 1 45 46
M  V30 46 1 46 47
M  V30 47 1 47 48
M  V30 48 1 48 49
M  V30 49 1 49 50
M  V30 50 1 50 51
M  V30 51 2 51 52
M  V30 52 1 51 53
M  V30 53 1 53 54
M  V30 54 1 54 55
M  V30 55 1 55 56
M  V30 56 1 56 57
M  V30 57 1 57 58
M  V30 58 1 58 59
M  V30 59 1 59 60
M  V30 60 1 60 61
M  V30 61 1 61 62
M  V30 62 2 62 63
M  V30 63 1 62 64
M  V30 64 2 64 65
M  V30 65 1 65 66
M  V30 66 2 66 67
M  V30 67 1 67 68
M  V30 68 2 68 69
M  V30 69 1 69 70
M  V30 70 2 70 71
M  V30 71 1 71 72
M  V30 72 2 72 73
M  V30 73 1 73 74
M  V30 74 2 74 75
M  V30 75 1 74 76
M  V30 76 1 73 77
M  V30 77 2 77 78
M  V30 78 1 49 79
M  V30 79 2 79 80
M  V30 80 1 79 81
M  V30 81 1 81 82
M  V30 82 1 82 83
M  V30 83 1 83 84
M  V30 84 2 84 85
M  V30 85 1 84 86
M  V30 86 1 82 87
M  V30 87 2 87 88
M  V30 88 1 87 89
M  V30 89 1 89 90
M  V30 90 1 90 91
M  V30 91 1 91 92
M  V30 92 2 92 93
M  V30 93 1 92 94
M  V30 94 1 90 95
M  V30 95 2 95 96
M  V30 96 1 95 97
M  V30 97 1 97 98
M  V30 98 1 98 99
M  V30 99 1 99 100
M  V30 100 2 100 101
M  V30 101 1 100 102
M  V30 102 1 98 103
M  V30 103 2 103 104
M  V30 104 1 103 105
M  V30 105 1 105 106
M  V30 106 1 106 107
M  V30 107 1 107 108
M  V30 108 2 108 109
M  V30 109 1 108 110
M  V30 110 1 106 111
M  V30 111 2 111 112
M  V30 112 1 111 113
M  V30 113 1 37 3
M  V30 114 1 78 61
M  V30 115 1 13 4
M  V30 116 1 34 20
M  V30 117 1 69 64
M  V30 118 1 78 70
M  V30 119 1 33 24
M  V30 120 1 1 114
M  V30 121 1 1 115
M  V30 122 1 1 116
M  V30 123 1 2 117
M  V30 124 1 2 118
M  V30 125 1 5 119
M  V30 126 1 10 120
M  V30 127 1 11 121
M  V30 128 1 12 122
M  V30 129 1 15 123
M  V30 130 1 16 124
M  V30 131 1 17 125
M  V30 132 1 18 126
M  V30 133 1 19 127
M  V30 134 1 22 128
M  V30 135 1 22 129
M  V30 136 1 23 130
M  V30 137 1 23 131
M  V30 138 1 23 132
M  V30 139 1 25 133
M  V30 140 1 26 134
M  V30 141 1 32 135
M  V30 142 1 35 136
M  V30 143 1 35 137
M  V30 144 1 35 138
M  V30 145 1 36 139
M  V30 146 1 36 140
M  V30 147 1 36 141
M  V30 148 1 38 142
M  V30 149 1 38 143
M  V30 150 1 38 144
M  V30 151 1 39 145
M  V30 152 1 39 146
M  V30 153 1 40 147
M  V30 154 1 40 148
M  V30 155 1 41 149
M  V30 156 1 41 150
M  V30 157 1 44 151
M  V30 158 1 45 152
M  V30 159 1 45 153
M  V30 160 1 46 154
M  V30 161 1 46 155
M  V30 162 1 47 156
M  V30 163 1 47 157
M  V30 164 1 48 158
M  V30 165 1 48 159
M  V30 166 1 49 160 CFG=3
M  V30 167 1 50 161
M  V30 168 1 53 162
M  V30 169 1 53 163
M  V30 170 1 54 164
M  V30 171 1 54 165
M  V30 172 1 55 166
M  V30 173 1 55 167
M  V30 174 1 56 168
M  V30 175 1 56 169
M  V30 176 1 57 170
M  V30 177 1 57 171
M  V30 178 1 58 172
M  V30 179 1 58 173
M  V30 180 1 59 174
M  V30 181 1 59 175
M  V30 182 1 60 176
M  V30 183 1 60 177
M  V30 184 1 65 178
M  V30 185 1 66 179
M  V30 186 1 68 180
M  V30 187 1 71 181
M  V30 188 1 72 182
M  V30 189 1 76 183
M  V30 190 1 77 184
M  V30 191 1 81 185
M  V30 192 1 82 186 CFG=1
M  V30 193 1 83 187
M  V30 194 1 83 188
M  V30 195 1 86 189
M  V30 196 1 89 190
M  V30 197 1 90 191 CFG=3
M  V30 198 1 91 192
M  V30 199 1 91 193
M  V30 200 1 94 194
M  V30 201 1 97 195
M  V30 202 1 98 196 CFG=3
M  V30 203 1 99 197
M  V30 204 1 99 198
M  V30 205 1 102 199
M  V30 206 1 105 200
M  V30 207 1 106 201 CFG=3
M  V30 208 1 107 202
M  V30 209 1 107 203
M  V30 210 1 110 204
M  V30 211 1 113 205
M  V30 END BOND
M  V30 END CTAB
M  END
>  <Dataset>  (701) 
ChEMBL_Kinases

>  <Ligand_Instance>  (701) 
nan

>  <PDB_ID>  (701) 
nan

>  <Standardized_SMILES>  (701) 
CCN1c2cc(S(=O)(=O)O)ccc2/C(=C\C=C\C=C\C2=[N+](CC)c3ccc(S(=O)(=O)[O-])cc3C2(C)C)C1(C)CCCC(=O)NCCCC[C@H](NC(=O)CCCCCCCCn1c(=O)c2ccncc2c2ccc(C(=O)O)cc21)C(=O)N[C@@H](CC(=O)O)C(=O)N[C@@H](CC(=O)O)C(=O)N[C@@H](CC(=O)O)C(=O)N[C@@H](CC(=O)O)C(=O)O

>  <Name>  (701) 
nan

>  <Pocket>  (701) 
nan

>  <ATP_Site>  (701) 
nan

>  <Peripheral>  (701) 
nan

>  <Num_H_Atoms_ProtBoundConf>  (701) 
nan

>  <Num_Resolved_Atoms>  (701) 
nan

>  <Num_Not_Resolved_Atoms>  (701) 
nan

$$$$
CHEMBL4858091
     RDKit          3D

  0  0  0  0  0  0  0  0  0  0999 V3000
M  V30 BEGIN CTAB
M  V30 COUNTS 49 53 0 0 0
M  V30 BEGIN ATOM
M  V30 1 O 2.451842 -7.890231 1.052039 0
M  V30 2 C 1.936557 -6.675528 0.616511 0
M  V30 3 C 0.590485 -6.474882 0.395966 0
M  V30 4 C 0.044343 -5.277063 -0.038032 0
M  V30 5 C 0.902016 -4.214897 -0.264719 0
M  V30 6 C 0.453638 -2.901882 -0.722880 0
M  V30 7 C 1.179645 -1.790866 -0.310070 0
M  V30 8 C 0.766530 -0.544833 -0.735760 0
M  V30 9 C -0.320611 -0.355632 -1.541844 0
M  V30 10 C -0.645849 0.930952 -1.912985 0
M  V30 11 N 0.058536 2.102276 -1.520747 0
M  V30 12 C 0.308152 2.687387 -0.242177 0
M  V30 13 C 1.138433 3.781685 -0.124847 0
M  V30 14 C 1.322015 4.293636 1.133088 0
M  V30 15 N 0.763882 3.818603 2.243780 0
M  V30 16 C -0.062720 2.740337 2.178673 0
M  V30 17 C -0.689381 2.196443 3.377061 0
M  V30 18 C -1.539581 1.110455 3.422158 0
M  V30 19 C -2.106328 0.632190 4.566199 0
M  V30 20 F -2.930917 -0.440212 4.523266 0
M  V30 21 C -1.827520 1.258158 5.774958 0
M  V30 22 C -0.978859 2.353686 5.781987 0
M  V30 23 C -0.421095 2.810821 4.594880 0
M  V30 24 F 0.394708 3.887630 4.709122 0
M  V30 25 C -0.259150 2.216132 0.939941 0
M  V30 26 C -1.753558 1.138117 -2.743126 0
M  V30 27 C -2.440291 -0.007319 -3.124442 0
M  V30 28 N -2.104446 -1.252156 -2.749167 0
M  V30 29 C -1.041599 -1.456754 -1.952507 0
M  V30 30 C -0.646544 -2.713223 -1.538806 0
M  V30 31 C 2.252525 -4.404948 -0.046943 0
M  V30 32 C 2.779171 -5.607208 0.386155 0
M  V30 33 H 2.216704 -8.791367 0.659759 0
M  V30 34 H -0.107321 -7.279105 0.561872 0
M  V30 35 H -1.010476 -5.145185 -0.203124 0
M  V30 36 H 2.043165 -1.912756 0.327733 0
M  V30 37 H 1.364900 0.274176 -0.393472 0
M  V30 38 H 0.433797 2.569729 -2.352074 0
M  V30 39 H 1.619519 4.206797 -1.009769 0
M  V30 40 H 1.988035 5.161629 1.182786 0
M  V30 41 H -1.758120 0.625093 2.498543 0
M  V30 42 H -2.307964 0.831179 6.648114 0
M  V30 43 H -0.804818 2.790733 6.747652 0
M  V30 44 H -0.905504 1.352212 0.795417 0
M  V30 45 H -2.066423 2.122316 -3.074574 0
M  V30 46 H -3.316417 0.111510 -3.776379 0
M  V30 47 H -1.204021 -3.579733 -1.854665 0
M  V30 48 H 3.000483 -3.635271 -0.196586 0
M  V30 49 H 3.833333 -5.760283 0.557635 0
M  V30 END ATOM
M  V30 BEGIN BOND
M  V30 1 1 1 2
M  V30 2 2 2 3
M  V30 3 1 3 4
M  V30 4 2 4 5
M  V30 5 1 5 6
M  V30 6 2 6 7
M  V30 7 1 7 8
M  V30 8 2 8 9
M  V30 9 1 9 10
M  V30 10 1 10 11
M  V30 11 1 11 12
M  V30 12 2 12 13
M  V30 13 1 13 14
M  V30 14 2 14 15
M  V30 15 1 15 16
M  V30 16 1 16 17
M  V30 17 2 17 18
M  V30 18 1 18 19
M  V30 19 1 19 20
M  V30 20 2 19 21
M  V30 21 1 21 22
M  V30 22 2 22 23
M  V30 23 1 23 24
M  V30 24 2 16 25
M  V30 25 2 10 26
M  V30 26 1 26 27
M  V30 27 2 27 28
M  V30 28 1 28 29
M  V30 29 2 29 30
M  V30 30 1 5 31
M  V30 31 2 31 32
M  V30 32 1 32 2
M  V30 33 1 30 6
M  V30 34 1 29 9
M  V30 35 1 25 12
M  V30 36 1 23 17
M  V30 37 1 1 33
M  V30 38 1 3 34
M  V30 39 1 4 35
M  V30 40 1 7 36
M  V30 41 1 8 37
M  V30 42 1 11 38
M  V30 43 1 13 39
M  V30 44 1 14 40
M  V30 45 1 18 41
M  V30 46 1 21 42
M  V30 47 1 22 43
M  V30 48 1 25 44
M  V30 49 1 26 45
M  V30 50 1 27 46
M  V30 51 1 30 47
M  V30 52 1 31 48
M  V30 53 1 32 49
M  V30 END BOND
M  V30 END CTAB
M  END
>  <Dataset>  (702) 
ChEMBL_Kinases

>  <Ligand_Instance>  (702) 
nan

>  <PDB_ID>  (702) 
nan

>  <Standardized_SMILES>  (702) 
Oc1ccc(-c2ccc3c(Nc4ccnc(-c5cc(F)ccc5F)c4)ccnc3c2)cc1

>  <Name>  (702) 
nan

>  <Pocket>  (702) 
nan

>  <ATP_Site>  (702) 
nan

>  <Peripheral>  (702) 
nan

>  <Num_H_Atoms_ProtBoundConf>  (702) 
nan

>  <Num_Resolved_Atoms>  (702) 
nan

>  <Num_Not_Resolved_Atoms>  (702) 
nan

$$$$
CHEMBL4858096
     RDKit          3D

  0  0  0  0  0  0  0  0  0  0999 V3000
M  V30 BEGIN CTAB
M  V30 COUNTS 45 46 0 0 0
M  V30 BEGIN ATOM
M  V30 1 C -1.653373 -4.648490 0.881937 0
M  V30 2 O -2.015907 -3.516534 1.614142 0
M  V30 3 C -1.280276 -2.343287 1.712232 0
M  V30 4 C -0.066383 -2.065355 1.117270 0
M  V30 5 C 0.541473 -0.833540 1.318086 0
M  V30 6 N 1.794986 -0.762126 0.604989 0
M  V30 7 C 1.608132 -0.244078 -0.730244 0
M  V30 8 O 0.357839 -0.004113 -0.867103 0
M  V30 9 C 2.796986 -0.104441 -1.602891 0 CFG=2
M  V30 10 N 4.019461 -0.549332 -0.914774 0
M  V30 11 C 2.953112 1.204601 -2.268874 0
M  V30 12 C 3.083721 2.426399 -1.447378 0
M  V30 13 C 4.214913 2.517568 -0.508830 0
M  V30 14 C 1.793961 2.749506 -0.718723 0
M  V30 15 C -0.043598 0.134102 2.107697 0
M  V30 16 C -1.257495 -0.155296 2.697428 0
M  V30 17 C -1.885648 -1.370460 2.516253 0
M  V30 18 C -3.184678 -1.594448 3.186623 0
M  V30 19 C -4.140265 -0.587347 3.136467 0
M  V30 20 N -5.318552 -0.806887 3.752211 0
M  V30 21 C -5.620375 -1.941778 4.410102 0
M  V30 22 N -4.683445 -2.931054 4.460147 0
M  V30 23 C -3.473572 -2.772771 3.859001 0
M  V30 24 H -0.603868 -4.705171 0.574112 0
M  V30 25 H -1.888406 -5.594662 1.449058 0
M  V30 26 H -2.275976 -4.643549 -0.052434 0
M  V30 27 H 0.305070 -2.878226 0.525286 0
M  V30 28 H 2.724050 -1.049543 1.004380 0
M  V30 29 H 2.698361 -0.847073 -2.427268 0
M  V30 30 H 3.909076 -1.568735 -0.725434 0
M  V30 31 H 4.786306 -0.383910 -1.630515 0
M  V30 32 H 3.793716 1.100808 -2.987910 0
M  V30 33 H 2.060600 1.331974 -2.919650 0
M  V30 34 H 3.207149 3.272174 -2.177082 0
M  V30 35 H 3.905327 2.886369 0.515064 0
M  V30 36 H 4.997535 3.275317 -0.808680 0
M  V30 37 H 4.795127 1.614352 -0.298881 0
M  V30 38 H 1.761689 3.801354 -0.368565 0
M  V30 39 H 0.894570 2.644863 -1.368904 0
M  V30 40 H 1.680663 2.145711 0.221034 0
M  V30 41 H 0.526411 1.037544 2.181236 0
M  V30 42 H -1.685123 0.608673 3.300461 0
M  V30 43 H -3.988506 0.356558 2.632603 0
M  V30 44 H -6.596050 -2.025015 4.874188 0
M  V30 45 H -2.719905 -3.553658 3.892276 0
M  V30 END ATOM
M  V30 BEGIN BOND
M  V30 1 1 1 2
M  V30 2 1 2 3
M  V30 3 2 3 4
M  V30 4 1 4 5
M  V30 5 1 5 6
M  V30 6 1 6 7
M  V30 7 2 7 8
M  V30 8 1 7 9
M  V30 9 1 9 10
M  V30 10 1 9 11
M  V30 11 1 11 12
M  V30 12 1 12 13
M  V30 13 1 12 14
M  V30 14 2 5 15
M  V30 15 1 15 16
M  V30 16 2 16 17
M  V30 17 1 17 18
M  V30 18 2 18 19
M  V30 19 1 19 20
M  V30 20 2 20 21
M  V30 21 1 21 22
M  V30 22 2 22 23
M  V30 23 1 17 3
M  V30 24 1 23 18
M  V30 25 1 1 24
M  V30 26 1 1 25
M  V30 27 1 1 26
M  V30 28 1 4 27
M  V30 29 1 6 28
M  V30 30 1 9 29 CFG=3
M  V30 31 1 10 30
M  V30 32 1 10 31
M  V30 33 1 11 32
M  V30 34 1 11 33
M  V30 35 1 12 34
M  V30 36 1 13 35
M  V30 37 1 13 36
M  V30 38 1 13 37
M  V30 39 1 14 38
M  V30 40 1 14 39
M  V30 41 1 14 40
M  V30 42 1 15 41
M  V30 43 1 16 42
M  V30 44 1 19 43
M  V30 45 1 21 44
M  V30 46 1 23 45
M  V30 END BOND
M  V30 END CTAB
M  END
>  <Dataset>  (703) 
ChEMBL_Kinases

>  <Ligand_Instance>  (703) 
nan

>  <PDB_ID>  (703) 
nan

>  <Standardized_SMILES>  (703) 
COc1cc(NC(=O)[C@H](N)CC(C)C)ccc1-c1cncnc1

>  <Name>  (703) 
nan

>  <Pocket>  (703) 
nan

>  <ATP_Site>  (703) 
nan

>  <Peripheral>  (703) 
nan

>  <Num_H_Atoms_ProtBoundConf>  (703) 
nan

>  <Num_Resolved_Atoms>  (703) 
nan

>  <Num_Not_Resolved_Atoms>  (703) 
nan

$$$$
CHEMBL4858101
     RDKit          3D

  0  0  0  0  0  0  0  0  0  0999 V3000
M  V30 BEGIN CTAB
M  V30 COUNTS 27 29 0 0 0
M  V30 BEGIN ATOM
M  V30 1 O 0.269282 -4.501952 3.908149 0
M  V30 2 C -0.111431 -4.566538 2.710757 0
M  V30 3 O -0.689742 -5.762166 2.310309 0
M  V30 4 C 0.073199 -3.412545 1.840533 0
M  V30 5 C 0.667513 -2.302738 2.405455 0
M  V30 6 C 0.852487 -1.194705 1.595813 0
M  V30 7 C 0.463927 -1.165583 0.251244 0
M  V30 8 C 0.674673 0.019537 -0.571481 0
M  V30 9 N 1.160904 0.038440 -1.818060 0
M  V30 10 N 1.220123 1.294242 -2.270543 0
M  V30 11 C 0.769922 2.153856 -1.326732 0
M  V30 12 N 0.636056 3.505443 -1.308947 0
M  V30 13 C 0.140668 4.099071 -0.185883 0
M  V30 14 C -0.215432 3.323678 0.909710 0
M  V30 15 Br -0.913259 4.167504 2.489848 0
M  V30 16 C -0.068676 1.951635 0.863906 0
M  V30 17 C 0.427595 1.344879 -0.258248 0
M  V30 18 C -0.127146 -2.312305 -0.255070 0
M  V30 19 C -0.333522 -3.451611 0.522982 0
M  V30 20 H -1.354509 -6.256097 2.909512 0
M  V30 21 H 0.988120 -2.270632 3.442354 0
M  V30 22 H 1.320516 -0.332731 2.056216 0
M  V30 23 H 1.555862 1.610089 -3.203930 0
M  V30 24 H 0.015123 5.184904 -0.125610 0
M  V30 25 H -0.349889 1.362095 1.723620 0
M  V30 26 H -0.432098 -2.319333 -1.271715 0
M  V30 27 H -0.794602 -4.350797 0.134046 0
M  V30 END ATOM
M  V30 BEGIN BOND
M  V30 1 2 1 2
M  V30 2 1 2 3
M  V30 3 1 2 4
M  V30 4 2 4 5
M  V30 5 1 5 6
M  V30 6 2 6 7
M  V30 7 1 7 8
M  V30 8 2 8 9
M  V30 9 1 9 10
M  V30 10 1 10 11
M  V30 11 2 11 12
M  V30 12 1 12 13
M  V30 13 2 13 14
M  V30 14 1 14 15
M  V30 15 1 14 16
M  V30 16 2 16 17
M  V30 17 1 7 18
M  V30 18 2 18 19
M  V30 19 1 19 4
M  V30 20 1 17 8
M  V30 21 1 17 11
M  V30 22 1 3 20
M  V30 23 1 5 21
M  V30 24 1 6 22
M  V30 25 1 10 23
M  V30 26 1 13 24
M  V30 27 1 16 25
M  V30 28 1 18 26
M  V30 29 1 19 27
M  V30 END BOND
M  V30 END CTAB
M  END
>  <Dataset>  (704) 
ChEMBL_Kinases

>  <Ligand_Instance>  (704) 
nan

>  <PDB_ID>  (704) 
nan

>  <Standardized_SMILES>  (704) 
O=C(O)c1ccc(-c2n[nH]c3ncc(Br)cc23)cc1

>  <Name>  (704) 
nan

>  <Pocket>  (704) 
nan

>  <ATP_Site>  (704) 
nan

>  <Peripheral>  (704) 
nan

>  <Num_H_Atoms_ProtBoundConf>  (704) 
nan

>  <Num_Resolved_Atoms>  (704) 
nan

>  <Num_Not_Resolved_Atoms>  (704) 
nan

$$$$
CHEMBL4858115
     RDKit          3D

  0  0  0  0  0  0  0  0  0  0999 V3000
M  V30 BEGIN CTAB
M  V30 COUNTS 53 57 0 0 0
M  V30 BEGIN ATOM
M  V30 1 O 0.054627 -3.777854 0.498751 0
M  V30 2 C -0.152458 -3.246535 -0.624194 0
M  V30 3 C 0.935292 -2.452198 -1.132879 0
M  V30 4 C 1.528823 -2.750725 -2.349363 0
M  V30 5 C 2.578477 -1.988465 -2.830730 0
M  V30 6 C 3.055018 -0.903380 -2.094059 0
M  V30 7 C 2.500746 -0.564639 -0.881873 0
M  V30 8 C 2.889796 0.526717 -0.006781 0
M  V30 9 C 3.910660 1.415523 -0.260232 0
M  V30 10 C 4.235123 2.444753 0.636017 0
M  V30 11 C 3.511315 2.569101 1.802531 0
M  V30 12 N 3.746609 3.520803 2.741015 0
M  V30 13 C 3.009070 3.592462 3.879591 0
M  V30 14 N 1.996304 2.701202 4.119844 0
M  V30 15 C 1.721725 1.735733 3.218374 0
M  V30 16 N 0.713096 0.743422 3.342726 0
M  V30 17 C -0.668689 0.914078 3.223581 0
M  V30 18 C -1.519113 -0.130806 2.970408 0
M  V30 19 C -2.881054 0.021122 2.882933 0
M  V30 20 C -3.353572 1.326705 3.070720 0
M  V30 21 F -4.694284 1.485933 2.989358 0
M  V30 22 C -2.526539 2.398063 3.325678 0
M  V30 23 C -1.163762 2.213181 3.407282 0
M  V30 24 C 2.491440 1.675117 2.049155 0
M  V30 25 N 2.245463 0.728844 1.151945 0
M  V30 26 C 1.451678 -1.371705 -0.458312 0
M  V30 27 N -1.443623 -3.603618 -1.065851 0
M  V30 28 C -2.236079 -4.460202 -0.207052 0
M  V30 29 C -3.577857 -3.869593 0.144369 0
M  V30 30 N -4.255121 -3.267971 -0.963001 0
M  V30 31 C -3.406186 -2.462003 -1.808791 0
M  V30 32 C -2.239274 -3.305257 -2.267944 0
M  V30 33 H 1.174296 -3.597685 -2.956336 0
M  V30 34 H 3.046607 -2.214267 -3.776312 0
M  V30 35 H 3.881062 -0.277428 -2.432825 0
M  V30 36 H 4.467811 1.302112 -1.181384 0
M  V30 37 H 5.037012 3.145170 0.434875 0
M  V30 38 H 3.161409 4.330371 4.650161 0
M  V30 39 H 1.247267 -0.149433 3.544943 0
M  V30 40 H -1.051658 -1.122124 2.835865 0
M  V30 41 H -3.469153 -0.859576 2.679654 0
M  V30 42 H -2.958614 3.385468 3.462067 0
M  V30 43 H -0.579826 3.108158 3.610470 0
M  V30 44 H 0.948798 -1.172724 0.499278 0
M  V30 45 H -2.346031 -5.422053 -0.772122 0
M  V30 46 H -1.686105 -4.695984 0.724997 0
M  V30 47 H -4.204329 -4.705879 0.516315 0
M  V30 48 H -3.453288 -3.186599 0.995017 0
M  V30 49 H -4.735252 -3.973371 -1.555894 0
M  V30 50 H -4.040955 -2.141433 -2.656354 0
M  V30 51 H -3.030522 -1.557660 -1.292956 0
M  V30 52 H -1.618854 -2.838339 -3.049404 0
M  V30 53 H -2.661262 -4.228514 -2.715665 0
M  V30 END ATOM
M  V30 BEGIN BOND
M  V30 1 2 1 2
M  V30 2 1 2 3
M  V30 3 2 3 4
M  V30 4 1 4 5
M  V30 5 2 5 6
M  V30 6 1 6 7
M  V30 7 1 7 8
M  V30 8 2 8 9
M  V30 9 1 9 10
M  V30 10 2 10 11
M  V30 11 1 11 12
M  V30 12 2 12 13
M  V30 13 1 13 14
M  V30 14 2 14 15
M  V30 15 1 15 16
M  V30 16 1 16 17
M  V30 17 2 17 18
M  V30 18 1 18 19
M  V30 19 2 19 20
M  V30 20 1 20 21
M  V30 21 1 20 22
M  V30 22 2 22 23
M  V30 23 1 15 24
M  V30 24 2 24 25
M  V30 25 2 7 26
M  V30 26 1 2 27
M  V30 27 1 27 28
M  V30 28 1 28 29
M  V30 29 1 29 30
M  V30 30 1 30 31
M  V30 31 1 31 32
M  V30 32 1 26 3
M  V30 33 1 32 27
M  V30 34 1 25 8
M  V30 35 1 24 11
M  V30 36 1 23 17
M  V30 37 1 4 33
M  V30 38 1 5 34
M  V30 39 1 6 35
M  V30 40 1 9 36
M  V30 41 1 10 37
M  V30 42 1 13 38
M  V30 43 1 16 39
M  V30 44 1 18 40
M  V30 45 1 19 41
M  V30 46 1 22 42
M  V30 47 1 23 43
M  V30 48 1 26 44
M  V30 49 1 28 45
M  V30 50 1 28 46
M  V30 51 1 29 47
M  V30 52 1 29 48
M  V30 53 1 30 49
M  V30 54 1 31 50
M  V30 55 1 31 51
M  V30 56 1 32 52
M  V30 57 1 32 53
M  V30 END BOND
M  V30 END CTAB
M  END
>  <Dataset>  (705) 
ChEMBL_Kinases

>  <Ligand_Instance>  (705) 
nan

>  <PDB_ID>  (705) 
nan

>  <Standardized_SMILES>  (705) 
O=C(c1cccc(-c2ccc3ncnc(Nc4ccc(F)cc4)c3n2)c1)N1CCNCC1

>  <Name>  (705) 
nan

>  <Pocket>  (705) 
nan

>  <ATP_Site>  (705) 
nan

>  <Peripheral>  (705) 
nan

>  <Num_H_Atoms_ProtBoundConf>  (705) 
nan

>  <Num_Resolved_Atoms>  (705) 
nan

>  <Num_Not_Resolved_Atoms>  (705) 
nan

$$$$
CHEMBL4858138
     RDKit          3D

  0  0  0  0  0  0  0  0  0  0999 V3000
M  V30 BEGIN CTAB
M  V30 COUNTS 58 60 0 0 0
M  V30 BEGIN ATOM
M  V30 1 C 0.474468 -4.980917 5.268863 0
M  V30 2 O 1.096087 -4.739576 4.047681 0
M  V30 3 C 1.511933 -3.429290 3.907039 0 CFG=1
M  V30 4 C 2.980128 -3.348337 3.569328 0
M  V30 5 C 3.234789 -2.580500 2.315602 0
M  V30 6 C 2.553794 -1.243708 2.240691 0
M  V30 7 C 1.105849 -1.279696 2.722638 0 CFG=1
M  V30 8 N 0.253517 -0.705578 1.749909 0
M  V30 9 C -1.051957 -0.262899 1.401714 0
M  V30 10 N -1.363645 0.232539 0.167759 0
M  V30 11 C -2.547865 0.653019 -0.187697 0
M  V30 12 N -2.648644 1.127300 -1.520077 0
M  V30 13 C -1.594992 1.184808 -2.477371 0 CFG=1
M  V30 14 C -2.023562 1.717653 -3.821316 0
M  V30 15 C -0.782437 2.134342 -4.568737 0
M  V30 16 C 0.434465 1.307260 -4.223460 0 CFG=2
M  V30 17 O 0.267130 -0.038867 -4.475492 0
M  V30 18 C 1.135057 -0.576348 -5.396540 0
M  V30 19 C 0.786711 1.494307 -2.777548 0
M  V30 20 C -0.415719 2.041731 -2.029996 0
M  V30 21 N -3.557111 0.617031 0.677695 0
M  V30 22 C -3.413192 0.159240 1.927655 0
M  V30 23 C -2.144350 -0.266635 2.237328 0
M  V30 24 C -1.995069 -0.734410 3.605744 0
M  V30 25 N -3.124099 -0.775118 4.504228 0
M  V30 26 O -1.355942 -1.181808 4.574838 0
M  V30 27 C 0.740414 -2.781013 2.778161 0
M  V30 28 H 0.136217 -6.031862 5.390286 0
M  V30 29 H 1.292115 -4.863394 6.033958 0
M  V30 30 H -0.345618 -4.263709 5.456263 0
M  V30 31 H 1.265197 -2.811643 4.811437 0
M  V30 32 H 3.594806 -3.003805 4.425815 0
M  V30 33 H 3.321543 -4.405158 3.370363 0
M  V30 34 H 3.107662 -3.202118 1.388670 0
M  V30 35 H 4.344107 -2.345045 2.300995 0
M  V30 36 H 3.157950 -0.517780 2.833581 0
M  V30 37 H 2.558304 -0.927968 1.170654 0
M  V30 38 H 1.112783 -0.825787 3.719531 0
M  V30 39 H 0.867972 -0.530560 0.894413 0
M  V30 40 H -3.586272 1.458846 -1.804315 0
M  V30 41 H -1.210055 0.149840 -2.604658 0
M  V30 42 H -2.620049 1.006286 -4.420607 0
M  V30 43 H -2.683429 2.604782 -3.649022 0
M  V30 44 H -0.952718 2.174236 -5.667975 0
M  V30 45 H -0.556282 3.181971 -4.279220 0
M  V30 46 H 1.259003 1.706253 -4.828871 0
M  V30 47 H 0.855608 -1.667051 -5.475911 0
M  V30 48 H 1.034899 -0.180005 -6.406082 0
M  V30 49 H 2.168610 -0.589046 -5.000777 0
M  V30 50 H 1.650175 2.155560 -2.607652 0
M  V30 51 H 1.005012 0.509321 -2.274619 0
M  V30 52 H -0.221357 1.979313 -0.949776 0
M  V30 53 H -0.595470 3.115901 -2.241173 0
M  V30 54 H -4.251118 0.143074 2.604850 0
M  V30 55 H -3.820922 -1.557218 4.703932 0
M  V30 56 H -3.506456 -0.043795 5.145692 0
M  V30 57 H -0.329635 -2.958341 2.802346 0
M  V30 58 H 1.136271 -3.243477 1.826499 0
M  V30 END ATOM
M  V30 BEGIN BOND
M  V30 1 1 1 2
M  V30 2 1 2 3
M  V30 3 1 3 4
M  V30 4 1 4 5
M  V30 5 1 5 6
M  V30 6 1 6 7
M  V30 7 1 7 8
M  V30 8 1 8 9
M  V30 9 2 9 10
M  V30 10 1 10 11
M  V30 11 1 11 12
M  V30 12 1 12 13
M  V30 13 1 13 14
M  V30 14 1 14 15
M  V30 15 1 15 16
M  V30 16 1 16 17
M  V30 17 1 17 18
M  V30 18 1 16 19
M  V30 19 1 19 20
M  V30 20 2 11 21
M  V30 21 1 21 22
M  V30 22 2 22 23
M  V30 23 1 23 24
M  V30 24 1 24 25
M  V30 25 2 24 26
M  V30 26 1 7 27
M  V30 27 1 27 3
M  V30 28 1 23 9
M  V30 29 1 20 13
M  V30 30 1 1 28
M  V30 31 1 1 29
M  V30 32 1 1 30
M  V30 33 1 3 31 CFG=1
M  V30 34 1 4 32
M  V30 35 1 4 33
M  V30 36 1 5 34
M  V30 37 1 5 35
M  V30 38 1 6 36
M  V30 39 1 6 37
M  V30 40 1 7 38 CFG=1
M  V30 41 1 8 39
M  V30 42 1 12 40
M  V30 43 1 13 41 CFG=3
M  V30 44 1 14 42
M  V30 45 1 14 43
M  V30 46 1 15 44
M  V30 47 1 15 45
M  V30 48 1 16 46 CFG=3
M  V30 49 1 18 47
M  V30 50 1 18 48
M  V30 51 1 18 49
M  V30 52 1 19 50
M  V30 53 1 19 51
M  V30 54 1 20 52
M  V30 55 1 20 53
M  V30 56 1 22 54
M  V30 57 1 25 55
M  V30 58 1 25 56
M  V30 59 1 27 57
M  V30 60 1 27 58
M  V30 END BOND
M  V30 END CTAB
M  END
>  <Dataset>  (706) 
ChEMBL_Kinases

>  <Ligand_Instance>  (706) 
nan

>  <PDB_ID>  (706) 
nan

>  <Standardized_SMILES>  (706) 
CO[C@H]1CCC[C@@H](Nc2nc(N[C@H]3CC[C@H](OC)CC3)ncc2C(N)=O)C1

>  <Name>  (706) 
nan

>  <Pocket>  (706) 
nan

>  <ATP_Site>  (706) 
nan

>  <Peripheral>  (706) 
nan

>  <Num_H_Atoms_ProtBoundConf>  (706) 
nan

>  <Num_Resolved_Atoms>  (706) 
nan

>  <Num_Not_Resolved_Atoms>  (706) 
nan

$$$$
CHEMBL485818
     RDKit          3D

  0  0  0  0  0  0  0  0  0  0999 V3000
M  V30 BEGIN CTAB
M  V30 COUNTS 50 53 0 0 0
M  V30 BEGIN ATOM
M  V30 1 O 1.857229 -6.765652 1.641445 0
M  V30 2 C 1.578626 -5.858242 2.473499 0
M  V30 3 O 1.763033 -6.208043 3.811337 0
M  V30 4 C 1.085433 -4.487140 2.175119 0 CFG=1
M  V30 5 O 0.953044 -4.288444 0.818066 0
M  V30 6 C -0.094522 -3.425005 0.534951 0 CFG=1
M  V30 7 O -0.051234 -2.880984 -0.734265 0
M  V30 8 C 0.048601 -1.531585 -1.034901 0
M  V30 9 C 0.128819 -0.410006 -0.235229 0
M  V30 10 C 0.221642 0.833458 -0.825301 0
M  V30 11 O 0.291630 1.817799 0.037117 0
M  V30 12 C 0.385003 3.077095 -0.318660 0
M  V30 13 C 0.461291 4.151509 0.664324 0
M  V30 14 C 0.559425 5.478075 0.382882 0
M  V30 15 C 0.628947 6.459879 1.347437 0
M  V30 16 C 0.596350 6.063629 2.671724 0
M  V30 17 C 0.498072 4.737662 3.024561 0
M  V30 18 C 0.432504 3.807727 2.004756 0
M  V30 19 C 0.406624 3.323084 -1.675535 0
M  V30 20 C 0.335846 2.324800 -2.625678 0
M  V30 21 O 0.352698 2.509917 -3.869567 0
M  V30 22 C 0.238888 1.019418 -2.191939 0
M  V30 23 C 0.158943 -0.098557 -2.995326 0
M  V30 24 O 0.180134 0.141225 -4.361185 0
M  V30 25 C 0.064059 -1.370922 -2.427338 0
M  V30 26 O -0.007179 -2.375956 -3.389954 0
M  V30 27 C -1.359304 -4.229329 0.803787 0 CFG=2
M  V30 28 O -2.482879 -3.592958 0.284203 0
M  V30 29 C -1.432247 -4.348495 2.312499 0 CFG=1
M  V30 30 O -2.107510 -5.502197 2.704288 0
M  V30 31 C -0.111820 -4.187598 2.987859 0 CFG=2
M  V30 32 O 0.021683 -2.923351 3.606665 0
M  V30 33 H 2.511515 -6.850666 4.093566 0
M  V30 34 H 1.915090 -3.808271 2.500214 0
M  V30 35 H -0.037415 -2.617844 1.290101 0
M  V30 36 H 0.107880 -0.658318 0.798038 0
M  V30 37 H 0.584558 5.783456 -0.643319 0
M  V30 38 H 0.706896 7.513081 1.109271 0
M  V30 39 H 0.650963 6.834554 3.420455 0
M  V30 40 H 0.478793 4.512831 4.070912 0
M  V30 41 H 0.356076 2.779109 2.348165 0
M  V30 42 H 0.481300 4.326630 -2.062517 0
M  V30 43 H -0.708286 0.464900 -4.752716 0
M  V30 44 H 0.684078 -2.438926 -4.142817 0
M  V30 45 H -1.263373 -5.258319 0.398357 0
M  V30 46 H -3.048048 -4.230721 -0.214874 0
M  V30 47 H -2.062299 -3.485495 2.637228 0
M  V30 48 H -2.857239 -5.305698 3.320003 0
M  V30 49 H -0.131981 -4.896807 3.866319 0
M  V30 50 H 0.931183 -2.565745 3.531240 0
M  V30 END ATOM
M  V30 BEGIN BOND
M  V30 1 2 1 2
M  V30 2 1 2 3
M  V30 3 1 2 4
M  V30 4 1 4 5
M  V30 5 1 5 6
M  V30 6 1 6 7
M  V30 7 1 7 8
M  V30 8 2 8 9
M  V30 9 1 9 10
M  V30 10 1 10 11
M  V30 11 1 11 12
M  V30 12 1 12 13
M  V30 13 2 13 14
M  V30 14 1 14 15
M  V30 15 2 15 16
M  V30 16 1 16 17
M  V30 17 2 17 18
M  V30 18 2 12 19
M  V30 19 1 19 20
M  V30 20 2 20 21
M  V30 21 1 20 22
M  V30 22 1 22 23
M  V30 23 1 23 24
M  V30 24 2 23 25
M  V30 25 1 25 26
M  V30 26 1 6 27
M  V30 27 1 27 28
M  V30 28 1 27 29
M  V30 29 1 29 30
M  V30 30 1 29 31
M  V30 31 1 31 32
M  V30 32 1 31 4
M  V30 33 1 25 8
M  V30 34 2 22 10
M  V30 35 1 18 13
M  V30 36 1 3 33
M  V30 37 1 4 34 CFG=1
M  V30 38 1 6 35 CFG=1
M  V30 39 1 9 36
M  V30 40 1 14 37
M  V30 41 1 15 38
M  V30 42 1 16 39
M  V30 43 1 17 40
M  V30 44 1 18 41
M  V30 45 1 19 42
M  V30 46 1 24 43
M  V30 47 1 26 44
M  V30 48 1 27 45 CFG=3
M  V30 49 1 28 46
M  V30 50 1 29 47 CFG=1
M  V30 51 1 30 48
M  V30 52 1 31 49 CFG=1
M  V30 53 1 32 50
M  V30 END BOND
M  V30 END CTAB
M  END
>  <Dataset>  (707) 
ChEMBL_Kinases

>  <Ligand_Instance>  (707) 
nan

>  <PDB_ID>  (707) 
nan

>  <Standardized_SMILES>  (707) 
O=C(O)[C@H]1O[C@@H](Oc2cc3oc(-c4ccccc4)cc(=O)c3c(O)c2O)[C@H](O)[C@@H](O)[C@@H]1O

>  <Name>  (707) 
BAICALIN

>  <Pocket>  (707) 
nan

>  <ATP_Site>  (707) 
nan

>  <Peripheral>  (707) 
nan

>  <Num_H_Atoms_ProtBoundConf>  (707) 
nan

>  <Num_Resolved_Atoms>  (707) 
nan

>  <Num_Not_Resolved_Atoms>  (707) 
nan

$$$$
CHEMBL4858257
     RDKit          3D

  0  0  0  0  0  0  0  0  0  0999 V3000
M  V30 BEGIN CTAB
M  V30 COUNTS 41 43 0 0 0
M  V30 BEGIN ATOM
M  V30 1 C -0.318127 -4.406772 0.870339 0
M  V30 2 C 0.705860 -3.709127 1.762915 0
M  V30 3 C -0.072842 -2.981841 2.834803 0
M  V30 4 C 1.482475 -2.760931 0.886837 0
M  V30 5 C 2.535316 -2.000926 1.669956 0
M  V30 6 N 3.241886 -1.094170 0.778510 0
M  V30 7 C 4.331566 -1.142422 0.025568 0
M  V30 8 N 4.498673 0.051206 -0.607284 0
M  V30 9 C 3.495819 0.866905 -0.247502 0
M  V30 10 C 3.234561 2.185425 -0.637071 0
M  V30 11 N 2.125446 2.741732 -0.095843 0
M  V30 12 C 1.334784 2.074285 0.754101 0
M  V30 13 N 0.149572 2.557260 1.366141 0
M  V30 14 C -1.141953 2.185185 0.922989 0
M  V30 15 C -1.267765 1.287803 -0.109184 0
M  V30 16 C -2.411836 0.787954 -0.688946 0
M  V30 17 F -2.371563 -0.092596 -1.700807 0
M  V30 18 C -3.580716 1.289175 -0.115599 0
M  V30 19 O -4.791293 0.834732 -0.642400 0
M  V30 20 C -3.555475 2.195812 0.927740 0
M  V30 21 F -4.729582 2.663087 1.459163 0
M  V30 22 C -2.334860 2.643378 1.446083 0
M  V30 23 N 1.581097 0.796395 1.135484 0
M  V30 24 C 2.690566 0.154179 0.631421 0
M  V30 25 H -1.187477 -4.656170 1.509248 0
M  V30 26 H -0.626525 -3.632931 0.106871 0
M  V30 27 H 0.117774 -5.282555 0.356475 0
M  V30 28 H 1.310033 -4.491663 2.242207 0
M  V30 29 H 0.573518 -2.570745 3.630675 0
M  V30 30 H -0.719525 -2.196307 2.349314 0
M  V30 31 H -0.749280 -3.718317 3.317129 0
M  V30 32 H 0.798852 -2.125829 0.327917 0
M  V30 33 H 2.030291 -3.400429 0.153086 0
M  V30 34 H 2.111966 -1.486921 2.542398 0
M  V30 35 H 3.327947 -2.717944 2.019392 0
M  V30 36 H 4.916152 -2.062951 0.004799 0
M  V30 37 H 3.867427 2.729463 -1.323191 0
M  V30 38 H 0.437888 3.181509 2.122232 0
M  V30 39 H -0.337250 0.898896 -0.546643 0
M  V30 40 H -4.862263 -0.042652 -1.145758 0
M  V30 41 H -2.288301 3.353770 2.261521 0
M  V30 END ATOM
M  V30 BEGIN BOND
M  V30 1 1 1 2
M  V30 2 1 2 3
M  V30 3 1 2 4
M  V30 4 1 4 5
M  V30 5 1 5 6
M  V30 6 1 6 7
M  V30 7 2 7 8
M  V30 8 1 8 9
M  V30 9 2 9 10
M  V30 10 1 10 11
M  V30 11 2 11 12
M  V30 12 1 12 13
M  V30 13 1 13 14
M  V30 14 2 14 15
M  V30 15 1 15 16
M  V30 16 1 16 17
M  V30 17 2 16 18
M  V30 18 1 18 19
M  V30 19 1 18 20
M  V30 20 1 20 21
M  V30 21 2 20 22
M  V30 22 1 12 23
M  V30 23 2 23 24
M  V30 24 1 24 6
M  V30 25 1 24 9
M  V30 26 1 22 14
M  V30 27 1 1 25
M  V30 28 1 1 26
M  V30 29 1 1 27
M  V30 30 1 2 28
M  V30 31 1 3 29
M  V30 32 1 3 30
M  V30 33 1 3 31
M  V30 34 1 4 32
M  V30 35 1 4 33
M  V30 36 1 5 34
M  V30 37 1 5 35
M  V30 38 1 7 36
M  V30 39 1 10 37
M  V30 40 1 13 38
M  V30 41 1 15 39
M  V30 42 1 19 40
M  V30 43 1 22 41
M  V30 END BOND
M  V30 END CTAB
M  END
>  <Dataset>  (708) 
ChEMBL_Kinases

>  <Ligand_Instance>  (708) 
nan

>  <PDB_ID>  (708) 
nan

>  <Standardized_SMILES>  (708) 
CC(C)CCn1cnc2cnc(Nc3cc(F)c(O)c(F)c3)nc21

>  <Name>  (708) 
nan

>  <Pocket>  (708) 
nan

>  <ATP_Site>  (708) 
nan

>  <Peripheral>  (708) 
nan

>  <Num_H_Atoms_ProtBoundConf>  (708) 
nan

>  <Num_Resolved_Atoms>  (708) 
nan

>  <Num_Not_Resolved_Atoms>  (708) 
nan

$$$$
CHEMBL4858308
     RDKit          3D

  0  0  0  0  0  0  0  0  0  0999 V3000
M  V30 BEGIN CTAB
M  V30 COUNTS 63 65 0 0 0
M  V30 BEGIN ATOM
M  V30 1 C 4.965888 0.985561 4.964723 0
M  V30 2 C 5.076246 0.303056 3.620706 0
M  V30 3 C 5.105308 1.270733 2.503773 0
M  V30 4 C 6.335669 1.740616 2.094076 0
M  V30 5 C 6.323234 2.640137 1.051618 0
M  V30 6 C 5.131198 3.043904 0.454408 0
M  V30 7 C 3.900195 2.544020 0.898870 0
M  V30 8 C 2.744728 3.097519 0.128555 0 CFG=1
M  V30 9 O 3.135686 2.980891 -1.225636 0
M  V30 10 C 1.484732 2.389548 0.351963 0
M  V30 11 O 1.646687 2.103772 -0.857357 0
M  V30 12 N 0.709500 2.287527 1.534230 0
M  V30 13 C -0.453975 1.477318 1.258586 0
M  V30 14 C -0.322359 0.118625 1.465394 0
M  V30 15 C -1.454546 -0.621608 1.190792 0
M  V30 16 C -2.660522 -0.073989 0.736547 0
M  V30 17 C -3.754911 -1.008049 0.502267 0
M  V30 18 C -5.011804 -0.729657 0.982788 0
M  V30 19 N -5.932960 -1.667840 0.696409 0
M  V30 20 C -5.602386 -2.778405 -0.009727 0
M  V30 21 N -6.690170 -3.659067 -0.221707 0
M  V30 22 C -4.351649 -3.072931 -0.497449 0
M  V30 23 C -4.126314 -4.302699 -1.243051 0
M  V30 24 O -5.149222 -5.042755 -1.393855 0
M  V30 25 N -2.843584 -4.630907 -1.756454 0
M  V30 26 C -2.437796 -5.780756 -2.503809 0
M  V30 27 C -1.880386 -5.393902 -3.877423 0
M  V30 28 C -1.353431 -6.572662 -1.801058 0
M  V30 29 C -3.398922 -2.130248 -0.216832 0
M  V30 30 C -2.693840 1.292597 0.560264 0
M  V30 31 C -3.952491 1.887068 0.077918 0
M  V30 32 C -1.604897 2.101251 0.812789 0
M  V30 33 C 3.923470 1.644115 1.942751 0
M  V30 34 H 5.122263 2.100053 4.868300 0
M  V30 35 H 5.729653 0.641406 5.690961 0
M  V30 36 H 3.968537 0.787052 5.395511 0
M  V30 37 H 4.275628 -0.471811 3.491871 0
M  V30 38 H 6.024506 -0.280753 3.619459 0
M  V30 39 H 7.276449 1.445488 2.538318 0
M  V30 40 H 7.277843 3.029746 0.704778 0
M  V30 41 H 5.252269 3.763496 -0.365282 0
M  V30 42 H 2.716166 4.176249 0.356263 0
M  V30 43 H 3.445222 3.842700 -1.592189 0
M  V30 44 H 1.104792 2.796700 2.348425 0
M  V30 45 H 0.586284 -0.334988 1.812623 0
M  V30 46 H -1.386294 -1.708454 1.344226 0
M  V30 47 H -5.270969 0.140946 1.539063 0
M  V30 48 H -7.484482 -4.281954 -0.405313 0
M  V30 49 H -7.252605 -4.466571 0.171416 0
M  V30 50 H -2.018194 -4.015945 -1.624883 0
M  V30 51 H -3.265075 -6.500483 -2.694928 0
M  V30 52 H -1.309386 -6.276651 -4.246678 0
M  V30 53 H -2.784513 -5.257933 -4.524203 0
M  V30 54 H -1.263135 -4.476570 -3.832343 0
M  V30 55 H -0.373058 -6.053635 -1.787143 0
M  V30 56 H -1.209709 -7.509212 -2.389610 0
M  V30 57 H -1.686010 -6.890963 -0.792275 0
M  V30 58 H -2.384901 -2.306010 -0.577060 0
M  V30 59 H -4.478580 2.320816 0.957638 0
M  V30 60 H -3.766478 2.748315 -0.599693 0
M  V30 61 H -4.597085 1.193386 -0.500076 0
M  V30 62 H -1.668618 3.163064 0.663806 0
M  V30 63 H 2.957640 1.307160 2.224242 0
M  V30 END ATOM
M  V30 BEGIN BOND
M  V30 1 1 1 2
M  V30 2 1 2 3
M  V30 3 2 3 4
M  V30 4 1 4 5
M  V30 5 2 5 6
M  V30 6 1 6 7
M  V30 7 1 7 8
M  V30 8 1 8 9
M  V30 9 1 8 10
M  V30 10 2 10 11
M  V30 11 1 10 12
M  V30 12 1 12 13
M  V30 13 2 13 14
M  V30 14 1 14 15
M  V30 15 2 15 16
M  V30 16 1 16 17
M  V30 17 2 17 18
M  V30 18 1 18 19
M  V30 19 2 19 20
M  V30 20 1 20 21
M  V30 21 1 20 22
M  V30 22 1 22 23
M  V30 23 2 23 24
M  V30 24 1 23 25
M  V30 25 1 25 26
M  V30 26 1 26 27
M  V30 27 1 26 28
M  V30 28 2 22 29
M  V30 29 1 16 30
M  V30 30 1 30 31
M  V30 31 2 30 32
M  V30 32 2 7 33
M  V30 33 1 33 3
M  V30 34 1 32 13
M  V30 35 1 29 17
M  V30 36 1 1 34
M  V30 37 1 1 35
M  V30 38 1 1 36
M  V30 39 1 2 37
M  V30 40 1 2 38
M  V30 41 1 4 39
M  V30 42 1 5 40
M  V30 43 1 6 41
M  V30 44 1 8 42 CFG=1
M  V30 45 1 9 43
M  V30 46 1 12 44
M  V30 47 1 14 45
M  V30 48 1 15 46
M  V30 49 1 18 47
M  V30 50 1 21 48
M  V30 51 1 21 49
M  V30 52 1 25 50
M  V30 53 1 26 51
M  V30 54 1 27 52
M  V30 55 1 27 53
M  V30 56 1 27 54
M  V30 57 1 28 55
M  V30 58 1 28 56
M  V30 59 1 28 57
M  V30 60 1 29 58
M  V30 61 1 31 59
M  V30 62 1 31 60
M  V30 63 1 31 61
M  V30 64 1 32 62
M  V30 65 1 33 63
M  V30 END BOND
M  V30 END CTAB
M  END
>  <Dataset>  (709) 
ChEMBL_Kinases

>  <Ligand_Instance>  (709) 
nan

>  <PDB_ID>  (709) 
nan

>  <Standardized_SMILES>  (709) 
CCc1cccc([C@@H](O)C(=O)Nc2ccc(-c3cnc(N)c(C(=O)NC(C)C)c3)c(C)c2)c1

>  <Name>  (709) 
nan

>  <Pocket>  (709) 
nan

>  <ATP_Site>  (709) 
nan

>  <Peripheral>  (709) 
nan

>  <Num_H_Atoms_ProtBoundConf>  (709) 
nan

>  <Num_Resolved_Atoms>  (709) 
nan

>  <Num_Not_Resolved_Atoms>  (709) 
nan

$$$$
CHEMBL4858450
     RDKit          3D

  0  0  0  0  0  0  0  0  0  0999 V3000
M  V30 BEGIN CTAB
M  V30 COUNTS 37 40 0 0 0
M  V30 BEGIN ATOM
M  V30 1 O 4.441706 -1.867641 2.142200 0
M  V30 2 S 2.961496 -1.986408 1.840985 0
M  V30 3 O 2.289899 -2.017229 3.189414 0
M  V30 4 N 2.740518 -3.318888 0.879503 0
M  V30 5 C 1.436354 -3.634645 0.422738 0
M  V30 6 C 1.100309 -5.138005 0.573435 0
M  V30 7 C 1.364489 -4.557148 -0.762758 0
M  V30 8 C 2.525417 -0.444259 1.102746 0
M  V30 9 C 3.467428 0.295021 0.386481 0
M  V30 10 C 3.158989 1.505383 -0.203593 0
M  V30 11 C 1.860432 1.975104 -0.061485 0
M  V30 12 C 0.870969 1.281021 0.644060 0
M  V30 13 C -0.476659 1.827495 0.758003 0
M  V30 14 N -0.675514 3.119467 1.055533 0
M  V30 15 N -1.987778 3.341338 1.094591 0
M  V30 16 C -2.687534 2.214657 0.826899 0
M  V30 17 C -3.997710 1.857115 0.731696 0
M  V30 18 C -4.346491 0.543468 0.423981 0
M  V30 19 F -5.687439 0.275566 0.349267 0
M  V30 20 C -3.357271 -0.376855 0.220022 0
M  V30 21 C -2.028417 -0.059492 0.306088 0
M  V30 22 C -1.722009 1.251419 0.612771 0
M  V30 23 C 1.253058 0.083837 1.203467 0
M  V30 24 H 3.436365 -4.058361 0.835321 0
M  V30 25 H 0.608397 -2.989637 0.717169 0
M  V30 26 H 0.053328 -5.421550 0.772948 0
M  V30 27 H 1.826055 -5.805748 1.035567 0
M  V30 28 H 2.307401 -4.755033 -1.310344 0
M  V30 29 H 0.524929 -4.332735 -1.442969 0
M  V30 30 H 4.479551 -0.070632 0.275452 0
M  V30 31 H 3.872983 2.096597 -0.764024 0
M  V30 32 H 1.589900 2.915077 -0.509987 0
M  V30 33 H -2.414662 4.275196 1.306991 0
M  V30 34 H -4.702577 2.663218 0.911873 0
M  V30 35 H -3.714763 -1.368519 -0.013167 0
M  V30 36 H -1.266425 -0.811729 0.138943 0
M  V30 37 H 0.492922 -0.462889 1.753155 0
M  V30 END ATOM
M  V30 BEGIN BOND
M  V30 1 2 1 2
M  V30 2 2 2 3
M  V30 3 1 2 4
M  V30 4 1 4 5
M  V30 5 1 5 6
M  V30 6 1 6 7
M  V30 7 1 2 8
M  V30 8 2 8 9
M  V30 9 1 9 10
M  V30 10 2 10 11
M  V30 11 1 11 12
M  V30 12 1 12 13
M  V30 13 2 13 14
M  V30 14 1 14 15
M  V30 15 1 15 16
M  V30 16 2 16 17
M  V30 17 1 17 18
M  V30 18 1 18 19
M  V30 19 2 18 20
M  V30 20 1 20 21
M  V30 21 2 21 22
M  V30 22 2 12 23
M  V30 23 1 7 5
M  V30 24 1 23 8
M  V30 25 1 22 13
M  V30 26 1 22 16
M  V30 27 1 4 24
M  V30 28 1 5 25
M  V30 29 1 6 26
M  V30 30 1 6 27
M  V30 31 1 7 28
M  V30 32 1 7 29
M  V30 33 1 9 30
M  V30 34 1 10 31
M  V30 35 1 11 32
M  V30 36 1 15 33
M  V30 37 1 17 34
M  V30 38 1 20 35
M  V30 39 1 21 36
M  V30 40 1 23 37
M  V30 END BOND
M  V30 END CTAB
M  END
>  <Dataset>  (710) 
ChEMBL_Kinases

>  <Ligand_Instance>  (710) 
nan

>  <PDB_ID>  (710) 
nan

>  <Standardized_SMILES>  (710) 
O=S(=O)(NC1CC1)c1cccc(-c2n[nH]c3cc(F)ccc23)c1

>  <Name>  (710) 
nan

>  <Pocket>  (710) 
nan

>  <ATP_Site>  (710) 
nan

>  <Peripheral>  (710) 
nan

>  <Num_H_Atoms_ProtBoundConf>  (710) 
nan

>  <Num_Resolved_Atoms>  (710) 
nan

>  <Num_Not_Resolved_Atoms>  (710) 
nan

$$$$
CHEMBL4858455
     RDKit          3D

  0  0  0  0  0  0  0  0  0  0999 V3000
M  V30 BEGIN CTAB
M  V30 COUNTS 49 53 0 0 0
M  V30 BEGIN ATOM
M  V30 1 O -0.094918 -5.616289 3.777208 0
M  V30 2 C 0.879688 -5.073950 2.952514 0
M  V30 3 C 2.058016 -5.736999 2.738699 0
M  V30 4 F 2.278733 -6.929384 3.333100 0
M  V30 5 C 3.024356 -5.201923 1.922577 0
M  V30 6 C 2.877702 -3.992333 1.279767 0
M  V30 7 N 3.904604 -3.481468 0.446819 0
M  V30 8 C 3.933083 -2.269523 -0.287791 0
M  V30 9 N 5.008913 -1.955994 -1.028637 0
M  V30 10 C 5.104740 -0.830225 -1.746773 0
M  V30 11 C 4.082880 0.071415 -1.755593 0
M  V30 12 N 3.847054 1.263015 -2.341924 0
M  V30 13 C 2.633497 1.668403 -1.957171 0
M  V30 14 N 2.062621 0.772885 -1.130879 0
M  V30 15 C 0.774815 0.895509 -0.539885 0
M  V30 16 C 0.574030 1.476126 0.696706 0
M  V30 17 C -0.696465 1.571265 1.227073 0
M  V30 18 C -1.812739 1.113515 0.589757 0
M  V30 19 N -3.111962 1.215723 1.147090 0
M  V30 20 C -3.389789 1.764192 2.458249 0
M  V30 21 C -4.267084 2.986187 2.225577 0
M  V30 22 O -5.486310 2.488167 1.781501 0
M  V30 23 C -5.408516 1.847656 0.574498 0
M  V30 24 C -4.328733 0.790917 0.485475 0
M  V30 25 C -1.584308 0.540354 -0.638938 0
M  V30 26 C -0.334001 0.422654 -1.210006 0
M  V30 27 C 2.965787 -0.220324 -1.006423 0
M  V30 28 N 2.958485 -1.353492 -0.329524 0
M  V30 29 C 1.680019 -3.372483 1.529226 0
M  V30 30 C 0.681035 -3.859180 2.333444 0
M  V30 31 F -0.484397 -3.199725 2.542733 0
M  V30 32 H -0.926659 -5.985416 3.352594 0
M  V30 33 H 3.942461 -5.772893 1.788231 0
M  V30 34 H 4.768259 -4.094524 0.365685 0
M  V30 35 H 5.997743 -0.645854 -2.316627 0
M  V30 36 H 2.175834 2.607434 -2.279095 0
M  V30 37 H 1.459445 1.836664 1.197113 0
M  V30 38 H -0.722689 2.035402 2.178532 0
M  V30 39 H -4.070038 1.036715 2.994110 0
M  V30 40 H -2.523995 1.975710 3.077092 0
M  V30 41 H -3.738207 3.590256 1.464955 0
M  V30 42 H -4.423569 3.581176 3.124301 0
M  V30 43 H -6.377740 1.320662 0.405406 0
M  V30 44 H -5.312626 2.554966 -0.291389 0
M  V30 45 H -4.681571 -0.138681 1.013807 0
M  V30 46 H -4.226311 0.514493 -0.557115 0
M  V30 47 H -2.370810 0.139055 -1.247111 0
M  V30 48 H -0.164053 -0.029518 -2.176687 0
M  V30 49 H 1.456590 -2.427791 1.083328 0
M  V30 END ATOM
M  V30 BEGIN BOND
M  V30 1 1 1 2
M  V30 2 2 2 3
M  V30 3 1 3 4
M  V30 4 1 3 5
M  V30 5 2 5 6
M  V30 6 1 6 7
M  V30 7 1 7 8
M  V30 8 2 8 9
M  V30 9 1 9 10
M  V30 10 2 10 11
M  V30 11 1 11 12
M  V30 12 2 12 13
M  V30 13 1 13 14
M  V30 14 1 14 15
M  V30 15 2 15 16
M  V30 16 1 16 17
M  V30 17 2 17 18
M  V30 18 1 18 19
M  V30 19 1 19 20
M  V30 20 1 20 21
M  V30 21 1 21 22
M  V30 22 1 22 23
M  V30 23 1 23 24
M  V30 24 1 18 25
M  V30 25 2 25 26
M  V30 26 1 14 27
M  V30 27 2 27 28
M  V30 28 1 6 29
M  V30 29 2 29 30
M  V30 30 1 30 31
M  V30 31 1 30 2
M  V30 32 1 28 8
M  V30 33 1 27 11
M  V30 34 1 26 15
M  V30 35 1 24 19
M  V30 36 1 1 32
M  V30 37 1 5 33
M  V30 38 1 7 34
M  V30 39 1 10 35
M  V30 40 1 13 36
M  V30 41 1 16 37
M  V30 42 1 17 38
M  V30 43 1 20 39
M  V30 44 1 20 40
M  V30 45 1 21 41
M  V30 46 1 21 42
M  V30 47 1 23 43
M  V30 48 1 23 44
M  V30 49 1 24 45
M  V30 50 1 24 46
M  V30 51 1 25 47
M  V30 52 1 26 48
M  V30 53 1 29 49
M  V30 END BOND
M  V30 END CTAB
M  END
>  <Dataset>  (711) 
ChEMBL_Kinases

>  <Ligand_Instance>  (711) 
nan

>  <PDB_ID>  (711) 
nan

>  <Standardized_SMILES>  (711) 
Oc1c(F)cc(Nc2ncc3ncn(-c4ccc(N5CCOCC5)cc4)c3n2)cc1F

>  <Name>  (711) 
nan

>  <Pocket>  (711) 
nan

>  <ATP_Site>  (711) 
nan

>  <Peripheral>  (711) 
nan

>  <Num_H_Atoms_ProtBoundConf>  (711) 
nan

>  <Num_Resolved_Atoms>  (711) 
nan

>  <Num_Not_Resolved_Atoms>  (711) 
nan

$$$$
CHEMBL4858486
     RDKit          3D

  0  0  0  0  0  0  0  0  0  0999 V3000
M  V30 BEGIN CTAB
M  V30 COUNTS 88 93 0 0 0
M  V30 BEGIN ATOM
M  V30 1 C -0.668819 -6.728439 2.978328 0
M  V30 2 O -1.097699 -5.374896 3.034649 0
M  V30 3 C -0.213096 -4.319137 2.869961 0
M  V30 4 C 1.132343 -4.500312 2.645872 0
M  V30 5 C 2.021605 -3.463890 2.481137 0
M  V30 6 N 3.388886 -3.657046 2.249928 0
M  V30 7 C 4.068451 -4.907807 2.108896 0
M  V30 8 C 4.885607 -5.041920 0.851711 0
M  V30 9 N 5.009851 -3.868358 0.083836 0
M  V30 10 C 4.236394 -3.829678 -1.122812 0
M  V30 11 C 5.083416 -2.637128 0.792135 0
M  V30 12 C 4.373882 -2.627254 2.110554 0
M  V30 13 C 1.466043 -2.207121 2.556931 0
M  V30 14 C 0.117053 -2.002898 2.781326 0
M  V30 15 C -0.761234 -3.063684 2.944212 0
M  V30 16 N -2.151839 -2.861603 3.165120 0
M  V30 17 C -2.605390 -1.493425 3.224227 0
M  V30 18 N -2.780677 -0.742968 4.321480 0
M  V30 19 C -3.200035 0.537095 4.210833 0
M  V30 20 C -3.436331 1.033160 2.947362 0
M  V30 21 C -3.855955 2.335142 2.827956 0
M  V30 22 C -4.080346 2.816432 1.561062 0
M  V30 23 C -4.532980 4.209575 1.376629 0
M  V30 24 C -3.875488 1.979308 0.492069 0
M  V30 25 O -4.092455 2.467679 -0.627080 0
M  V30 26 N -3.469032 0.703750 0.538407 0
M  V30 27 C -3.234548 -0.222201 -0.538524 0 CFG=1
M  V30 28 C -4.056299 -0.092675 -1.748738 0
M  V30 29 C -3.380754 0.386472 -2.985035 0
M  V30 30 C -1.987018 -0.046576 -3.198749 0 CFG=1
M  V30 31 N -0.995630 1.000966 -3.220796 0
M  V30 32 C -0.083275 1.150246 -4.304768 0
M  V30 33 O -0.199036 0.310729 -5.246471 0
M  V30 34 C 0.930867 2.254456 -4.273104 0
M  V30 35 C 1.841727 2.121258 -3.077978 0
M  V30 36 C 2.248762 3.430701 -2.472223 0
M  V30 37 C 1.104926 4.337845 -2.169715 0
M  V30 38 C 0.043384 4.376088 -3.214640 0
M  V30 39 C 0.354119 3.608839 -4.470318 0
M  V30 40 C -1.470812 -1.012758 -2.122039 0
M  V30 41 C -1.750990 -0.376440 -0.799540 0
M  V30 42 C -3.256310 0.262994 1.820702 0
M  V30 43 N -2.831429 -1.026401 1.984308 0
M  V30 44 H -1.575055 -7.353238 2.864326 0
M  V30 45 H -0.053394 -7.029425 3.841422 0
M  V30 46 H -0.013464 -6.896792 2.077168 0
M  V30 47 H 1.423376 -5.520933 2.611411 0
M  V30 48 H 3.387902 -5.761569 2.268053 0
M  V30 49 H 4.805385 -4.984450 2.964950 0
M  V30 50 H 5.894609 -5.455155 1.052548 0
M  V30 51 H 4.363738 -5.822005 0.221387 0
M  V30 52 H 3.959776 -2.784725 -1.327452 0
M  V30 53 H 3.401448 -4.528829 -1.168751 0
M  V30 54 H 4.925002 -4.118752 -1.951647 0
M  V30 55 H 4.727057 -1.805861 0.149341 0
M  V30 56 H 6.156085 -2.421465 0.975243 0
M  V30 57 H 4.000553 -1.592710 2.257891 0
M  V30 58 H 5.122157 -2.764127 2.938110 0
M  V30 59 H 2.023668 -1.296863 2.448760 0
M  V30 60 H -0.319925 -0.999298 2.840838 0
M  V30 61 H -2.755751 -3.703389 3.270154 0
M  V30 62 H -3.335266 1.124562 5.091253 0
M  V30 63 H -3.992088 2.921116 3.706532 0
M  V30 64 H -4.271558 4.565242 0.347682 0
M  V30 65 H -5.633943 4.318641 1.469723 0
M  V30 66 H -4.008406 4.915398 2.064890 0
M  V30 67 H -3.485449 -1.239564 -0.092874 0
M  V30 68 H -4.925365 0.556396 -1.547664 0
M  V30 69 H -4.560623 -1.074061 -2.025694 0
M  V30 70 H -3.406032 1.493863 -3.083586 0
M  V30 71 H -3.982757 0.045121 -3.880385 0
M  V30 72 H -1.864707 -0.625951 -4.148446 0
M  V30 73 H -0.897828 1.701154 -2.446614 0
M  V30 74 H 1.580462 2.041858 -5.162505 0
M  V30 75 H 2.777123 1.559080 -3.304486 0
M  V30 76 H 1.324829 1.485126 -2.312783 0
M  V30 77 H 3.017404 3.946331 -3.051937 0
M  V30 78 H 2.715313 3.176084 -1.478193 0
M  V30 79 H 0.627523 4.116597 -1.178508 0
M  V30 80 H 1.545102 5.363967 -2.021035 0
M  V30 81 H -0.949311 4.088945 -2.788113 0
M  V30 82 H -0.120497 5.446639 -3.535339 0
M  V30 83 H 1.009407 4.216769 -5.161350 0
M  V30 84 H -0.595634 3.505997 -5.039814 0
M  V30 85 H -2.146683 -1.892529 -2.206567 0
M  V30 86 H -0.454537 -1.331489 -2.288554 0
M  V30 87 H -1.253298 -0.979029 -0.013346 0
M  V30 88 H -1.301658 0.633348 -0.768485 0
M  V30 END ATOM
M  V30 BEGIN BOND
M  V30 1 1 1 2
M  V30 2 1 2 3
M  V30 3 2 3 4
M  V30 4 1 4 5
M  V30 5 1 5 6
M  V30 6 1 6 7
M  V30 7 1 7 8
M  V30 8 1 8 9
M  V30 9 1 9 10
M  V30 10 1 9 11
M  V30 11 1 11 12
M  V30 12 2 5 13
M  V30 13 1 13 14
M  V30 14 2 14 15
M  V30 15 1 15 16
M  V30 16 1 16 17
M  V30 17 2 17 18
M  V30 18 1 18 19
M  V30 19 2 19 20
M  V30 20 1 20 21
M  V30 21 2 21 22
M  V30 22 1 22 23
M  V30 23 1 22 24
M  V30 24 2 24 25
M  V30 25 1 24 26
M  V30 26 1 26 27
M  V30 27 1 27 28
M  V30 28 1 28 29
M  V30 29 1 29 30
M  V30 30 1 30 31
M  V30 31 1 31 32
M  V30 32 2 32 33
M  V30 33 1 32 34
M  V30 34 1 34 35
M  V30 35 1 35 36
M  V30 36 1 36 37
M  V30 37 1 37 38
M  V30 38 1 38 39
M  V30 39 1 30 40
M  V30 40 1 40 41
M  V30 41 1 26 42
M  V30 42 2 42 43
M  V30 43 1 15 3
M  V30 44 1 43 17
M  V30 45 1 12 6
M  V30 46 1 42 20
M  V30 47 1 41 27
M  V30 48 1 39 34
M  V30 49 1 1 44
M  V30 50 1 1 45
M  V30 51 1 1 46
M  V30 52 1 4 47
M  V30 53 1 7 48
M  V30 54 1 7 49
M  V30 55 1 8 50
M  V30 56 1 8 51
M  V30 57 1 10 52
M  V30 58 1 10 53
M  V30 59 1 10 54
M  V30 60 1 11 55
M  V30 61 1 11 56
M  V30 62 1 12 57
M  V30 63 1 12 58
M  V30 64 1 13 59
M  V30 65 1 14 60
M  V30 66 1 16 61
M  V30 67 1 19 62
M  V30 68 1 21 63
M  V30 69 1 23 64
M  V30 70 1 23 65
M  V30 71 1 23 66
M  V30 72 1 27 67 CFG=1
M  V30 73 1 28 68
M  V30 74 1 28 69
M  V30 75 1 29 70
M  V30 76 1 29 71
M  V30 77 1 30 72 CFG=3
M  V30 78 1 31 73
M  V30 79 1 34 74
M  V30 80 1 35 75
M  V30 81 1 35 76
M  V30 82 1 36 77
M  V30 83 1 36 78
M  V30 84 1 37 79
M  V30 85 1 37 80
M  V30 86 1 38 81
M  V30 87 1 38 82
M  V30 88 1 39 83
M  V30 89 1 39 84
M  V30 90 1 40 85
M  V30 91 1 40 86
M  V30 92 1 41 87
M  V30 93 1 41 88
M  V30 END BOND
M  V30 END CTAB
M  END
>  <Dataset>  (712) 
ChEMBL_Kinases

>  <Ligand_Instance>  (712) 
nan

>  <PDB_ID>  (712) 
nan

>  <Standardized_SMILES>  (712) 
COc1cc(N2CCN(C)CC2)ccc1Nc1ncc2cc(C)c(=O)n([C@H]3CC[C@@H](NC(=O)C4CCCCC4)CC3)c2n1

>  <Name>  (712) 
nan

>  <Pocket>  (712) 
nan

>  <ATP_Site>  (712) 
nan

>  <Peripheral>  (712) 
nan

>  <Num_H_Atoms_ProtBoundConf>  (712) 
nan

>  <Num_Resolved_Atoms>  (712) 
nan

>  <Num_Not_Resolved_Atoms>  (712) 
nan

$$$$
CHEMBL4857987
     RDKit          3D

  0  0  0  0  0  0  0  0  0  0999 V3000
M  V30 BEGIN CTAB
M  V30 COUNTS 58 62 0 0 0
M  V30 BEGIN ATOM
M  V30 1 C 5.543836 -0.524930 0.832713 0
M  V30 2 O 4.715369 0.632381 0.887950 0
M  V30 3 C 4.489671 1.153762 2.161942 0
M  V30 4 C 5.019179 0.612071 3.326596 0
M  V30 5 C 4.705525 1.244350 4.534557 0
M  V30 6 C 3.883915 2.376190 4.504460 0
M  V30 7 F 3.629824 2.926905 5.715906 0
M  V30 8 C 3.363088 2.905748 3.339844 0
M  V30 9 C 3.693881 2.254947 2.161427 0
M  V30 10 C 3.113260 2.864891 0.954705 0
M  V30 11 C 3.696645 3.865524 0.196248 0
M  V30 12 C 3.038150 4.350561 -0.915988 0
M  V30 13 N 1.836311 3.860161 -1.268798 0
M  V30 14 C 1.225208 2.886700 -0.565632 0
M  V30 15 N 0.046292 2.262131 -0.741096 0
M  V30 16 C -0.134521 1.341658 0.234688 0
M  V30 17 C -1.264836 0.411684 0.464307 0
M  V30 18 C -1.207595 -0.421172 1.513412 0
M  V30 19 C -2.367315 -1.343792 1.709416 0
M  V30 20 N -3.031959 -1.515551 0.432654 0
M  V30 21 C -3.140337 -2.740541 -0.274882 0
M  V30 22 C -2.641760 -3.905372 0.223041 0
M  V30 23 C -2.739280 -5.115799 -0.464118 0
M  V30 24 C -3.359541 -5.145030 -1.690344 0
M  V30 25 C -3.477187 -6.422664 -2.443548 0
M  V30 26 C -4.713474 -7.143278 -2.114410 0
M  V30 27 O -5.148088 -6.303587 -1.286363 0
M  V30 28 O -5.780442 -8.015593 -1.993549 0
M  V30 29 C -3.872985 -3.976206 -2.215915 0
M  V30 30 C -3.754918 -2.792104 -1.499003 0
M  V30 31 C -3.572807 -0.246683 -0.025252 0
M  V30 32 C -2.363942 0.521740 -0.531901 0
M  V30 33 C 1.009203 1.427577 1.037672 0
M  V30 34 C 1.870382 2.388843 0.551751 0
M  V30 35 H 6.547296 -0.355147 1.278507 0
M  V30 36 H 5.700205 -0.891107 -0.198577 0
M  V30 37 H 5.083203 -1.360138 1.433651 0
M  V30 38 H 5.645967 -0.270038 3.238547 0
M  V30 39 H 5.118742 0.818137 5.422238 0
M  V30 40 H 2.734190 3.786736 3.402247 0
M  V30 41 H 4.670745 4.216871 0.538799 0
M  V30 42 H 3.583966 5.125902 -1.429286 0
M  V30 43 H -0.669400 2.415155 -1.495268 0
M  V30 44 H -0.348293 -0.401553 2.168512 0
M  V30 45 H -3.109771 -0.849033 2.386034 0
M  V30 46 H -2.086524 -2.267791 2.217288 0
M  V30 47 H -2.148785 -3.984884 1.153592 0
M  V30 48 H -2.343479 -6.044552 -0.070109 0
M  V30 49 H -3.546164 -6.138012 -3.531016 0
M  V30 50 H -2.548758 -7.008892 -2.315108 0
M  V30 51 H -6.571204 -8.009005 -2.627035 0
M  V30 52 H -4.353762 -4.033530 -3.180472 0
M  V30 53 H -4.182371 -1.955277 -1.995381 0
M  V30 54 H -4.349017 -0.337328 -0.796742 0
M  V30 55 H -4.024558 0.355409 0.801403 0
M  V30 56 H -2.620173 1.587144 -0.716153 0
M  V30 57 H -1.983010 0.036659 -1.470421 0
M  V30 58 H 1.236809 0.850901 1.919528 0
M  V30 END ATOM
M  V30 BEGIN BOND
M  V30 1 1 1 2
M  V30 2 1 2 3
M  V30 3 2 3 4
M  V30 4 1 4 5
M  V30 5 2 5 6
M  V30 6 1 6 7
M  V30 7 1 6 8
M  V30 8 2 8 9
M  V30 9 1 9 10
M  V30 10 2 10 11
M  V30 11 1 11 12
M  V30 12 2 12 13
M  V30 13 1 13 14
M  V30 14 1 14 15
M  V30 15 1 15 16
M  V30 16 1 16 17
M  V30 17 2 17 18
M  V30 18 1 18 19
M  V30 19 1 19 20
M  V30 20 1 20 21
M  V30 21 2 21 22
M  V30 22 1 22 23
M  V30 23 2 23 24
M  V30 24 1 24 25
M  V30 25 1 25 26
M  V30 26 2 26 27
M  V30 27 1 26 28
M  V30 28 1 24 29
M  V30 29 2 29 30
M  V30 30 1 20 31
M  V30 31 1 31 32
M  V30 32 2 16 33
M  V30 33 1 33 34
M  V30 34 1 9 3
M  V30 35 1 34 10
M  V30 36 2 34 14
M  V30 37 1 32 17
M  V30 38 1 30 21
M  V30 39 1 1 35
M  V30 40 1 1 36
M  V30 41 1 1 37
M  V30 42 1 4 38
M  V30 43 1 5 39
M  V30 44 1 8 40
M  V30 45 1 11 41
M  V30 46 1 12 42
M  V30 47 1 15 43
M  V30 48 1 18 44
M  V30 49 1 19 45
M  V30 50 1 19 46
M  V30 51 1 22 47
M  V30 52 1 23 48
M  V30 53 1 25 49
M  V30 54 1 25 50
M  V30 55 1 28 51
M  V30 56 1 29 52
M  V30 57 1 30 53
M  V30 58 1 31 54
M  V30 59 1 31 55
M  V30 60 1 32 56
M  V30 61 1 32 57
M  V30 62 1 33 58
M  V30 END BOND
M  V30 END CTAB
M  END
>  <Dataset>  (713) 
ChEMBL_Kinases

>  <Ligand_Instance>  (713) 
nan

>  <PDB_ID>  (713) 
nan

>  <Standardized_SMILES>  (713) 
COc1ccc(F)cc1-c1ccnc2[nH]c(C3=CCN(c4ccc(CC(=O)O)cc4)CC3)cc12

>  <Name>  (713) 
nan

>  <Pocket>  (713) 
nan

>  <ATP_Site>  (713) 
nan

>  <Peripheral>  (713) 
nan

>  <Num_H_Atoms_ProtBoundConf>  (713) 
nan

>  <Num_Resolved_Atoms>  (713) 
nan

>  <Num_Not_Resolved_Atoms>  (713) 
nan

$$$$
CHEMBL4073561
     RDKit          3D

  0  0  0  0  0  0  0  0  0  0999 V3000
M  V30 BEGIN CTAB
M  V30 COUNTS 61 65 0 0 0
M  V30 BEGIN ATOM
M  V30 1 C 9.547724 0.431837 3.456282 0
M  V30 2 N 8.579499 -0.130809 2.527872 0
M  V30 3 C 7.387358 0.632661 2.447273 0
M  V30 4 O 7.391980 1.660525 3.199917 0
M  V30 5 C 6.256847 0.266056 1.575054 0
M  V30 6 C 6.273452 -0.835288 0.773192 0
M  V30 7 C 5.151716 -1.100253 -0.018679 0
M  V30 8 C 4.016661 -0.290008 -0.026047 0
M  V30 9 C 4.088267 0.807002 0.819697 0
M  V30 10 C 5.166542 1.127841 1.629493 0
M  V30 11 C 2.993059 1.788614 0.960127 0
M  V30 12 O 3.300136 2.876775 1.505421 0
M  V30 13 C 1.582408 1.656625 0.542321 0
M  V30 14 C 0.842460 2.796283 0.758849 0
M  V30 15 C -0.497058 2.813439 0.413626 0
M  V30 16 C -1.129316 1.720973 -0.145835 0
M  V30 17 N -2.482649 1.685394 -0.510736 0
M  V30 18 C -3.173138 0.636982 -1.127913 0
M  V30 19 C -4.262212 -0.065591 -0.654349 0
M  V30 20 C -4.864085 -1.085001 -1.358630 0
M  V30 21 N -5.989512 -1.773396 -0.810996 0
M  V30 22 C -5.527991 -2.894514 -0.044148 0
M  V30 23 O -4.251757 -2.959969 -0.067690 0
M  V30 24 C -6.403093 -3.825856 0.661731 0
M  V30 25 C -7.778059 -3.768785 0.695484 0
M  V30 26 C -8.456175 -4.744491 1.422043 0
M  V30 27 C -7.811478 -5.757420 2.103655 0
M  V30 28 Cl -8.700213 -6.967808 3.007059 0
M  V30 29 C -6.415604 -5.799017 2.057810 0
M  V30 30 C -5.746405 -4.833278 1.338774 0
M  V30 31 C -4.372866 -1.439890 -2.600386 0
M  V30 32 F -4.967584 -2.454098 -3.306223 0
M  V30 33 C -3.281069 -0.751812 -3.100144 0
M  V30 34 C -2.678470 0.281142 -2.376290 0
M  V30 35 F -1.618387 0.819804 -3.065178 0
M  V30 36 C -0.310383 0.601318 -0.334339 0
M  V30 37 C 1.046339 0.513164 -0.010146 0
M  V30 38 C 1.588648 -0.814087 -0.344844 0
M  V30 39 C 2.960682 -0.762137 -0.934580 0
M  V30 40 H 9.113511 0.384129 4.476486 0
M  V30 41 H 9.914149 1.419793 3.163977 0
M  V30 42 H 10.449235 -0.237017 3.459413 0
M  V30 43 H 8.688105 -0.982096 1.964923 0
M  V30 44 H 7.134327 -1.489578 0.749253 0
M  V30 45 H 5.110242 -1.961554 -0.674949 0
M  V30 46 H 5.073813 2.020463 2.236990 0
M  V30 47 H 1.319450 3.670449 1.199249 0
M  V30 48 H -1.089997 3.719868 0.584371 0
M  V30 49 H -3.045353 2.538625 -0.299610 0
M  V30 50 H -4.613004 0.236888 0.307096 0
M  V30 51 H -7.039831 -1.618760 -0.863254 0
M  V30 52 H -8.242917 -2.970685 0.156145 0
M  V30 53 H -9.534961 -4.686285 1.438859 0
M  V30 54 H -5.955963 -6.609953 2.606380 0
M  V30 55 H -4.656819 -4.938726 1.354612 0
M  V30 56 H -2.958033 -1.093185 -4.082253 0
M  V30 57 H -0.754928 -0.294224 -0.772118 0
M  V30 58 H 1.533917 -1.467788 0.557065 0
M  V30 59 H 0.932359 -1.317186 -1.094169 0
M  V30 60 H 2.912241 -0.219465 -1.892243 0
M  V30 61 H 3.226368 -1.827253 -1.199321 0
M  V30 END ATOM
M  V30 BEGIN BOND
M  V30 1 1 1 2
M  V30 2 1 2 3
M  V30 3 2 3 4
M  V30 4 1 3 5
M  V30 5 2 5 6
M  V30 6 1 6 7
M  V30 7 2 7 8
M  V30 8 1 8 9
M  V30 9 2 9 10
M  V30 10 1 9 11
M  V30 11 2 11 12
M  V30 12 1 11 13
M  V30 13 2 13 14
M  V30 14 1 14 15
M  V30 15 2 15 16
M  V30 16 1 16 17
M  V30 17 1 17 18
M  V30 18 2 18 19
M  V30 19 1 19 20
M  V30 20 1 20 21
M  V30 21 1 21 22
M  V30 22 2 22 23
M  V30 23 1 22 24
M  V30 24 2 24 25
M  V30 25 1 25 26
M  V30 26 2 26 27
M  V30 27 1 27 28
M  V30 28 1 27 29
M  V30 29 2 29 30
M  V30 30 2 20 31
M  V30 31 1 31 32
M  V30 32 1 31 33
M  V30 33 2 33 34
M  V30 34 1 34 35
M  V30 35 1 16 36
M  V30 36 2 36 37
M  V30 37 1 37 38
M  V30 38 1 38 39
M  V30 39 1 10 5
M  V30 40 1 37 13
M  V30 41 1 39 8
M  V30 42 1 34 18
M  V30 43 1 30 24
M  V30 44 1 1 40
M  V30 45 1 1 41
M  V30 46 1 1 42
M  V30 47 1 2 43
M  V30 48 1 6 44
M  V30 49 1 7 45
M  V30 50 1 10 46
M  V30 51 1 14 47
M  V30 52 1 15 48
M  V30 53 1 17 49
M  V30 54 1 19 50
M  V30 55 1 21 51
M  V30 56 1 25 52
M  V30 57 1 26 53
M  V30 58 1 29 54
M  V30 59 1 30 55
M  V30 60 1 33 56
M  V30 61 1 36 57
M  V30 62 1 38 58
M  V30 63 1 38 59
M  V30 64 1 39 60
M  V30 65 1 39 61
M  V30 END BOND
M  V30 END CTAB
M  END
>  <Dataset>  (714) 
ChEMBL_Kinases

>  <Ligand_Instance>  (714) 
nan

>  <PDB_ID>  (714) 
nan

>  <Standardized_SMILES>  (714) 
CNC(=O)c1ccc2c(c1)C(=O)c1ccc(Nc3cc(NC(=O)c4ccc(Cl)cc4)c(F)cc3F)cc1CC2

>  <Name>  (714) 
nan

>  <Pocket>  (714) 
nan

>  <ATP_Site>  (714) 
nan

>  <Peripheral>  (714) 
nan

>  <Num_H_Atoms_ProtBoundConf>  (714) 
nan

>  <Num_Resolved_Atoms>  (714) 
nan

>  <Num_Not_Resolved_Atoms>  (714) 
nan

$$$$
CHEMBL4073477
     RDKit          3D

  0  0  0  0  0  0  0  0  0  0999 V3000
M  V30 BEGIN CTAB
M  V30 COUNTS 50 53 0 0 0
M  V30 BEGIN ATOM
M  V30 1 C 1.514664 -4.055295 3.642465 0
M  V30 2 C 1.395692 -3.860294 2.194682 0
M  V30 3 C 0.203384 -3.951107 1.530321 0
M  V30 4 C 0.447724 -3.718093 0.208631 0
M  V30 5 N -0.178852 -3.630565 -1.078785 0
M  V30 6 C -0.642846 -2.282935 -1.288349 0
M  V30 7 N 0.241043 -1.255630 -1.384465 0
M  V30 8 C -0.188028 0.007112 -1.593907 0
M  V30 9 C 0.947615 0.920221 -1.650937 0
M  V30 10 O 1.743100 1.349515 -2.501799 0
M  V30 11 N 1.292624 1.528948 -0.386267 0
M  V30 12 C 2.435975 2.437538 -0.466288 0
M  V30 13 C 0.637373 1.339184 0.906742 0
M  V30 14 C 0.065275 2.591745 1.445353 0
M  V30 15 C 0.676750 3.184353 2.655341 0
M  V30 16 N 1.883422 2.548261 3.131448 0
M  V30 17 C 1.601510 1.150185 3.212774 0
M  V30 18 C 1.593133 0.618755 1.801267 0
M  V30 19 N -1.514902 0.297570 -1.716430 0
M  V30 20 C -2.413455 -0.710183 -1.624169 0
M  V30 21 C -3.746964 -0.393242 -1.754440 0
M  V30 22 C -4.644930 -1.434535 -1.660837 0
M  V30 23 C -4.249326 -2.742882 -1.446353 0
M  V30 24 Cl -5.398868 -4.035498 -1.332667 0
M  V30 25 C -2.891285 -3.048802 -1.315983 0
M  V30 26 C -2.011609 -2.012379 -1.410350 0
M  V30 27 N 1.773560 -3.487880 0.063910 0
M  V30 28 N 2.347746 -3.574982 1.272699 0
M  V30 29 H 2.536989 -4.455753 3.831108 0
M  V30 30 H 0.732137 -4.736813 4.008794 0
M  V30 31 H 1.453042 -3.100436 4.222483 0
M  V30 32 H -0.814037 -4.145698 1.764012 0
M  V30 33 H -0.323780 -4.367817 -1.813687 0
M  V30 34 H 2.410147 3.204151 0.309742 0
M  V30 35 H 2.378352 2.985851 -1.434434 0
M  V30 36 H 3.385670 1.866242 -0.352099 0
M  V30 37 H -0.190847 0.620949 0.700945 0
M  V30 38 H 0.077668 3.388153 0.638968 0
M  V30 39 H -1.039152 2.478015 1.644171 0
M  V30 40 H -0.043320 3.112141 3.525767 0
M  V30 41 H 0.889306 4.285792 2.520205 0
M  V30 42 H 2.741556 2.810159 2.641250 0
M  V30 43 H 2.270606 0.561286 3.829966 0
M  V30 44 H 0.554964 1.066111 3.619216 0
M  V30 45 H 1.348194 -0.463119 1.907872 0
M  V30 46 H 2.632326 0.651749 1.422095 0
M  V30 47 H -4.130351 0.606522 -1.924811 0
M  V30 48 H -5.720654 -1.291086 -1.751111 0
M  V30 49 H -2.524733 -4.039585 -1.149839 0
M  V30 50 H 3.357915 -3.457340 1.555044 0
M  V30 END ATOM
M  V30 BEGIN BOND
M  V30 1 1 1 2
M  V30 2 2 2 3
M  V30 3 1 3 4
M  V30 4 1 4 5
M  V30 5 1 5 6
M  V30 6 2 6 7
M  V30 7 1 7 8
M  V30 8 1 8 9
M  V30 9 2 9 10
M  V30 10 1 9 11
M  V30 11 1 11 12
M  V30 12 1 11 13
M  V30 13 1 13 14
M  V30 14 1 14 15
M  V30 15 1 15 16
M  V30 16 1 16 17
M  V30 17 1 17 18
M  V30 18 2 8 19
M  V30 19 1 19 20
M  V30 20 2 20 21
M  V30 21 1 21 22
M  V30 22 2 22 23
M  V30 23 1 23 24
M  V30 24 1 23 25
M  V30 25 2 25 26
M  V30 26 2 4 27
M  V30 27 1 27 28
M  V30 28 1 28 2
M  V30 29 1 26 6
M  V30 30 1 18 13
M  V30 31 1 26 20
M  V30 32 1 1 29
M  V30 33 1 1 30
M  V30 34 1 1 31
M  V30 35 1 3 32
M  V30 36 1 5 33
M  V30 37 1 12 34
M  V30 38 1 12 35
M  V30 39 1 12 36
M  V30 40 1 13 37
M  V30 41 1 14 38
M  V30 42 1 14 39
M  V30 43 1 15 40
M  V30 44 1 15 41
M  V30 45 1 16 42
M  V30 46 1 17 43
M  V30 47 1 17 44
M  V30 48 1 18 45
M  V30 49 1 18 46
M  V30 50 1 21 47
M  V30 51 1 22 48
M  V30 52 1 25 49
M  V30 53 1 28 50
M  V30 END BOND
M  V30 END CTAB
M  END
>  <Dataset>  (715) 
ChEMBL_Kinases

>  <Ligand_Instance>  (715) 
nan

>  <PDB_ID>  (715) 
nan

>  <Standardized_SMILES>  (715) 
Cc1cc(Nc2nc(C(=O)N(C)C3CCNCC3)nc3ccc(Cl)cc23)n[nH]1

>  <Name>  (715) 
nan

>  <Pocket>  (715) 
nan

>  <ATP_Site>  (715) 
nan

>  <Peripheral>  (715) 
nan

>  <Num_H_Atoms_ProtBoundConf>  (715) 
nan

>  <Num_Resolved_Atoms>  (715) 
nan

>  <Num_Not_Resolved_Atoms>  (715) 
nan

$$$$
CHEMBL4857294
     RDKit          3D

  0  0  0  0  0  0  0  0  0  0999 V3000
M  V30 BEGIN CTAB
M  V30 COUNTS 45 49 0 0 0
M  V30 BEGIN ATOM
M  V30 1 F 2.460923 -0.635000 7.441022 0
M  V30 2 C 2.233357 -0.971638 6.159478 0
M  V30 3 C 1.919007 -2.285304 5.885759 0
M  V30 4 C 1.684730 -2.639498 4.575132 0
M  V30 5 C 1.775167 -1.668863 3.605993 0
M  V30 6 F 1.536568 -2.072653 2.344137 0
M  V30 7 C 2.082687 -0.347275 3.809613 0
M  V30 8 C 2.195160 0.725524 2.842437 0
M  V30 9 C 2.017960 0.646949 1.503438 0
M  V30 10 C 2.131645 1.681847 0.612600 0
M  V30 11 N 1.934363 1.547870 -0.787342 0
M  V30 12 C 1.475751 0.452064 -1.566194 0
M  V30 13 C 2.363120 -0.060409 -2.510794 0
M  V30 14 C 2.042959 -1.120253 -3.329479 0
M  V30 15 N 0.827497 -1.692352 -3.222528 0
M  V30 16 C -0.076481 -1.225971 -2.312589 0
M  V30 17 C -1.323769 -1.816562 -2.212941 0
M  V30 18 C -2.258454 -1.341331 -1.286368 0
M  V30 19 C -3.593902 -1.918145 -1.127238 0
M  V30 20 C -4.036576 -3.232044 -1.294401 0
M  V30 21 N -5.370270 -3.277652 -1.031859 0
M  V30 22 N -5.783654 -2.043573 -0.705952 0
M  V30 23 C -4.729771 -1.209326 -0.757159 0
M  V30 24 C -1.873033 -0.274304 -0.496379 0
M  V30 25 C -0.640735 0.341182 -0.564794 0
M  V30 26 C 0.244968 -0.163672 -1.492513 0
M  V30 27 C 2.455682 2.927088 1.102651 0
M  V30 28 C 2.632793 2.988364 2.470746 0
M  V30 29 N 2.505855 1.934713 3.285159 0
M  V30 30 C 2.309211 -0.046355 5.148875 0
M  V30 31 H 1.858354 -3.015602 6.678909 0
M  V30 32 H 1.436545 -3.658522 4.323025 0
M  V30 33 H 1.762144 -0.300019 1.054014 0
M  V30 34 H 2.132383 2.333458 -1.429006 0
M  V30 35 H 3.374615 0.336283 -2.673980 0
M  V30 36 H 2.708335 -1.540604 -4.071896 0
M  V30 37 H -1.625123 -2.650101 -2.830657 0
M  V30 38 H -3.375892 -4.044103 -1.588002 0
M  V30 39 H -6.803518 -1.904888 -0.471110 0
M  V30 40 H -4.819437 -0.145033 -0.530843 0
M  V30 41 H -2.594528 0.097100 0.223041 0
M  V30 42 H -0.399254 1.166163 0.066539 0
M  V30 43 H 2.574427 3.825238 0.498160 0
M  V30 44 H 2.893116 3.960996 2.916254 0
M  V30 45 H 2.563910 0.963209 5.467185 0
M  V30 END ATOM
M  V30 BEGIN BOND
M  V30 1 1 1 2
M  V30 2 2 2 3
M  V30 3 1 3 4
M  V30 4 2 4 5
M  V30 5 1 5 6
M  V30 6 1 5 7
M  V30 7 1 7 8
M  V30 8 2 8 9
M  V30 9 1 9 10
M  V30 10 1 10 11
M  V30 11 1 11 12
M  V30 12 2 12 13
M  V30 13 1 13 14
M  V30 14 2 14 15
M  V30 15 1 15 16
M  V30 16 2 16 17
M  V30 17 1 17 18
M  V30 18 1 18 19
M  V30 19 1 19 20
M  V30 20 2 20 21
M  V30 21 1 21 22
M  V30 22 1 22 23
M  V30 23 2 18 24
M  V30 24 1 24 25
M  V30 25 2 25 26
M  V30 26 2 10 27
M  V30 27 1 27 28
M  V30 28 2 28 29
M  V30 29 2 7 30
M  V30 30 1 30 2
M  V30 31 1 29 8
M  V30 32 1 26 12
M  V30 33 1 26 16
M  V30 34 2 23 19
M  V30 35 1 3 31
M  V30 36 1 4 32
M  V30 37 1 9 33
M  V30 38 1 11 34
M  V30 39 1 13 35
M  V30 40 1 14 36
M  V30 41 1 17 37
M  V30 42 1 20 38
M  V30 43 1 22 39
M  V30 44 1 23 40
M  V30 45 1 24 41
M  V30 46 1 25 42
M  V30 47 1 27 43
M  V30 48 1 28 44
M  V30 49 1 30 45
M  V30 END BOND
M  V30 END CTAB
M  END
>  <Dataset>  (716) 
ChEMBL_Kinases

>  <Ligand_Instance>  (716) 
nan

>  <PDB_ID>  (716) 
nan

>  <Standardized_SMILES>  (716) 
Fc1ccc(F)c(-c2cc(Nc3ccnc4cc(-c5cn[nH]c5)ccc34)ccn2)c1

>  <Name>  (716) 
nan

>  <Pocket>  (716) 
nan

>  <ATP_Site>  (716) 
nan

>  <Peripheral>  (716) 
nan

>  <Num_H_Atoms_ProtBoundConf>  (716) 
nan

>  <Num_Resolved_Atoms>  (716) 
nan

>  <Num_Not_Resolved_Atoms>  (716) 
nan

$$$$
CHEMBL4857316
     RDKit          3D

  0  0  0  0  0  0  0  0  0  0999 V3000
M  V30 BEGIN CTAB
M  V30 COUNTS 60 65 0 0 0
M  V30 BEGIN ATOM
M  V30 1 O 3.250768 -3.528384 3.464895 0
M  V30 2 C 2.071605 -3.196530 3.046274 0
M  V30 3 C 1.942539 -1.758868 2.973127 0
M  V30 4 C 2.337768 -1.098570 4.146965 0
M  V30 5 C 2.293182 0.254047 4.391070 0
M  V30 6 C 1.805250 1.023461 3.359229 0
M  V30 7 C 1.380729 0.515862 2.149791 0
M  V30 8 N 0.884097 1.264309 1.062396 0
M  V30 9 S -0.315688 2.489159 0.895171 0
M  V30 10 O -0.367886 2.810357 -0.599393 0
M  V30 11 O -1.639431 1.838462 1.150217 0
M  V30 12 C 0.031531 3.895790 1.794940 0
M  V30 13 C -0.910647 5.023836 1.725222 0
M  V30 14 C -0.689422 5.965725 0.706550 0
M  V30 15 C -1.522408 7.047056 0.575922 0
M  V30 16 C -2.575583 7.227390 1.427602 0
M  V30 17 C -2.834107 6.333562 2.440245 0
M  V30 18 C -1.969739 5.245212 2.547033 0
M  V30 19 C 1.487873 -0.845740 2.061978 0
M  V30 20 F 1.087819 -1.387447 0.896143 0
M  V30 21 C 1.273646 -4.379127 2.801528 0
M  V30 22 C 1.063784 -5.206274 3.925536 0
M  V30 23 N 0.254331 -6.240672 3.676125 0
M  V30 24 C -0.104563 -6.150598 2.390683 0
M  V30 25 N -0.856123 -6.821667 1.502871 0
M  V30 26 C -1.015896 -6.466747 0.216464 0
M  V30 27 C -0.386301 -5.328902 -0.311086 0
M  V30 28 C -0.535834 -4.910823 -1.695877 0
M  V30 29 C -0.466277 -3.533391 -1.952166 0
M  V30 30 N -0.599268 -3.095254 -3.213418 0
M  V30 31 C -0.798356 -3.917081 -4.256047 0
M  V30 32 C -0.925079 -3.255841 -5.588574 0
M  V30 33 C -1.387160 -1.855850 -5.662690 0
M  V30 34 C 0.053516 -2.130030 -5.885103 0
M  V30 35 N -0.870822 -5.251744 -4.045200 0
M  V30 36 C -0.740354 -5.736937 -2.778259 0
M  V30 37 C 0.391354 -4.617818 0.572301 0
M  V30 38 C 0.507746 -5.038287 1.873622 0
M  V30 39 H 2.736699 -1.663250 5.004540 0
M  V30 40 H 2.611743 0.703977 5.314345 0
M  V30 41 H 1.760970 2.088554 3.518913 0
M  V30 42 H 1.423824 0.947257 0.202433 0
M  V30 43 H 0.111833 3.636292 2.893786 0
M  V30 44 H 1.030844 4.289577 1.529984 0
M  V30 45 H 0.139878 5.842538 0.018291 0
M  V30 46 H -1.315312 7.750238 -0.223528 0
M  V30 47 H -3.250473 8.078196 1.343741 0
M  V30 48 H -3.666883 6.428895 3.153923 0
M  V30 49 H -2.137138 4.513452 3.333432 0
M  V30 50 H 1.434120 -5.163970 4.955089 0
M  V30 51 H -0.111530 -7.020471 4.228076 0
M  V30 52 H -1.636625 -7.056220 -0.434300 0
M  V30 53 H -0.308069 -2.782103 -1.176346 0
M  V30 54 H -1.116169 -3.905414 -6.467660 0
M  V30 55 H -1.952402 -1.501319 -6.553696 0
M  V30 56 H -1.702534 -1.297066 -4.750455 0
M  V30 57 H 0.468960 -2.044047 -6.916463 0
M  V30 58 H 0.737497 -1.809258 -5.074016 0
M  V30 59 H -0.793389 -6.797159 -2.580487 0
M  V30 60 H 0.884236 -3.765311 0.159178 0
M  V30 END ATOM
M  V30 BEGIN BOND
M  V30 1 2 1 2
M  V30 2 1 2 3
M  V30 3 2 3 4
M  V30 4 1 4 5
M  V30 5 2 5 6
M  V30 6 1 6 7
M  V30 7 1 7 8
M  V30 8 1 8 9
M  V30 9 2 9 10
M  V30 10 2 9 11
M  V30 11 1 9 12
M  V30 12 1 12 13
M  V30 13 2 13 14
M  V30 14 1 14 15
M  V30 15 2 15 16
M  V30 16 1 16 17
M  V30 17 2 17 18
M  V30 18 2 7 19
M  V30 19 1 19 20
M  V30 20 1 2 21
M  V30 21 2 21 22
M  V30 22 1 22 23
M  V30 23 1 23 24
M  V30 24 2 24 25
M  V30 25 1 25 26
M  V30 26 2 26 27
M  V30 27 1 27 28
M  V30 28 2 28 29
M  V30 29 1 29 30
M  V30 30 2 30 31
M  V30 31 1 31 32
M  V30 32 1 32 33
M  V30 33 1 33 34
M  V30 34 1 31 35
M  V30 35 2 35 36
M  V30 36 1 27 37
M  V30 37 2 37 38
M  V30 38 1 19 3
M  V30 39 1 38 21
M  V30 40 1 18 13
M  V30 41 1 38 24
M  V30 42 1 36 28
M  V30 43 1 34 32
M  V30 44 1 4 39
M  V30 45 1 5 40
M  V30 46 1 6 41
M  V30 47 1 8 42
M  V30 48 1 12 43
M  V30 49 1 12 44
M  V30 50 1 14 45
M  V30 51 1 15 46
M  V30 52 1 16 47
M  V30 53 1 17 48
M  V30 54 1 18 49
M  V30 55 1 22 50
M  V30 56 1 23 51
M  V30 57 1 26 52
M  V30 58 1 29 53
M  V30 59 1 32 54
M  V30 60 1 33 55
M  V30 61 1 33 56
M  V30 62 1 34 57
M  V30 63 1 34 58
M  V30 64 1 36 59
M  V30 65 1 37 60
M  V30 END BOND
M  V30 END CTAB
M  END
>  <Dataset>  (717) 
ChEMBL_Kinases

>  <Ligand_Instance>  (717) 
nan

>  <PDB_ID>  (717) 
nan

>  <Standardized_SMILES>  (717) 
O=C(c1cccc(NS(=O)(=O)Cc2ccccc2)c1F)c1c[nH]c2ncc(-c3cnc(C4CC4)nc3)cc12

>  <Name>  (717) 
nan

>  <Pocket>  (717) 
nan

>  <ATP_Site>  (717) 
nan

>  <Peripheral>  (717) 
nan

>  <Num_H_Atoms_ProtBoundConf>  (717) 
nan

>  <Num_Resolved_Atoms>  (717) 
nan

>  <Num_Not_Resolved_Atoms>  (717) 
nan

$$$$
CHEMBL4857348
     RDKit          3D

  0  0  0  0  0  0  0  0  0  0999 V3000
M  V30 BEGIN CTAB
M  V30 COUNTS 34 35 0 0 0
M  V30 BEGIN ATOM
M  V30 1 C -2.740544 -1.160009 2.917280 0
M  V30 2 O -2.461476 0.033659 2.202197 0
M  V30 3 C -1.256226 0.244558 1.550821 0
M  V30 4 C -0.187393 -0.659494 1.510930 0
M  V30 5 C 0.966075 -0.323345 0.821340 0
M  V30 6 N 1.955204 -1.369966 0.887905 0
M  V30 7 C 1.726267 -2.230339 -0.225635 0
M  V30 8 O 0.780391 -1.994406 -1.051125 0
M  V30 9 C 2.394391 -3.457349 -0.698581 0 CFG=1
M  V30 10 C 2.902424 -3.361709 -2.111649 0
M  V30 11 N 3.501127 -3.853652 0.147863 0
M  V30 12 C 1.124074 0.876928 0.157996 0
M  V30 13 C 0.076598 1.774920 0.191174 0
M  V30 14 C -1.070600 1.435609 0.879475 0
M  V30 15 C -2.168259 2.424576 0.890666 0
M  V30 16 C -2.206562 3.654378 0.301808 0
M  V30 17 N -3.416296 4.226576 0.569366 0
M  V30 18 C -4.094287 3.336543 1.316173 0
M  V30 19 O -3.336362 2.282612 1.491375 0
M  V30 20 H -3.106177 -1.901810 2.184912 0
M  V30 21 H -3.495657 -1.023050 3.692908 0
M  V30 22 H -1.824017 -1.535750 3.451284 0
M  V30 23 H -0.352336 -1.579829 2.039443 0
M  V30 24 H 2.763879 -1.727403 1.438557 0
M  V30 25 H 1.655450 -4.285686 -0.645935 0
M  V30 26 H 2.775321 -4.350279 -2.601717 0
M  V30 27 H 2.309048 -2.658422 -2.742801 0
M  V30 28 H 3.973681 -3.038402 -2.117784 0
M  V30 29 H 3.316450 -3.683676 1.169911 0
M  V30 30 H 3.690059 -4.878282 0.070450 0
M  V30 31 H 2.075720 1.007230 -0.338468 0
M  V30 32 H 0.214390 2.702172 -0.328419 0
M  V30 33 H -1.378918 4.047014 -0.267794 0
M  V30 34 H -5.107046 3.482598 1.704320 0
M  V30 END ATOM
M  V30 BEGIN BOND
M  V30 1 1 1 2
M  V30 2 1 2 3
M  V30 3 2 3 4
M  V30 4 1 4 5
M  V30 5 1 5 6
M  V30 6 1 6 7
M  V30 7 2 7 8
M  V30 8 1 7 9
M  V30 9 1 9 10
M  V30 10 1 9 11
M  V30 11 2 5 12
M  V30 12 1 12 13
M  V30 13 2 13 14
M  V30 14 1 14 15
M  V30 15 2 15 16
M  V30 16 1 16 17
M  V30 17 2 17 18
M  V30 18 1 18 19
M  V30 19 1 14 3
M  V30 20 1 19 15
M  V30 21 1 1 20
M  V30 22 1 1 21
M  V30 23 1 1 22
M  V30 24 1 4 23
M  V30 25 1 6 24
M  V30 26 1 9 25 CFG=3
M  V30 27 1 10 26
M  V30 28 1 10 27
M  V30 29 1 10 28
M  V30 30 1 11 29
M  V30 31 1 11 30
M  V30 32 1 12 31
M  V30 33 1 13 32
M  V30 34 1 16 33
M  V30 35 1 18 34
M  V30 END BOND
M  V30 END CTAB
M  END
>  <Dataset>  (718) 
ChEMBL_Kinases

>  <Ligand_Instance>  (718) 
nan

>  <PDB_ID>  (718) 
nan

>  <Standardized_SMILES>  (718) 
COc1cc(NC(=O)[C@@H](C)N)ccc1-c1cnco1

>  <Name>  (718) 
nan

>  <Pocket>  (718) 
nan

>  <ATP_Site>  (718) 
nan

>  <Peripheral>  (718) 
nan

>  <Num_H_Atoms_ProtBoundConf>  (718) 
nan

>  <Num_Resolved_Atoms>  (718) 
nan

>  <Num_Not_Resolved_Atoms>  (718) 
nan

$$$$
CHEMBL4857389
     RDKit          3D

  0  0  0  0  0  0  0  0  0  0999 V3000
M  V30 BEGIN CTAB
M  V30 COUNTS 85 90 0 0 0
M  V30 BEGIN ATOM
M  V30 1 C -4.567576 -4.283298 -1.075672 0
M  V30 2 C -3.779596 -3.027376 -1.136994 0 CFG=2
M  V30 3 C -4.115505 -2.135461 -2.279925 0
M  V30 4 O -5.266455 -1.819796 -2.714869 0
M  V30 5 N -3.112161 -1.515241 -3.034088 0
M  V30 6 C -3.140320 -0.607114 -4.189651 0 CFG=2
M  V30 7 C -2.374283 -1.142155 -5.345363 0
M  V30 8 O -2.439380 -0.266784 -6.412697 0
M  V30 9 C -2.545757 0.662175 -3.663896 0
M  V30 10 C -1.541446 1.439877 -4.184061 0
M  V30 11 C -1.143816 2.582849 -3.528177 0
M  V30 12 F -0.150147 3.308360 -4.085645 0
M  V30 13 C -1.681945 3.021015 -2.365776 0
M  V30 14 C -2.700310 2.245396 -1.824916 0
M  V30 15 N -3.303711 2.624462 -0.598517 0
M  V30 16 C -2.763769 3.602851 0.312783 0
M  V30 17 C -2.889677 3.192106 1.764927 0
M  V30 18 N -4.253819 2.853665 2.093778 0
M  V30 19 C -4.338959 1.509908 2.661003 0
M  V30 20 C -5.117658 2.938466 0.927827 0
M  V30 21 C -4.561334 2.032178 -0.180384 0
M  V30 22 C -3.135373 1.075103 -2.461211 0
M  V30 23 N -2.377251 -3.331437 -1.019212 0
M  V30 24 C -1.531185 -4.160870 -1.858015 0
M  V30 25 C -0.210451 -4.036574 -1.170783 0
M  V30 26 C 0.967729 -4.638853 -1.585706 0
M  V30 27 C 2.136926 -4.459120 -0.867751 0
M  V30 28 C 2.153904 -3.683185 0.266121 0
M  V30 29 C 3.404697 -3.488484 1.027820 0
M  V30 30 N 3.579948 -2.191982 1.351751 0
M  V30 31 C 4.670849 -1.774900 2.056319 0
M  V30 32 N 4.828480 -0.396476 2.381165 0
M  V30 33 C 5.920438 0.188256 3.100341 0
M  V30 34 C 5.788747 1.685984 3.282402 0
M  V30 35 C 7.084806 2.204588 3.863193 0
M  V30 36 O 7.200181 1.657167 5.153438 0
M  V30 37 C 7.358523 0.272443 5.060230 0
M  V30 38 C 6.118885 -0.403130 4.470963 0
M  V30 39 N 5.572642 -2.680216 2.424562 0
M  V30 40 C 5.436757 -3.982500 2.122691 0
M  V30 41 C 4.331203 -4.409780 1.407748 0
M  V30 42 Cl 3.977375 -6.051809 0.922402 0
M  V30 43 C 0.975782 -3.098407 0.656919 0
M  V30 44 C -0.204381 -3.258077 -0.035987 0
M  V30 45 C -1.593829 -2.802730 0.069240 0
M  V30 46 O -1.917725 -2.045626 1.043846 0
M  V30 47 H -5.041279 -4.430145 -2.081001 0
M  V30 48 H -5.404225 -4.165613 -0.360332 0
M  V30 49 H -3.939842 -5.159099 -0.806437 0
M  V30 50 H -4.064322 -2.391875 -0.239572 0
M  V30 51 H -2.084913 -1.634017 -2.835552 0
M  V30 52 H -4.156665 -0.374221 -4.526975 0
M  V30 53 H -2.814001 -2.105856 -5.683474 0
M  V30 54 H -1.306954 -1.266540 -5.055245 0
M  V30 55 H -3.367524 -0.140138 -6.732477 0
M  V30 56 H -1.124116 1.078657 -5.106401 0
M  V30 57 H -1.315286 3.931765 -1.915132 0
M  V30 58 H -3.198696 4.608940 0.151825 0
M  V30 59 H -1.682072 3.688627 0.053457 0
M  V30 60 H -2.555574 4.071124 2.363793 0
M  V30 61 H -2.226146 2.349293 2.007350 0
M  V30 62 H -5.330848 1.094254 2.370685 0
M  V30 63 H -4.195515 1.578960 3.739491 0
M  V30 64 H -3.544329 0.871673 2.232223 0
M  V30 65 H -6.099407 2.544587 1.206752 0
M  V30 66 H -5.106116 3.971599 0.558283 0
M  V30 67 H -5.277165 2.086089 -1.018041 0
M  V30 68 H -4.478846 1.031382 0.239986 0
M  V30 69 H -3.942376 0.529052 -1.966509 0
M  V30 70 H -1.934870 -5.209802 -1.691534 0
M  V30 71 H -1.497542 -3.905431 -2.906815 0
M  V30 72 H 1.047373 -5.271199 -2.474367 0
M  V30 73 H 3.059407 -4.931062 -1.191526 0
M  V30 74 H 4.081643 0.281946 2.071263 0
M  V30 75 H 6.832351 0.044879 2.481493 0
M  V30 76 H 5.512677 2.198251 2.352041 0
M  V30 77 H 4.977071 1.881480 4.014343 0
M  V30 78 H 7.082131 3.315178 3.960778 0
M  V30 79 H 7.973617 1.889658 3.289954 0
M  V30 80 H 7.492165 -0.138196 6.077646 0
M  V30 81 H 8.222776 0.112958 4.389100 0
M  V30 82 H 5.258664 -0.176586 5.120652 0
M  V30 83 H 6.378834 -1.486876 4.434640 0
M  V30 84 H 6.134430 -4.752341 2.394696 0
M  V30 85 H 0.941836 -2.480177 1.541509 0
M  V30 END ATOM
M  V30 BEGIN BOND
M  V30 1 1 1 2
M  V30 2 1 2 3
M  V30 3 2 3 4
M  V30 4 1 3 5
M  V30 5 1 5 6
M  V30 6 1 6 7
M  V30 7 1 7 8
M  V30 8 1 6 9
M  V30 9 2 9 10
M  V30 10 1 10 11
M  V30 11 1 11 12
M  V30 12 2 11 13
M  V30 13 1 13 14
M  V30 14 1 14 15
M  V30 15 1 15 16
M  V30 16 1 16 17
M  V30 17 1 17 18
M  V30 18 1 18 19
M  V30 19 1 18 20
M  V30 20 1 20 21
M  V30 21 2 14 22
M  V30 22 1 2 23
M  V30 23 1 23 24
M  V30 24 1 24 25
M  V30 25 2 25 26
M  V30 26 1 26 27
M  V30 27 2 27 28
M  V30 28 1 28 29
M  V30 29 2 29 30
M  V30 30 1 30 31
M  V30 31 1 31 32
M  V30 32 1 32 33
M  V30 33 1 33 34
M  V30 34 1 34 35
M  V30 35 1 35 36
M  V30 36 1 36 37
M  V30 37 1 37 38
M  V30 38 2 31 39
M  V30 39 1 39 40
M  V30 40 2 40 41
M  V30 41 1 41 42
M  V30 42 1 28 43
M  V30 43 2 43 44
M  V30 44 1 44 45
M  V30 45 2 45 46
M  V30 46 1 22 9
M  V30 47 1 45 23
M  V30 48 1 21 15
M  V30 49 1 44 25
M  V30 50 1 41 29
M  V30 51 1 38 33
M  V30 52 1 1 47
M  V30 53 1 1 48
M  V30 54 1 1 49
M  V30 55 1 2 50 CFG=1
M  V30 56 1 5 51
M  V30 57 1 6 52 CFG=3
M  V30 58 1 7 53
M  V30 59 1 7 54
M  V30 60 1 8 55
M  V30 61 1 10 56
M  V30 62 1 13 57
M  V30 63 1 16 58
M  V30 64 1 16 59
M  V30 65 1 17 60
M  V30 66 1 17 61
M  V30 67 1 19 62
M  V30 68 1 19 63
M  V30 69 1 19 64
M  V30 70 1 20 65
M  V30 71 1 20 66
M  V30 72 1 21 67
M  V30 73 1 21 68
M  V30 74 1 22 69
M  V30 75 1 24 70
M  V30 76 1 24 71
M  V30 77 1 26 72
M  V30 78 1 27 73
M  V30 79 1 32 74
M  V30 80 1 33 75
M  V30 81 1 34 76
M  V30 82 1 34 77
M  V30 83 1 35 78
M  V30 84 1 35 79
M  V30 85 1 37 80
M  V30 86 1 37 81
M  V30 87 1 38 82
M  V30 88 1 38 83
M  V30 89 1 40 84
M  V30 90 1 43 85
M  V30 END BOND
M  V30 END CTAB
M  END
>  <Dataset>  (719) 
ChEMBL_Kinases

>  <Ligand_Instance>  (719) 
nan

>  <PDB_ID>  (719) 
nan

>  <Standardized_SMILES>  (719) 
C[C@H](C(=O)N[C@H](CO)c1cc(F)cc(N2CCN(C)CC2)c1)N1Cc2ccc(-c3nc(NC4CCOCC4)ncc3Cl)cc2C1=O

>  <Name>  (719) 
nan

>  <Pocket>  (719) 
nan

>  <ATP_Site>  (719) 
nan

>  <Peripheral>  (719) 
nan

>  <Num_H_Atoms_ProtBoundConf>  (719) 
nan

>  <Num_Resolved_Atoms>  (719) 
nan

>  <Num_Not_Resolved_Atoms>  (719) 
nan

$$$$
CHEMBL4857399
     RDKit          3D

  0  0  0  0  0  0  0  0  0  0999 V3000
M  V30 BEGIN CTAB
M  V30 COUNTS 50 54 0 0 0
M  V30 BEGIN ATOM
M  V30 1 O 1.907463 -4.940673 3.615895 0
M  V30 2 C 2.535660 -4.095624 2.720404 0
M  V30 3 C 3.875773 -4.235315 2.452415 0
M  V30 4 F 4.588875 -5.203949 3.065963 0
M  V30 5 C 4.504893 -3.397632 1.562887 0
M  V30 6 C 3.849756 -2.386492 0.896704 0
M  V30 7 N 4.540030 -1.545471 -0.013277 0
M  V30 8 C 4.042810 -0.462475 -0.785601 0
M  V30 9 N 4.851488 0.222873 -1.598140 0
M  V30 10 C 4.456681 1.241446 -2.345511 0
M  V30 11 C 3.145731 1.657398 -2.319309 0
M  V30 12 C 2.403304 2.642058 -2.937803 0
M  V30 13 C 1.101023 2.535849 -2.472627 0
M  V30 14 N 1.032323 1.513400 -1.588378 0
M  V30 15 C -0.065917 1.004063 -0.841190 0
M  V30 16 C 0.022760 0.827180 0.524421 0
M  V30 17 C -1.046325 0.332726 1.242835 0
M  V30 18 C -2.244689 -0.009771 0.662991 0
M  V30 19 N -3.322929 -0.511793 1.405879 0
M  V30 20 C -3.307756 -0.741945 2.834531 0
M  V30 21 C -4.342429 0.119809 3.482628 0
M  V30 22 O -5.469784 0.358139 2.804015 0
M  V30 23 C -5.640109 -0.006980 1.538485 0
M  V30 24 C -4.619022 -0.878675 0.875169 0
M  V30 25 C -2.295403 0.179978 -0.697342 0
M  V30 26 C -1.254454 0.670592 -1.456790 0
M  V30 27 C 2.288216 0.987726 -1.505946 0
M  V30 28 N 2.777855 -0.029709 -0.786874 0
M  V30 29 C 2.514338 -2.292947 1.202357 0
M  V30 30 C 1.833093 -3.103757 2.084183 0
M  V30 31 F 0.517847 -2.962646 2.343803 0
M  V30 32 H 1.195447 -5.594463 3.291334 0
M  V30 33 H 5.562872 -3.553275 1.389672 0
M  V30 34 H 5.563795 -1.756567 -0.129855 0
M  V30 35 H 5.160778 1.762728 -2.989191 0
M  V30 36 H 2.797986 3.362727 -3.660871 0
M  V30 37 H 0.266647 3.141830 -2.744455 0
M  V30 38 H 0.968890 1.099150 0.971913 0
M  V30 39 H -0.851710 0.244872 2.278745 0
M  V30 40 H -2.341166 -0.615452 3.318632 0
M  V30 41 H -3.630945 -1.810556 3.015605 0
M  V30 42 H -4.606354 -0.352859 4.453458 0
M  V30 43 H -3.841043 1.074581 3.746141 0
M  V30 44 H -6.619927 -0.535143 1.433735 0
M  V30 45 H -5.759965 0.897536 0.886251 0
M  V30 46 H -4.705496 -0.788507 -0.211742 0
M  V30 47 H -4.860890 -1.931810 1.210907 0
M  V30 48 H -3.171108 -0.046113 -1.278635 0
M  V30 49 H -1.308580 0.814128 -2.522909 0
M  V30 50 H 1.901189 -1.541626 0.743753 0
M  V30 END ATOM
M  V30 BEGIN BOND
M  V30 1 1 1 2
M  V30 2 2 2 3
M  V30 3 1 3 4
M  V30 4 1 3 5
M  V30 5 2 5 6
M  V30 6 1 6 7
M  V30 7 1 7 8
M  V30 8 2 8 9
M  V30 9 1 9 10
M  V30 10 2 10 11
M  V30 11 1 11 12
M  V30 12 2 12 13
M  V30 13 1 13 14
M  V30 14 1 14 15
M  V30 15 2 15 16
M  V30 16 1 16 17
M  V30 17 2 17 18
M  V30 18 1 18 19
M  V30 19 1 19 20
M  V30 20 1 20 21
M  V30 21 1 21 22
M  V30 22 1 22 23
M  V30 23 1 23 24
M  V30 24 1 18 25
M  V30 25 2 25 26
M  V30 26 1 14 27
M  V30 27 2 27 28
M  V30 28 1 6 29
M  V30 29 2 29 30
M  V30 30 1 30 31
M  V30 31 1 30 2
M  V30 32 1 28 8
M  V30 33 1 27 11
M  V30 34 1 26 15
M  V30 35 1 24 19
M  V30 36 1 1 32
M  V30 37 1 5 33
M  V30 38 1 7 34
M  V30 39 1 10 35
M  V30 40 1 12 36
M  V30 41 1 13 37
M  V30 42 1 16 38
M  V30 43 1 17 39
M  V30 44 1 20 40
M  V30 45 1 20 41
M  V30 46 1 21 42
M  V30 47 1 21 43
M  V30 48 1 23 44
M  V30 49 1 23 45
M  V30 50 1 24 46
M  V30 51 1 24 47
M  V30 52 1 25 48
M  V30 53 1 26 49
M  V30 54 1 29 50
M  V30 END BOND
M  V30 END CTAB
M  END
>  <Dataset>  (720) 
ChEMBL_Kinases

>  <Ligand_Instance>  (720) 
nan

>  <PDB_ID>  (720) 
nan

>  <Standardized_SMILES>  (720) 
Oc1c(F)cc(Nc2ncc3ccn(-c4ccc(N5CCOCC5)cc4)c3n2)cc1F

>  <Name>  (720) 
nan

>  <Pocket>  (720) 
nan

>  <ATP_Site>  (720) 
nan

>  <Peripheral>  (720) 
nan

>  <Num_H_Atoms_ProtBoundConf>  (720) 
nan

>  <Num_Resolved_Atoms>  (720) 
nan

>  <Num_Not_Resolved_Atoms>  (720) 
nan

$$$$
CHEMBL4073422
     RDKit          3D

  0  0  0  0  0  0  0  0  0  0999 V3000
M  V30 BEGIN CTAB
M  V30 COUNTS 35 38 0 0 0
M  V30 BEGIN ATOM
M  V30 1 F -1.281037 -2.090782 0.477748 0
M  V30 2 C -0.514328 -3.062165 1.014682 0
M  V30 3 C -1.051258 -4.327897 0.998439 0
M  V30 4 C -0.324718 -5.368564 1.529463 0
M  V30 5 C 0.914930 -5.076317 2.053208 0
M  V30 6 Cl 1.840947 -6.397775 2.729128 0
M  V30 7 C 1.410707 -3.792082 2.046850 0
M  V30 8 C 0.713768 -2.723802 1.524517 0
M  V30 9 C 1.334079 -1.415414 1.571791 0
M  V30 10 C 0.828643 -0.225794 1.116281 0
M  V30 11 C 1.482741 0.980150 1.198265 0
M  V30 12 N 0.885781 2.167686 0.698644 0
M  V30 13 C -0.361630 2.290244 0.049030 0
M  V30 14 C -1.299026 3.103678 0.651833 0
M  V30 15 C -2.556088 3.331692 0.151802 0
M  V30 16 N -2.889512 2.722372 -0.996573 0
M  V30 17 C -2.031456 1.916278 -1.641725 0
M  V30 18 C -2.030134 1.157987 -2.792344 0
M  V30 19 N -0.845814 0.536316 -2.939205 0
M  V30 20 N -0.044628 0.858189 -1.911080 0
M  V30 21 C -0.772420 1.692160 -1.134449 0
M  V30 22 C 2.731067 1.045253 1.768222 0
M  V30 23 C 3.218878 -0.162021 2.218797 0
M  V30 24 N 2.550140 -1.322699 2.121566 0
M  V30 25 H -2.028544 -4.518383 0.578167 0
M  V30 26 H -0.755279 -6.356065 1.511364 0
M  V30 27 H 2.399671 -3.678097 2.486700 0
M  V30 28 H -0.140443 -0.217841 0.664376 0
M  V30 29 H 1.372423 3.083191 0.791158 0
M  V30 30 H -1.064324 3.617508 1.588929 0
M  V30 31 H -3.297814 3.967038 0.616224 0
M  V30 32 H -2.885740 1.082910 -3.482286 0
M  V30 33 H 0.920853 0.531551 -1.757236 0
M  V30 34 H 3.255540 1.969612 1.841875 0
M  V30 35 H 4.208189 -0.189574 2.685129 0
M  V30 END ATOM
M  V30 BEGIN BOND
M  V30 1 1 1 2
M  V30 2 2 2 3
M  V30 3 1 3 4
M  V30 4 2 4 5
M  V30 5 1 5 6
M  V30 6 1 5 7
M  V30 7 2 7 8
M  V30 8 1 8 9
M  V30 9 2 9 10
M  V30 10 1 10 11
M  V30 11 1 11 12
M  V30 12 1 12 13
M  V30 13 2 13 14
M  V30 14 1 14 15
M  V30 15 2 15 16
M  V30 16 1 16 17
M  V30 17 1 17 18
M  V30 18 2 18 19
M  V30 19 1 19 20
M  V30 20 1 20 21
M  V30 21 2 11 22
M  V30 22 1 22 23
M  V30 23 2 23 24
M  V30 24 1 8 2
M  V30 25 1 24 9
M  V30 26 1 21 13
M  V30 27 2 21 17
M  V30 28 1 3 25
M  V30 29 1 4 26
M  V30 30 1 7 27
M  V30 31 1 10 28
M  V30 32 1 12 29
M  V30 33 1 14 30
M  V30 34 1 15 31
M  V30 35 1 18 32
M  V30 36 1 20 33
M  V30 37 1 22 34
M  V30 38 1 23 35
M  V30 END BOND
M  V30 END CTAB
M  END
>  <Dataset>  (721) 
ChEMBL_Kinases

>  <Ligand_Instance>  (721) 
nan

>  <PDB_ID>  (721) 
nan

>  <Standardized_SMILES>  (721) 
Fc1ccc(Cl)cc1-c1cc(Nc2ccnc3cn[nH]c23)ccn1

>  <Name>  (721) 
nan

>  <Pocket>  (721) 
nan

>  <ATP_Site>  (721) 
nan

>  <Peripheral>  (721) 
nan

>  <Num_H_Atoms_ProtBoundConf>  (721) 
nan

>  <Num_Resolved_Atoms>  (721) 
nan

>  <Num_Not_Resolved_Atoms>  (721) 
nan

$$$$
CHEMBL4857422
     RDKit          3D

  0  0  0  0  0  0  0  0  0  0999 V3000
M  V30 BEGIN CTAB
M  V30 COUNTS 42 44 0 0 0
M  V30 BEGIN ATOM
M  V30 1 N 2.062257 -7.039648 2.846656 0
M  V30 2 C 2.099122 -6.176683 2.089200 0
M  V30 3 C 2.125327 -5.095795 1.160604 0
M  V30 4 C 3.087497 -5.070896 0.188232 0
M  V30 5 N 3.184537 -4.101201 -0.717305 0
M  V30 6 C 2.340639 -3.057304 -0.754577 0
M  V30 7 N 2.332678 -1.984454 -1.656185 0
M  V30 8 C 1.538200 -0.819397 -1.805817 0
M  V30 9 N 1.806460 -0.034045 -2.869425 0
M  V30 10 C 1.088789 1.080238 -3.052027 0
M  V30 11 C 0.095929 1.406244 -2.159435 0
M  V30 12 C -0.663799 2.656696 -2.420274 0
M  V30 13 F -0.220185 3.305558 -3.564910 0
M  V30 14 F -0.564775 3.568983 -1.375633 0
M  V30 15 F -2.009529 2.415647 -2.606137 0
M  V30 16 C -0.201003 0.622064 -1.061388 0
M  V30 17 N -1.236994 0.971322 -0.148365 0
M  V30 18 C -1.656930 0.287079 1.018281 0
M  V30 19 C -0.668848 0.165290 2.135355 0 CFG=1
M  V30 20 C -0.043724 1.449126 2.554521 0
M  V30 21 N 0.294442 1.592127 3.928320 0
M  V30 22 C -0.513723 0.827255 4.833465 0
M  V30 23 C -0.504770 -0.601068 4.275612 0
M  V30 24 O -1.315695 -0.535469 3.150740 0
M  V30 25 N 0.565376 -0.471663 -0.957265 0
M  V30 26 C 1.364033 -3.067752 0.219718 0
M  V30 27 N 1.277452 -4.055121 1.129897 0
M  V30 28 H 3.846527 -5.837915 0.077516 0
M  V30 29 H 3.121220 -2.141530 -2.354727 0
M  V30 30 H 1.293420 1.724009 -3.904944 0
M  V30 31 H -1.753111 1.873692 -0.392384 0
M  V30 32 H -1.907300 -0.766169 0.702855 0
M  V30 33 H -2.583447 0.710339 1.405463 0
M  V30 34 H 0.148845 -0.503460 1.801588 0
M  V30 35 H 0.868810 1.638673 1.915485 0
M  V30 36 H -0.717746 2.304546 2.294251 0
M  V30 37 H 1.313628 1.297388 4.018722 0
M  V30 38 H -1.551109 1.215840 4.758498 0
M  V30 39 H -0.102016 0.893933 5.845049 0
M  V30 40 H 0.548160 -0.813148 4.025683 0
M  V30 41 H -0.900095 -1.257535 5.051188 0
M  V30 42 H 0.576344 -2.368340 0.405612 0
M  V30 END ATOM
M  V30 BEGIN BOND
M  V30 1 3 1 2
M  V30 2 1 2 3
M  V30 3 2 3 4
M  V30 4 1 4 5
M  V30 5 2 5 6
M  V30 6 1 6 7
M  V30 7 1 7 8
M  V30 8 2 8 9
M  V30 9 1 9 10
M  V30 10 2 10 11
M  V30 11 1 11 12
M  V30 12 1 12 13
M  V30 13 1 12 14
M  V30 14 1 12 15
M  V30 15 1 11 16
M  V30 16 1 16 17
M  V30 17 1 17 18
M  V30 18 1 18 19
M  V30 19 1 19 20
M  V30 20 1 20 21
M  V30 21 1 21 22
M  V30 22 1 22 23
M  V30 23 1 23 24
M  V30 24 2 16 25
M  V30 25 1 6 26
M  V30 26 2 26 27
M  V30 27 1 27 3
M  V30 28 1 25 8
M  V30 29 1 24 19
M  V30 30 1 4 28
M  V30 31 1 7 29
M  V30 32 1 10 30
M  V30 33 1 17 31
M  V30 34 1 18 32
M  V30 35 1 18 33
M  V30 36 1 19 34 CFG=3
M  V30 37 1 20 35
M  V30 38 1 20 36
M  V30 39 1 21 37
M  V30 40 1 22 38
M  V30 41 1 22 39
M  V30 42 1 23 40
M  V30 43 1 23 41
M  V30 44 1 26 42
M  V30 END BOND
M  V30 END CTAB
M  END
>  <Dataset>  (722) 
ChEMBL_Kinases

>  <Ligand_Instance>  (722) 
nan

>  <PDB_ID>  (722) 
nan

>  <Standardized_SMILES>  (722) 
N#Cc1cnc(Nc2ncc(C(F)(F)F)c(NC[C@H]3CNCCO3)n2)cn1

>  <Name>  (722) 
nan

>  <Pocket>  (722) 
nan

>  <ATP_Site>  (722) 
nan

>  <Peripheral>  (722) 
nan

>  <Num_H_Atoms_ProtBoundConf>  (722) 
nan

>  <Num_Resolved_Atoms>  (722) 
nan

>  <Num_Not_Resolved_Atoms>  (722) 
nan

$$$$
CHEMBL4073348
     RDKit          3D

  0  0  0  0  0  0  0  0  0  0999 V3000
M  V30 BEGIN CTAB
M  V30 COUNTS 59 64 0 0 0
M  V30 BEGIN ATOM
M  V30 1 C 6.137473 2.208089 1.145354 0
M  V30 2 C 6.195017 0.831307 0.535243 0
M  V30 3 O 5.187655 0.721631 -0.406283 0
M  V30 4 C 5.171375 -0.510427 -1.025555 0
M  V30 5 C 5.376905 -0.417668 -2.537952 0
M  V30 6 C 4.893395 -1.817918 -2.933191 0
M  V30 7 C 4.244363 -2.356176 -1.648826 0
M  V30 8 N 3.850645 -1.096006 -0.987810 0
M  V30 9 C 2.528851 -0.794143 -0.555933 0
M  V30 10 C 1.805548 -0.171253 -1.579502 0
M  V30 11 C 0.512365 0.217096 -1.442826 0
M  V30 12 C -0.156808 -0.003484 -0.234748 0
M  V30 13 N -1.533072 0.354254 -0.029459 0
M  V30 14 C -2.662650 -0.457546 0.344372 0
M  V30 15 N -3.058432 -0.331277 1.620081 0
M  V30 16 C -4.122143 -1.078872 2.031139 0
M  V30 17 C -4.575735 -0.986511 3.338142 0
M  V30 18 C -3.895731 -0.089692 4.258833 0
M  V30 19 N -2.798757 0.687014 3.959659 0
M  V30 20 N -2.450600 1.364318 5.015594 0
M  V30 21 C -3.243624 1.103731 6.039484 0
M  V30 22 N -4.152798 0.192625 5.572757 0
M  V30 23 C -5.645619 -1.721948 3.789098 0
M  V30 24 C -6.284313 -2.578169 2.907847 0
M  V30 25 C -5.868900 -2.702136 1.602016 0
M  V30 26 C -4.808602 -1.949042 1.223438 0
M  V30 27 C -4.385021 -2.060972 -0.077623 0
M  V30 28 C -4.965588 -2.884876 -0.986778 0
M  V30 29 N -4.527837 -2.977561 -2.252014 0
M  V30 30 C -3.490433 -2.268584 -2.709959 0
M  V30 31 C -2.877770 -1.423648 -1.816161 0
M  V30 32 C -3.302301 -1.305300 -0.511119 0
M  V30 33 C 0.558168 -0.610066 0.755802 0
M  V30 34 F 0.007152 -0.876408 1.986736 0
M  V30 35 C 1.868915 -1.011146 0.640142 0
M  V30 36 H 7.158373 2.646704 1.134366 0
M  V30 37 H 5.754791 2.127771 2.196057 0
M  V30 38 H 5.426257 2.830525 0.574588 0
M  V30 39 H 6.094451 0.077819 1.350216 0
M  V30 40 H 7.201476 0.649361 0.103230 0
M  V30 41 H 5.955022 -1.191794 -0.667566 0
M  V30 42 H 6.422613 -0.324236 -2.822277 0
M  V30 43 H 4.692493 0.352430 -2.935481 0
M  V30 44 H 5.770316 -2.457853 -3.144313 0
M  V30 45 H 4.191386 -1.794945 -3.778561 0
M  V30 46 H 3.394856 -2.999767 -1.873988 0
M  V30 47 H 4.948061 -2.930553 -1.037096 0
M  V30 48 H 2.207071 0.061794 -2.579769 0
M  V30 49 H -0.061334 0.707243 -2.237780 0
M  V30 50 H -1.609652 1.362452 -0.202781 0
M  V30 51 H -3.385428 1.374300 7.083932 0
M  V30 52 H -4.958287 -0.298411 6.003584 0
M  V30 53 H -6.016193 -1.658863 4.821216 0
M  V30 54 H -7.131995 -3.148063 3.308801 0
M  V30 55 H -6.439063 -3.392600 1.018218 0
M  V30 56 H -5.795350 -3.512435 -0.792153 0
M  V30 57 H -3.153930 -2.358896 -3.731590 0
M  V30 58 H -2.044532 -0.842208 -2.165717 0
M  V30 59 H 2.516375 -1.493948 1.354412 0
M  V30 END ATOM
M  V30 BEGIN BOND
M  V30 1 1 1 2
M  V30 2 1 2 3
M  V30 3 1 3 4
M  V30 4 1 4 5
M  V30 5 1 5 6
M  V30 6 1 6 7
M  V30 7 1 7 8
M  V30 8 1 8 9
M  V30 9 2 9 10
M  V30 10 1 10 11
M  V30 11 2 11 12
M  V30 12 1 12 13
M  V30 13 1 13 14
M  V30 14 2 14 15
M  V30 15 1 15 16
M  V30 16 2 16 17
M  V30 17 1 17 18
M  V30 18 2 18 19
M  V30 19 1 19 20
M  V30 20 2 20 21
M  V30 21 1 21 22
M  V30 22 1 17 23
M  V30 23 2 23 24
M  V30 24 1 24 25
M  V30 25 2 25 26
M  V30 26 1 26 27
M  V30 27 2 27 28
M  V30 28 1 28 29
M  V30 29 2 29 30
M  V30 30 1 30 31
M  V30 31 2 31 32
M  V30 32 1 12 33
M  V30 33 1 33 34
M  V30 34 2 33 35
M  V30 35 1 8 4
M  V30 36 1 35 9
M  V30 37 1 32 14
M  V30 38 1 26 16
M  V30 39 1 32 27
M  V30 40 1 22 18
M  V30 41 1 1 36
M  V30 42 1 1 37
M  V30 43 1 1 38
M  V30 44 1 2 39
M  V30 45 1 2 40
M  V30 46 1 4 41
M  V30 47 1 5 42
M  V30 48 1 5 43
M  V30 49 1 6 44
M  V30 50 1 6 45
M  V30 51 1 7 46
M  V30 52 1 7 47
M  V30 53 1 10 48
M  V30 54 1 11 49
M  V30 55 1 13 50
M  V30 56 1 21 51
M  V30 57 1 22 52
M  V30 58 1 23 53
M  V30 59 1 24 54
M  V30 60 1 25 55
M  V30 61 1 28 56
M  V30 62 1 30 57
M  V30 63 1 31 58
M  V30 64 1 35 59
M  V30 END BOND
M  V30 END CTAB
M  END
>  <Dataset>  (723) 
ChEMBL_Kinases

>  <Ligand_Instance>  (723) 
nan

>  <PDB_ID>  (723) 
nan

>  <Standardized_SMILES>  (723) 
CCOC1CCCN1c1ccc(Nc2nc3c(-c4nnc[nH]4)cccc3c3cnccc23)c(F)c1

>  <Name>  (723) 
nan

>  <Pocket>  (723) 
nan

>  <ATP_Site>  (723) 
nan

>  <Peripheral>  (723) 
nan

>  <Num_H_Atoms_ProtBoundConf>  (723) 
nan

>  <Num_Resolved_Atoms>  (723) 
nan

>  <Num_Not_Resolved_Atoms>  (723) 
nan

$$$$
CHEMBL4857437
     RDKit          3D

  0  0  0  0  0  0  0  0  0  0999 V3000
M  V30 BEGIN CTAB
M  V30 COUNTS 46 48 0 0 0
M  V30 BEGIN ATOM
M  V30 1 N 1.860380 -2.100740 5.663049 0
M  V30 2 C 1.806473 -1.716264 4.573488 0
M  V30 3 C 1.752779 -1.248960 3.213295 0
M  V30 4 C 2.761744 -0.391173 2.842708 0
M  V30 5 N 2.713008 0.054004 1.556431 0
M  V30 6 C 1.727298 -0.332147 0.708741 0
M  V30 7 N 1.673094 0.149105 -0.602370 0
M  V30 8 C 1.273946 1.057252 -1.626140 0
M  V30 9 C 1.693070 2.462471 -1.420062 0
M  V30 10 C 2.878410 2.889720 -2.035568 0
M  V30 11 C 3.468035 4.133462 -1.959441 0
M  V30 12 C 2.806563 5.062581 -1.183607 0
M  V30 13 C 1.635661 4.696244 -0.555452 0
M  V30 14 C 1.063422 3.420525 -0.655416 0
M  V30 15 C -0.199359 3.107250 0.011882 0
M  V30 16 F -0.159799 2.094118 0.932808 0
M  V30 17 F -0.583066 4.243384 0.732876 0
M  V30 18 F -1.238921 2.919908 -0.900366 0
M  V30 19 C 0.731890 -1.208442 1.153369 0
M  V30 20 C 0.702656 -1.715787 2.456595 0
M  V30 21 N -0.275149 -2.589583 2.937231 0
M  V30 22 C -1.387117 -3.119604 2.222057 0 CFG=1
M  V30 23 C -1.096800 -3.964576 1.001661 0
M  V30 24 C -2.272594 -4.840037 1.433982 0 CFG=2
M  V30 25 C -3.506992 -4.267948 0.840463 0
M  V30 26 N -4.915031 -4.383018 0.706776 0
M  V30 27 O -3.292944 -3.224262 0.133626 0
M  V30 28 C -1.981136 -4.388980 2.847790 0
M  V30 29 H 3.537006 -0.087831 3.510845 0
M  V30 30 H 2.284560 -0.663853 -0.938215 0
M  V30 31 H 0.177189 0.991618 -1.852160 0
M  V30 32 H 1.746343 0.720205 -2.593463 0
M  V30 33 H 3.413829 2.158036 -2.656244 0
M  V30 34 H 4.389464 4.335060 -2.486295 0
M  V30 35 H 3.209984 6.060298 -1.075988 0
M  V30 36 H 1.106598 5.437452 0.066282 0
M  V30 37 H -0.039429 -1.495880 0.455943 0
M  V30 38 H -0.185603 -2.890820 3.933851 0
M  V30 39 H -2.215928 -2.390730 2.030249 0
M  V30 40 H -1.268326 -3.489491 0.016315 0
M  V30 41 H -0.150814 -4.522351 1.127123 0
M  V30 42 H -2.121480 -5.918437 1.245223 0
M  V30 43 H -5.550404 -3.739563 1.264987 0
M  V30 44 H -5.013872 -5.158587 0.014519 0
M  V30 45 H -2.865767 -4.200247 3.473357 0
M  V30 46 H -1.204573 -4.989848 3.321168 0
M  V30 END ATOM
M  V30 BEGIN BOND
M  V30 1 3 1 2
M  V30 2 1 2 3
M  V30 3 2 3 4
M  V30 4 1 4 5
M  V30 5 2 5 6
M  V30 6 1 6 7
M  V30 7 1 7 8
M  V30 8 1 8 9
M  V30 9 2 9 10
M  V30 10 1 10 11
M  V30 11 2 11 12
M  V30 12 1 12 13
M  V30 13 2 13 14
M  V30 14 1 14 15
M  V30 15 1 15 16
M  V30 16 1 15 17
M  V30 17 1 15 18
M  V30 18 1 6 19
M  V30 19 2 19 20
M  V30 20 1 20 21
M  V30 21 1 21 22
M  V30 22 1 22 23
M  V30 23 1 23 24
M  V30 24 1 24 25
M  V30 25 1 25 26
M  V30 26 2 25 27
M  V30 27 1 24 28
M  V30 28 1 20 3
M  V30 29 1 28 22
M  V30 30 1 14 9
M  V30 31 1 4 29
M  V30 32 1 7 30
M  V30 33 1 8 31
M  V30 34 1 8 32
M  V30 35 1 10 33
M  V30 36 1 11 34
M  V30 37 1 12 35
M  V30 38 1 13 36
M  V30 39 1 19 37
M  V30 40 1 21 38
M  V30 41 1 22 39 CFG=3
M  V30 42 1 23 40
M  V30 43 1 23 41
M  V30 44 1 24 42 CFG=1
M  V30 45 1 26 43
M  V30 46 1 26 44
M  V30 47 1 28 45
M  V30 48 1 28 46
M  V30 END BOND
M  V30 END CTAB
M  END
>  <Dataset>  (724) 
ChEMBL_Kinases

>  <Ligand_Instance>  (724) 
nan

>  <PDB_ID>  (724) 
nan

>  <Standardized_SMILES>  (724) 
N#Cc1cnc(NCc2ccccc2C(F)(F)F)cc1N[C@H]1C[C@H](C(N)=O)C1

>  <Name>  (724) 
nan

>  <Pocket>  (724) 
nan

>  <ATP_Site>  (724) 
nan

>  <Peripheral>  (724) 
nan

>  <Num_H_Atoms_ProtBoundConf>  (724) 
nan

>  <Num_Resolved_Atoms>  (724) 
nan

>  <Num_Not_Resolved_Atoms>  (724) 
nan

$$$$
CHEMBL4857792
     RDKit          3D

  0  0  0  0  0  0  0  0  0  0999 V3000
M  V30 BEGIN CTAB
M  V30 COUNTS 53 58 0 0 0
M  V30 BEGIN ATOM
M  V30 1 C 5.923687 2.174130 2.320282 0
M  V30 2 O 4.576467 2.367702 1.931771 0
M  V30 3 C 3.837829 1.430785 1.214977 0
M  V30 4 N 4.445500 0.285445 0.879049 0
M  V30 5 C 3.764050 -0.649789 0.183848 0
M  V30 6 C 2.452109 -0.344384 -0.138259 0
M  V30 7 C 1.827926 0.833548 0.206795 0
M  V30 8 C 2.531819 1.756846 0.904949 0
M  V30 9 N 1.950239 2.990671 1.300826 0
M  V30 10 S 0.227302 3.201682 1.102724 0
M  V30 11 O -0.068909 4.618539 1.546709 0
M  V30 12 O -0.078109 3.113147 -0.341673 0
M  V30 13 C -0.654828 2.035042 2.052063 0
M  V30 14 C -0.445630 1.890287 3.407077 0
M  V30 15 C -1.122077 0.960182 4.206745 0
M  V30 16 C -2.066232 0.130544 3.587634 0
M  V30 17 C -2.268722 0.283487 2.231436 0
M  V30 18 C -1.591671 1.206036 1.462680 0
M  V30 19 C -3.253475 -0.619867 1.702199 0
M  V30 20 O -3.086733 -1.836435 1.948981 0
M  V30 21 N -4.436006 -0.874365 0.977064 0
M  V30 22 C -5.005795 -2.210053 0.785908 0
M  V30 23 C -4.080061 -3.129445 0.083273 0
M  V30 24 C -4.165891 -4.520520 0.050626 0
M  V30 25 C -3.082975 -4.933002 -0.729188 0
M  V30 26 C -2.415149 -3.757880 -1.115469 0
M  V30 27 O -3.029363 -2.743470 -0.621131 0
M  V30 28 C -1.236601 -3.896545 -1.944909 0
M  V30 29 N -1.079419 -4.739649 -2.961440 0
M  V30 30 C 0.084476 -4.746132 -3.633221 0
M  V30 31 N 1.145749 -3.961838 -3.377034 0
M  V30 32 C 1.091666 -3.067308 -2.362778 0
M  V30 33 C 2.034205 -2.180743 -1.924728 0
M  V30 34 C 1.747731 -1.383215 -0.883640 0
M  V30 35 S 0.114106 -1.817754 -0.429744 0
M  V30 36 C -0.078586 -3.042783 -1.667865 0
M  V30 37 H 6.419876 3.176590 2.432268 0
M  V30 38 H 5.975842 1.612710 3.287584 0
M  V30 39 H 6.506274 1.584629 1.583953 0
M  V30 40 H 4.199507 -1.609242 -0.126305 0
M  V30 41 H 0.806138 0.966645 -0.098023 0
M  V30 42 H 2.589246 3.739209 1.703792 0
M  V30 43 H 0.301834 2.562929 3.846510 0
M  V30 44 H -0.923810 0.882650 5.270681 0
M  V30 45 H -2.614773 -0.612924 4.186299 0
M  V30 46 H -1.835835 1.233650 0.408743 0
M  V30 47 H -4.519873 0.140526 0.792886 0
M  V30 48 H -5.214967 -2.670103 1.797733 0
M  V30 49 H -5.950887 -2.141873 0.244295 0
M  V30 50 H -4.925469 -5.140988 0.537093 0
M  V30 51 H -2.949331 -6.015344 -0.893092 0
M  V30 52 H 0.192897 -5.451189 -4.470580 0
M  V30 53 H 3.020770 -2.094754 -2.392768 0
M  V30 END ATOM
M  V30 BEGIN BOND
M  V30 1 1 1 2
M  V30 2 1 2 3
M  V30 3 2 3 4
M  V30 4 1 4 5
M  V30 5 2 5 6
M  V30 6 1 6 7
M  V30 7 2 7 8
M  V30 8 1 8 9
M  V30 9 1 9 10
M  V30 10 2 10 11
M  V30 11 2 10 12
M  V30 12 1 10 13
M  V30 13 2 13 14
M  V30 14 1 14 15
M  V30 15 2 15 16
M  V30 16 1 16 17
M  V30 17 2 17 18
M  V30 18 1 17 19
M  V30 19 2 19 20
M  V30 20 1 19 21
M  V30 21 1 21 22
M  V30 22 1 22 23
M  V30 23 2 23 24
M  V30 24 1 24 25
M  V30 25 2 25 26
M  V30 26 1 26 27
M  V30 27 1 26 28
M  V30 28 1 28 29
M  V30 29 2 29 30
M  V30 30 1 30 31
M  V30 31 2 31 32
M  V30 32 1 32 33
M  V30 33 2 33 34
M  V30 34 1 34 35
M  V30 35 1 35 36
M  V30 36 1 8 3
M  V30 37 1 18 13
M  V30 38 1 27 23
M  V30 39 2 36 28
M  V30 40 1 34 6
M  V30 41 1 36 32
M  V30 42 1 1 37
M  V30 43 1 1 38
M  V30 44 1 1 39
M  V30 45 1 5 40
M  V30 46 1 7 41
M  V30 47 1 9 42
M  V30 48 1 14 43
M  V30 49 1 15 44
M  V30 50 1 16 45
M  V30 51 1 18 46
M  V30 52 1 21 47
M  V30 53 1 22 48
M  V30 54 1 22 49
M  V30 55 1 24 50
M  V30 56 1 25 51
M  V30 57 1 30 52
M  V30 58 1 33 53
M  V30 END BOND
M  V30 END CTAB
M  END
>  <Dataset>  (725) 
ChEMBL_Kinases

>  <Ligand_Instance>  (725) 
nan

>  <PDB_ID>  (725) 
nan

>  <Standardized_SMILES>  (725) 
COc1ncc2cc1NS(=O)(=O)c1cccc(c1)C(=O)NCc1ccc(o1)-c1ncnc3cc-2sc13

>  <Name>  (725) 
nan

>  <Pocket>  (725) 
nan

>  <ATP_Site>  (725) 
nan

>  <Peripheral>  (725) 
nan

>  <Num_H_Atoms_ProtBoundConf>  (725) 
nan

>  <Num_Resolved_Atoms>  (725) 
nan

>  <Num_Not_Resolved_Atoms>  (725) 
nan

$$$$
CHEMBL4857501
     RDKit          3D

  0  0  0  0  0  0  0  0  0  0999 V3000
M  V30 BEGIN CTAB
M  V30 COUNTS 45 47 0 0 0
M  V30 BEGIN ATOM
M  V30 1 N 0.720037 -6.793530 3.415510 0
M  V30 2 C 0.552321 -6.087457 2.503564 0
M  V30 3 C 0.337779 -5.202007 1.398059 0
M  V30 4 C 0.651280 -5.562473 0.115023 0
M  V30 5 C 0.456827 -4.736509 -0.955876 0
M  V30 6 C -0.077147 -3.466417 -0.804330 0
M  V30 7 N -0.318965 -2.567104 -1.875547 0
M  V30 8 C -0.658663 -1.191387 -1.838764 0
M  V30 9 N -0.965345 -0.574290 -2.982662 0
M  V30 10 C -1.290871 0.714643 -3.072567 0
M  V30 11 C -1.310094 1.447832 -1.916373 0
M  V30 12 C -1.675352 2.889251 -2.047951 0
M  V30 13 F -1.946985 3.239202 -3.364161 0
M  V30 14 F -0.679338 3.726286 -1.556434 0
M  V30 15 F -2.824881 3.155268 -1.338915 0
M  V30 16 C -1.003622 0.875369 -0.697997 0
M  V30 17 N -1.055039 1.659311 0.478374 0
M  V30 18 C -0.804243 1.467419 1.868620 0
M  V30 19 C 0.641518 1.355876 2.258426 0 CFG=1
M  V30 20 C 0.633232 1.156568 3.783526 0
M  V30 21 C 2.033704 1.290088 4.324303 0
M  V30 22 C 2.996688 0.976645 3.200152 0
M  V30 23 N 2.541510 -0.172970 2.433343 0
M  V30 24 C 1.336097 0.149418 1.677121 0
M  V30 25 N -0.695812 -0.417776 -0.743371 0
M  V30 26 C -0.366571 -3.177311 0.512195 0
M  V30 27 N -0.174800 -3.988807 1.561056 0
M  V30 28 H 1.072999 -6.542002 -0.076633 0
M  V30 29 H 0.722531 -5.067619 -1.966260 0
M  V30 30 H -0.221841 -3.028648 -2.809106 0
M  V30 31 H -1.533172 1.175022 -4.021032 0
M  V30 32 H -1.352793 2.672986 0.348903 0
M  V30 33 H -1.239740 0.437903 2.106817 0
M  V30 34 H -1.342756 2.140047 2.549139 0
M  V30 35 H 1.212112 2.289781 2.014415 0
M  V30 36 H 0.306282 0.086861 3.922975 0
M  V30 37 H -0.091888 1.857390 4.252439 0
M  V30 38 H 2.212113 2.331993 4.684512 0
M  V30 39 H 2.176063 0.610767 5.182965 0
M  V30 40 H 3.129747 1.858044 2.555644 0
M  V30 41 H 3.964423 0.684044 3.654869 0
M  V30 42 H 3.291137 -0.413910 1.762301 0
M  V30 43 H 0.658608 -0.704715 1.832023 0
M  V30 44 H 1.610044 0.296183 0.617263 0
M  V30 45 H -0.798300 -2.222272 0.774589 0
M  V30 END ATOM
M  V30 BEGIN BOND
M  V30 1 3 1 2
M  V30 2 1 2 3
M  V30 3 2 3 4
M  V30 4 1 4 5
M  V30 5 2 5 6
M  V30 6 1 6 7
M  V30 7 1 7 8
M  V30 8 2 8 9
M  V30 9 1 9 10
M  V30 10 2 10 11
M  V30 11 1 11 12
M  V30 12 1 12 13
M  V30 13 1 12 14
M  V30 14 1 12 15
M  V30 15 1 11 16
M  V30 16 1 16 17
M  V30 17 1 17 18
M  V30 18 1 18 19
M  V30 19 1 19 20
M  V30 20 1 20 21
M  V30 21 1 21 22
M  V30 22 1 22 23
M  V30 23 1 23 24
M  V30 24 2 16 25
M  V30 25 1 6 26
M  V30 26 2 26 27
M  V30 27 1 27 3
M  V30 28 1 25 8
M  V30 29 1 24 19
M  V30 30 1 4 28
M  V30 31 1 5 29
M  V30 32 1 7 30
M  V30 33 1 10 31
M  V30 34 1 17 32
M  V30 35 1 18 33
M  V30 36 1 18 34
M  V30 37 1 19 35 CFG=1
M  V30 38 1 20 36
M  V30 39 1 20 37
M  V30 40 1 21 38
M  V30 41 1 21 39
M  V30 42 1 22 40
M  V30 43 1 22 41
M  V30 44 1 23 42
M  V30 45 1 24 43
M  V30 46 1 24 44
M  V30 47 1 26 45
M  V30 END BOND
M  V30 END CTAB
M  END
>  <Dataset>  (726) 
ChEMBL_Kinases

>  <Ligand_Instance>  (726) 
nan

>  <PDB_ID>  (726) 
nan

>  <Standardized_SMILES>  (726) 
N#Cc1ccc(Nc2ncc(C(F)(F)F)c(NC[C@H]3CCCNC3)n2)cn1

>  <Name>  (726) 
nan

>  <Pocket>  (726) 
nan

>  <ATP_Site>  (726) 
nan

>  <Peripheral>  (726) 
nan

>  <Num_H_Atoms_ProtBoundConf>  (726) 
nan

>  <Num_Resolved_Atoms>  (726) 
nan

>  <Num_Not_Resolved_Atoms>  (726) 
nan

$$$$
CHEMBL4857556
     RDKit          3D

  0  0  0  0  0  0  0  0  0  0999 V3000
M  V30 BEGIN CTAB
M  V30 COUNTS 45 47 0 0 0
M  V30 BEGIN ATOM
M  V30 1 C -3.464187 -4.103036 3.337798 0
M  V30 2 N -2.099348 -4.319640 3.777341 0
M  V30 3 C -0.953841 -5.116673 3.439177 0
M  V30 4 C -0.132769 -4.500296 2.523628 0
M  V30 5 C 1.011923 -5.133895 2.093399 0
M  V30 6 O 1.990387 -4.736837 1.193682 0
M  V30 7 C 2.015843 -3.552145 0.502237 0
M  V30 8 C 3.078815 -2.688739 0.678594 0
M  V30 9 C 3.229993 -1.471254 0.049364 0
M  V30 10 C 2.243931 -1.071079 -0.832147 0
M  V30 11 N 2.258349 0.158746 -1.557777 0
M  V30 12 C 1.679081 1.351671 -1.043131 0
M  V30 13 O 1.130405 1.307496 0.108978 0
M  V30 14 N 1.638921 2.607903 -1.671820 0
M  V30 15 C 0.980998 3.638394 -0.903806 0
M  V30 16 C 1.741793 4.402161 -0.036134 0
M  V30 17 C 1.150226 5.391130 0.710557 0
M  V30 18 C -0.201616 5.650839 0.620695 0
M  V30 19 C -0.972207 4.884915 -0.251250 0
M  V30 20 C -2.446175 5.085240 -0.423510 0
M  V30 21 F -2.826591 6.289538 0.147144 0
M  V30 22 F -3.135078 4.092461 0.260811 0
M  V30 23 F -2.829541 4.988736 -1.739325 0
M  V30 24 C -0.377362 3.878359 -1.012962 0
M  V30 25 C 1.167306 -1.911384 -1.031230 0
M  V30 26 F 0.164463 -1.570035 -1.888541 0
M  V30 27 C 1.034071 -3.126471 -0.391769 0
M  V30 28 F -0.026318 -3.940051 -0.597268 0
M  V30 29 N 1.301755 -6.369593 2.593984 0
M  V30 30 C 0.467583 -6.951134 3.498827 0
M  V30 31 N -0.652613 -6.344028 3.927159 0
M  V30 32 H -3.562186 -3.061932 2.934684 0
M  V30 33 H -3.771732 -4.774681 2.532901 0
M  V30 34 H -4.140809 -4.204623 4.218375 0
M  V30 35 H -1.791743 -3.738407 4.600441 0
M  V30 36 H -0.253762 -3.532530 2.059080 0
M  V30 37 H 3.871882 -2.965754 1.360786 0
M  V30 38 H 4.067071 -0.818639 0.204564 0
M  V30 39 H 2.692570 0.253789 -2.503458 0
M  V30 40 H 2.093444 2.647260 -2.627723 0
M  V30 41 H 2.796895 4.223557 0.055649 0
M  V30 42 H 1.709163 6.023814 1.412270 0
M  V30 43 H -0.745020 6.416137 1.178023 0
M  V30 44 H -0.983101 3.274053 -1.700356 0
M  V30 45 H 0.677966 -7.936348 3.912200 0
M  V30 END ATOM
M  V30 BEGIN BOND
M  V30 1 1 1 2
M  V30 2 1 2 3
M  V30 3 2 3 4
M  V30 4 1 4 5
M  V30 5 1 5 6
M  V30 6 1 6 7
M  V30 7 2 7 8
M  V30 8 1 8 9
M  V30 9 2 9 10
M  V30 10 1 10 11
M  V30 11 1 11 12
M  V30 12 2 12 13
M  V30 13 1 12 14
M  V30 14 1 14 15
M  V30 15 2 15 16
M  V30 16 1 16 17
M  V30 17 2 17 18
M  V30 18 1 18 19
M  V30 19 1 19 20
M  V30 20 1 20 21
M  V30 21 1 20 22
M  V30 22 1 20 23
M  V30 23 2 19 24
M  V30 24 1 10 25
M  V30 25 1 25 26
M  V30 26 2 25 27
M  V30 27 1 27 28
M  V30 28 2 5 29
M  V30 29 1 29 30
M  V30 30 2 30 31
M  V30 31 1 31 3
M  V30 32 1 27 7
M  V30 33 1 24 15
M  V30 34 1 1 32
M  V30 35 1 1 33
M  V30 36 1 1 34
M  V30 37 1 2 35
M  V30 38 1 4 36
M  V30 39 1 8 37
M  V30 40 1 9 38
M  V30 41 1 11 39
M  V30 42 1 14 40
M  V30 43 1 16 41
M  V30 44 1 17 42
M  V30 45 1 18 43
M  V30 46 1 24 44
M  V30 47 1 30 45
M  V30 END BOND
M  V30 END CTAB
M  END
>  <Dataset>  (727) 
ChEMBL_Kinases

>  <Ligand_Instance>  (727) 
nan

>  <PDB_ID>  (727) 
nan

>  <Standardized_SMILES>  (727) 
CNc1cc(Oc2ccc(NC(=O)Nc3cccc(C(F)(F)F)c3)c(F)c2F)ncn1

>  <Name>  (727) 
nan

>  <Pocket>  (727) 
nan

>  <ATP_Site>  (727) 
nan

>  <Peripheral>  (727) 
nan

>  <Num_H_Atoms_ProtBoundConf>  (727) 
nan

>  <Num_Resolved_Atoms>  (727) 
nan

>  <Num_Not_Resolved_Atoms>  (727) 
nan

$$$$
CHEMBL4073138
     RDKit          3D

  0  0  0  0  0  0  0  0  0  0999 V3000
M  V30 BEGIN CTAB
M  V30 COUNTS 50 53 0 0 0
M  V30 BEGIN ATOM
M  V30 1 O -1.818660 -4.950689 3.266638 0
M  V30 2 C -1.443393 -3.761307 3.389965 0
M  V30 3 N -1.247530 -3.028028 4.566622 0
M  V30 4 C -0.821728 -1.718551 4.228670 0
M  V30 5 C -0.488339 -0.593872 4.945160 0
M  V30 6 C -0.091199 0.603962 4.371144 0
M  V30 7 C -0.017209 0.700680 2.997322 0
M  V30 8 C 0.403755 1.980339 2.440736 0
M  V30 9 O 0.653622 2.917885 3.241621 0
M  V30 10 N 0.515203 2.118022 1.030698 0
M  V30 11 C 0.885212 3.181860 0.142447 0 CFG=2
M  V30 12 C -0.211319 3.594093 -0.791830 0
M  V30 13 O -1.342197 4.046591 -0.111571 0
M  V30 14 C 2.207334 2.994914 -0.537657 0
M  V30 15 C 2.354613 1.811339 -1.376458 0
M  V30 16 C 2.835317 0.638810 -0.772835 0
M  V30 17 C 3.042780 -0.577415 -1.396501 0
M  V30 18 C 2.738108 -0.617402 -2.754485 0
M  V30 19 C 2.263269 0.522730 -3.373415 0
M  V30 20 C 2.062330 1.732051 -2.730188 0
M  V30 21 C -0.349078 -0.419185 2.282921 0
M  V30 22 C -0.744035 -1.609848 2.857381 0
M  V30 23 C -1.133463 -2.896117 2.277901 0
M  V30 24 C -1.184753 -3.224215 1.001116 0
M  V30 25 C -1.548586 -4.493244 0.406838 0
M  V30 26 C -2.457829 -4.490931 -0.655986 0
M  V30 27 C -2.685397 -5.762791 -1.129168 0
M  V30 28 C -1.889950 -6.580904 -0.332653 0
M  V30 29 N -1.261622 -5.796150 0.529131 0
M  V30 30 H -1.403893 -3.425515 5.517308 0
M  V30 31 H -0.539478 -0.647299 6.044200 0
M  V30 32 H 0.146709 1.421869 5.039707 0
M  V30 33 H 0.320493 1.373314 0.332372 0
M  V30 34 H 1.060121 4.067869 0.827398 0
M  V30 35 H 0.083528 4.429229 -1.460639 0
M  V30 36 H -0.460110 2.761619 -1.516037 0
M  V30 37 H -2.162390 3.717120 -0.588498 0
M  V30 38 H 2.414105 3.925383 -1.106883 0
M  V30 39 H 2.990291 2.964462 0.250056 0
M  V30 40 H 3.078264 0.665942 0.303016 0
M  V30 41 H 3.412079 -1.412212 -0.848517 0
M  V30 42 H 2.883612 -1.550716 -3.295905 0
M  V30 43 H 2.037692 0.438029 -4.443783 0
M  V30 44 H 1.695182 2.611503 -3.210013 0
M  V30 45 H -0.295078 -0.356427 1.198134 0
M  V30 46 H -0.905311 -2.402697 0.324231 0
M  V30 47 H -2.981090 -3.663607 -1.132873 0
M  V30 48 H -3.324641 -6.100103 -1.931747 0
M  V30 49 H -1.785843 -7.655194 -0.386591 0
M  V30 50 H -0.587974 -6.126636 1.240763 0
M  V30 END ATOM
M  V30 BEGIN BOND
M  V30 1 2 1 2
M  V30 2 1 2 3
M  V30 3 1 3 4
M  V30 4 2 4 5
M  V30 5 1 5 6
M  V30 6 2 6 7
M  V30 7 1 7 8
M  V30 8 2 8 9
M  V30 9 1 8 10
M  V30 10 1 10 11
M  V30 11 1 11 12
M  V30 12 1 12 13
M  V30 13 1 11 14
M  V30 14 1 14 15
M  V30 15 2 15 16
M  V30 16 1 16 17
M  V30 17 2 17 18
M  V30 18 1 18 19
M  V30 19 2 19 20
M  V30 20 1 7 21
M  V30 21 2 21 22
M  V30 22 1 22 23
M  V30 23 2 23 24
M  V30 24 1 24 25
M  V30 25 2 25 26
M  V30 26 1 26 27
M  V30 27 2 27 28
M  V30 28 1 28 29
M  V30 29 1 23 2
M  V30 30 1 29 25
M  V30 31 1 22 4
M  V30 32 1 20 15
M  V30 33 1 3 30
M  V30 34 1 5 31
M  V30 35 1 6 32
M  V30 36 1 10 33
M  V30 37 1 11 34 CFG=1
M  V30 38 1 12 35
M  V30 39 1 12 36
M  V30 40 1 13 37
M  V30 41 1 14 38
M  V30 42 1 14 39
M  V30 43 1 16 40
M  V30 44 1 17 41
M  V30 45 1 18 42
M  V30 46 1 19 43
M  V30 47 1 20 44
M  V30 48 1 21 45
M  V30 49 1 24 46
M  V30 50 1 26 47
M  V30 51 1 27 48
M  V30 52 1 28 49
M  V30 53 1 29 50
M  V30 END BOND
M  V30 END CTAB
M  END
>  <Dataset>  (728) 
ChEMBL_Kinases

>  <Ligand_Instance>  (728) 
nan

>  <PDB_ID>  (728) 
nan

>  <Standardized_SMILES>  (728) 
O=C1Nc2ccc(C(=O)N[C@H](CO)Cc3ccccc3)cc2/C1=C/c1ccc[nH]1

>  <Name>  (728) 
nan

>  <Pocket>  (728) 
nan

>  <ATP_Site>  (728) 
nan

>  <Peripheral>  (728) 
nan

>  <Num_H_Atoms_ProtBoundConf>  (728) 
nan

>  <Num_Resolved_Atoms>  (728) 
nan

>  <Num_Not_Resolved_Atoms>  (728) 
nan

$$$$
CHEMBL4072910
     RDKit          3D

  0  0  0  0  0  0  0  0  0  0999 V3000
M  V30 BEGIN CTAB
M  V30 COUNTS 58 62 0 0 0
M  V30 BEGIN ATOM
M  V30 1 C 4.535705 2.669562 7.905329 0
M  V30 2 O 4.142474 2.233729 6.636799 0
M  V30 3 C 4.721150 1.218373 5.902376 0
M  V30 4 O 5.625210 0.845778 6.660732 0
M  V30 5 C 4.278709 0.794843 4.579841 0
M  V30 6 C 4.954884 -0.238984 3.967378 0
M  V30 7 C 4.461158 -0.577519 2.701590 0
M  V30 8 C 3.386322 0.072073 2.118118 0
M  V30 9 C 2.766483 1.099633 2.804477 0
M  V30 10 C 3.203490 1.489432 4.066121 0
M  V30 11 C 1.619340 1.923772 2.385848 0
M  V30 12 O 1.445124 3.004725 3.008784 0
M  V30 13 C 0.706588 1.542208 1.307701 0
M  V30 14 C -0.318743 2.459997 1.240243 0
M  V30 15 C -1.290882 2.276622 0.283673 0
M  V30 16 C -1.308562 1.214442 -0.630600 0
M  V30 17 N -2.313991 1.069952 -1.611395 0
M  V30 18 C -2.991989 -0.019733 -2.179867 0
M  V30 19 C -2.831825 -1.333158 -1.826960 0
M  V30 20 C -3.486017 -2.380717 -2.397383 0
M  V30 21 N -3.313482 -3.741948 -2.023578 0
M  V30 22 C -2.355351 -4.576119 -2.618159 0
M  V30 23 O -1.652596 -4.039314 -3.510182 0
M  V30 24 C -2.203832 -5.961053 -2.214840 0
M  V30 25 C -1.252082 -6.726942 -2.828937 0
M  V30 26 C -1.111207 -8.038208 -2.445150 0
M  V30 27 S -2.378519 -8.280544 -1.127089 0
M  V30 28 C -2.991959 -6.558067 -1.218350 0
M  V30 29 C -4.389031 -2.139753 -3.413402 0
M  V30 30 F -5.098841 -3.096451 -4.056806 0
M  V30 31 C -4.565284 -0.827191 -3.783167 0
M  V30 32 C -3.886878 0.208893 -3.185047 0
M  V30 33 C -4.147892 1.589670 -3.657514 0
M  V30 34 C -0.248083 0.343337 -0.495555 0
M  V30 35 C 0.758876 0.468360 0.440518 0
M  V30 36 O 1.743970 -0.508088 0.424673 0
M  V30 37 C 3.105202 -0.509428 0.788106 0
M  V30 38 H 3.639602 3.142271 8.405196 0
M  V30 39 H 5.312985 3.452888 7.913647 0
M  V30 40 H 4.838582 1.825988 8.577912 0
M  V30 41 H 5.789823 -0.739898 4.426778 0
M  V30 42 H 4.981276 -1.392446 2.199432 0
M  V30 43 H 2.723888 2.291712 4.608196 0
M  V30 44 H -0.379048 3.310007 1.910534 0
M  V30 45 H -2.107995 2.991562 0.215701 0
M  V30 46 H -2.564439 2.044119 -1.955878 0
M  V30 47 H -2.161142 -1.608125 -1.042438 0
M  V30 48 H -3.966460 -4.079977 -1.258470 0
M  V30 49 H -0.550777 -6.473218 -3.605522 0
M  V30 50 H -0.506958 -8.870068 -2.698283 0
M  V30 51 H -3.768698 -6.046321 -0.672419 0
M  V30 52 H -5.278426 -0.603351 -4.589897 0
M  V30 53 H -4.816036 1.580343 -4.517762 0
M  V30 54 H -3.180950 2.103581 -3.898039 0
M  V30 55 H -4.579997 2.150519 -2.803509 0
M  V30 56 H -0.125476 -0.507461 -1.136504 0
M  V30 57 H 3.705866 -0.010768 0.001610 0
M  V30 58 H 3.421349 -1.571393 0.808656 0
M  V30 END ATOM
M  V30 BEGIN BOND
M  V30 1 1 1 2
M  V30 2 1 2 3
M  V30 3 2 3 4
M  V30 4 1 3 5
M  V30 5 2 5 6
M  V30 6 1 6 7
M  V30 7 2 7 8
M  V30 8 1 8 9
M  V30 9 2 9 10
M  V30 10 1 9 11
M  V30 11 2 11 12
M  V30 12 1 11 13
M  V30 13 2 13 14
M  V30 14 1 14 15
M  V30 15 2 15 16
M  V30 16 1 16 17
M  V30 17 1 17 18
M  V30 18 2 18 19
M  V30 19 1 19 20
M  V30 20 1 20 21
M  V30 21 1 21 22
M  V30 22 2 22 23
M  V30 23 1 22 24
M  V30 24 1 24 25
M  V30 25 2 25 26
M  V30 26 1 26 27
M  V30 27 1 27 28
M  V30 28 2 20 29
M  V30 29 1 29 30
M  V30 30 1 29 31
M  V30 31 2 31 32
M  V30 32 1 32 33
M  V30 33 1 16 34
M  V30 34 2 34 35
M  V30 35 1 35 36
M  V30 36 1 36 37
M  V30 37 1 10 5
M  V30 38 1 35 13
M  V30 39 1 37 8
M  V30 40 1 32 18
M  V30 41 2 28 24
M  V30 42 1 1 38
M  V30 43 1 1 39
M  V30 44 1 1 40
M  V30 45 1 6 41
M  V30 46 1 7 42
M  V30 47 1 10 43
M  V30 48 1 14 44
M  V30 49 1 15 45
M  V30 50 1 17 46
M  V30 51 1 19 47
M  V30 52 1 21 48
M  V30 53 1 25 49
M  V30 54 1 26 50
M  V30 55 1 28 51
M  V30 56 1 31 52
M  V30 57 1 33 53
M  V30 58 1 33 54
M  V30 59 1 33 55
M  V30 60 1 34 56
M  V30 61 1 37 57
M  V30 62 1 37 58
M  V30 END BOND
M  V30 END CTAB
M  END
>  <Dataset>  (729) 
ChEMBL_Kinases

>  <Ligand_Instance>  (729) 
nan

>  <PDB_ID>  (729) 
nan

>  <Standardized_SMILES>  (729) 
COC(=O)c1ccc2c(c1)C(=O)c1ccc(Nc3cc(NC(=O)c4ccsc4)c(F)cc3C)cc1OC2

>  <Name>  (729) 
nan

>  <Pocket>  (729) 
nan

>  <ATP_Site>  (729) 
nan

>  <Peripheral>  (729) 
nan

>  <Num_H_Atoms_ProtBoundConf>  (729) 
nan

>  <Num_Resolved_Atoms>  (729) 
nan

>  <Num_Not_Resolved_Atoms>  (729) 
nan

$$$$
CHEMBL4072898
     RDKit          3D

  0  0  0  0  0  0  0  0  0  0999 V3000
M  V30 BEGIN CTAB
M  V30 COUNTS 60 64 0 0 0
M  V30 BEGIN ATOM
M  V30 1 O 2.036637 0.813435 -0.149478 0
M  V30 2 C 1.878714 -0.200338 -0.911144 0
M  V30 3 N 3.132501 -0.593539 -1.438551 0
M  V30 4 C 4.384261 0.034899 -1.169128 0
M  V30 5 C 4.340477 1.189780 -0.270628 0
M  V30 6 C 4.470548 1.136392 1.120232 0
M  V30 7 C 4.419495 2.279350 1.902428 0
M  V30 8 N 4.240045 3.478580 1.316308 0
M  V30 9 C 4.107747 3.595231 -0.023814 0
M  V30 10 C 4.160227 2.456463 -0.784821 0
M  V30 11 C 0.577102 -0.802643 -1.150765 0
M  V30 12 C -0.494672 -0.184188 -0.496953 0
M  V30 13 C -1.790035 -0.678157 -0.655035 0
M  V30 14 C -2.858162 0.090377 0.104902 0 CFG=2
M  V30 15 C -3.084627 1.426325 -0.487033 0
M  V30 16 C -3.389115 2.544379 0.447514 0
M  V30 17 N -2.597854 2.486404 1.660385 0
M  V30 18 C -2.843917 1.273326 2.353034 0
M  V30 19 C -2.616554 0.005307 1.570076 0 CFG=1
M  V30 20 C -3.388804 -1.153500 2.196134 0
M  V30 21 O -3.023585 -2.371534 1.660233 0
M  V30 22 C -1.843383 -3.031708 1.684849 0
M  V30 23 C -0.584411 -2.854669 2.204032 0
M  V30 24 C 0.472344 -3.719639 2.068124 0
M  V30 25 C 0.237053 -4.865271 1.344598 0
M  V30 26 C -0.983828 -5.152893 0.776758 0
M  V30 27 C -2.021508 -4.223919 0.954535 0
M  V30 28 O -0.802052 -6.376750 0.148370 0
M  V30 29 C 0.309406 -7.039347 0.726025 0
M  V30 30 O 1.119284 -5.904935 1.052293 0
M  V30 31 C -2.071980 -1.774835 -1.445263 0
M  V30 32 C -1.022063 -2.387059 -2.090918 0
M  V30 33 C 0.244128 -1.886870 -1.922978 0
M  V30 34 F 1.272176 -2.488331 -2.556795 0
M  V30 35 H 3.157013 -1.408009 -2.078283 0
M  V30 36 H 4.876468 0.364596 -2.123697 0
M  V30 37 H 5.113177 -0.699102 -0.720342 0
M  V30 38 H 4.613652 0.172691 1.570455 0
M  V30 39 H 4.522529 2.221992 2.985004 0
M  V30 40 H 3.966884 4.568712 -0.448799 0
M  V30 41 H 4.050105 2.582375 -1.862510 0
M  V30 42 H -0.322414 0.683833 0.136861 0
M  V30 43 H -3.798435 -0.508085 -0.087448 0
M  V30 44 H -3.945777 1.397403 -1.219757 0
M  V30 45 H -2.209972 1.673333 -1.159873 0
M  V30 46 H -3.146985 3.510644 -0.044890 0
M  V30 47 H -4.457431 2.597735 0.736879 0
M  V30 48 H -1.591439 2.694850 1.488484 0
M  V30 49 H -2.236686 1.267962 3.301051 0
M  V30 50 H -3.899674 1.258114 2.693268 0
M  V30 51 H -1.542443 -0.229250 1.697703 0
M  V30 52 H -3.172769 -1.155999 3.310286 0
M  V30 53 H -4.485492 -0.937722 2.080279 0
M  V30 54 H -0.495687 -1.946456 2.766052 0
M  V30 55 H 1.388299 -3.417238 2.543165 0
M  V30 56 H -2.918333 -4.586723 0.451729 0
M  V30 57 H 0.813850 -7.748899 0.072911 0
M  V30 58 H -0.045132 -7.466810 1.689026 0
M  V30 59 H -3.088610 -2.110063 -1.529322 0
M  V30 60 H -1.173623 -3.244976 -2.720891 0
M  V30 END ATOM
M  V30 BEGIN BOND
M  V30 1 2 1 2
M  V30 2 1 2 3
M  V30 3 1 3 4
M  V30 4 1 4 5
M  V30 5 2 5 6
M  V30 6 1 6 7
M  V30 7 2 7 8
M  V30 8 1 8 9
M  V30 9 2 9 10
M  V30 10 1 2 11
M  V30 11 2 11 12
M  V30 12 1 12 13
M  V30 13 1 13 14
M  V30 14 1 14 15
M  V30 15 1 15 16
M  V30 16 1 16 17
M  V30 17 1 17 18
M  V30 18 1 18 19
M  V30 19 1 19 20
M  V30 20 1 20 21
M  V30 21 1 21 22
M  V30 22 2 22 23
M  V30 23 1 23 24
M  V30 24 2 24 25
M  V30 25 1 25 26
M  V30 26 2 26 27
M  V30 27 1 26 28
M  V30 28 1 28 29
M  V30 29 1 29 30
M  V30 30 2 13 31
M  V30 31 1 31 32
M  V30 32 2 32 33
M  V30 33 1 33 34
M  V30 34 1 10 5
M  V30 35 1 33 11
M  V30 36 1 19 14
M  V30 37 1 27 22
M  V30 38 1 30 25
M  V30 39 1 3 35
M  V30 40 1 4 36
M  V30 41 1 4 37
M  V30 42 1 6 38
M  V30 43 1 7 39
M  V30 44 1 9 40
M  V30 45 1 10 41
M  V30 46 1 12 42
M  V30 47 1 14 43 CFG=1
M  V30 48 1 15 44
M  V30 49 1 15 45
M  V30 50 1 16 46
M  V30 51 1 16 47
M  V30 52 1 17 48
M  V30 53 1 18 49
M  V30 54 1 18 50
M  V30 55 1 19 51 CFG=3
M  V30 56 1 20 52
M  V30 57 1 20 53
M  V30 58 1 23 54
M  V30 59 1 24 55
M  V30 60 1 27 56
M  V30 61 1 29 57
M  V30 62 1 29 58
M  V30 63 1 31 59
M  V30 64 1 32 60
M  V30 END BOND
M  V30 END CTAB
M  END
>  <Dataset>  (730) 
ChEMBL_Kinases

>  <Ligand_Instance>  (730) 
nan

>  <PDB_ID>  (730) 
nan

>  <Standardized_SMILES>  (730) 
O=C(NCc1ccncc1)c1cc([C@@H]2CCNC[C@H]2COc2ccc3c(c2)OCO3)ccc1F

>  <Name>  (730) 
nan

>  <Pocket>  (730) 
nan

>  <ATP_Site>  (730) 
nan

>  <Peripheral>  (730) 
nan

>  <Num_H_Atoms_ProtBoundConf>  (730) 
nan

>  <Num_Resolved_Atoms>  (730) 
nan

>  <Num_Not_Resolved_Atoms>  (730) 
nan

$$$$
CHEMBL4857601
     RDKit          3D

  0  0  0  0  0  0  0  0  0  0999 V3000
M  V30 BEGIN CTAB
M  V30 COUNTS 38 40 0 0 0
M  V30 BEGIN ATOM
M  V30 1 N -1.025475 -3.617058 4.527012 0
M  V30 2 C 0.177586 -3.694502 3.766470 0
M  V30 3 N 1.145806 -4.615505 3.920309 0
M  V30 4 C 2.253765 -4.616806 3.157432 0
M  V30 5 C 2.379540 -3.625486 2.186462 0
M  V30 6 C 1.420910 -2.684203 2.007920 0
M  V30 7 C 1.521768 -1.641926 1.008700 0
M  V30 8 C 2.588223 -1.534209 0.177195 0
M  V30 9 C 2.612906 -0.515396 -0.748572 0
M  V30 10 C 1.599531 0.430902 -0.893853 0
M  V30 11 C 1.781070 1.457184 -1.933406 0
M  V30 12 O 1.001414 2.374922 -2.211723 0
M  V30 13 O 2.908700 1.474762 -2.728481 0
M  V30 14 C 0.503946 0.347587 -0.064026 0
M  V30 15 C -0.579052 1.316595 -0.177436 0
M  V30 16 C -1.661673 0.964678 -1.164483 0
M  V30 17 C -2.719047 2.018843 -0.809895 0
M  V30 18 C -2.467901 2.388773 0.647836 0
M  V30 19 C -1.427466 1.349026 1.109841 0
M  V30 20 C 0.512592 -0.699431 0.863972 0
M  V30 21 N 0.340944 -2.753984 2.814898 0
M  V30 22 H -0.925561 -3.009390 5.380100 0
M  V30 23 H -1.965210 -4.073856 4.349269 0
M  V30 24 H 3.003077 -5.367931 3.310698 0
M  V30 25 H 3.266766 -3.663129 1.608217 0
M  V30 26 H 3.412409 -2.202209 0.204671 0
M  V30 27 H 3.487636 -0.443918 -1.415509 0
M  V30 28 H 2.859527 1.815439 -3.658389 0
M  V30 29 H -0.268211 2.373865 -0.307400 0
M  V30 30 H -2.106455 -0.016331 -0.899954 0
M  V30 31 H -1.415158 1.103920 -2.212087 0
M  V30 32 H -2.569687 2.922969 -1.435163 0
M  V30 33 H -3.730977 1.634472 -0.968815 0
M  V30 34 H -3.388587 2.340004 1.233399 0
M  V30 35 H -1.952212 3.370147 0.711103 0
M  V30 36 H -1.888608 0.360896 1.202069 0
M  V30 37 H -0.887171 1.734331 1.968106 0
M  V30 38 H -0.324951 -0.825179 1.555693 0
M  V30 END ATOM
M  V30 BEGIN BOND
M  V30 1 1 1 2
M  V30 2 2 2 3
M  V30 3 1 3 4
M  V30 4 2 4 5
M  V30 5 1 5 6
M  V30 6 1 6 7
M  V30 7 2 7 8
M  V30 8 1 8 9
M  V30 9 2 9 10
M  V30 10 1 10 11
M  V30 11 2 11 12
M  V30 12 1 11 13
M  V30 13 1 10 14
M  V30 14 1 14 15
M  V30 15 1 15 16
M  V30 16 1 16 17
M  V30 17 1 17 18
M  V30 18 1 18 19
M  V30 19 2 14 20
M  V30 20 2 6 21
M  V30 21 1 21 2
M  V30 22 1 20 7
M  V30 23 1 19 15
M  V30 24 1 1 22
M  V30 25 1 1 23
M  V30 26 1 4 24
M  V30 27 1 5 25
M  V30 28 1 8 26
M  V30 29 1 9 27
M  V30 30 1 13 28
M  V30 31 1 15 29
M  V30 32 1 16 30
M  V30 33 1 16 31
M  V30 34 1 17 32
M  V30 35 1 17 33
M  V30 36 1 18 34
M  V30 37 1 18 35
M  V30 38 1 19 36
M  V30 39 1 19 37
M  V30 40 1 20 38
M  V30 END BOND
M  V30 END CTAB
M  END
>  <Dataset>  (731) 
ChEMBL_Kinases

>  <Ligand_Instance>  (731) 
nan

>  <PDB_ID>  (731) 
nan

>  <Standardized_SMILES>  (731) 
Nc1nccc(-c2ccc(C(=O)O)c(C3CCCC3)c2)n1

>  <Name>  (731) 
nan

>  <Pocket>  (731) 
nan

>  <ATP_Site>  (731) 
nan

>  <Peripheral>  (731) 
nan

>  <Num_H_Atoms_ProtBoundConf>  (731) 
nan

>  <Num_Resolved_Atoms>  (731) 
nan

>  <Num_Not_Resolved_Atoms>  (731) 
nan

$$$$
CHEMBL4857672
     RDKit          3D

  0  0  0  0  0  0  0  0  0  0999 V3000
M  V30 BEGIN CTAB
M  V30 COUNTS 48 51 0 0 0
M  V30 BEGIN ATOM
M  V30 1 C -2.671744 -3.422160 -4.588108 0
M  V30 2 C -1.610033 -2.343718 -4.790691 0
M  V30 3 N -0.939195 -2.088214 -3.542598 0
M  V30 4 C -1.377916 -1.156616 -2.669341 0
M  V30 5 N -0.540654 -1.149112 -1.591397 0
M  V30 6 C 0.429800 -2.064972 -1.763542 0
M  V30 7 N 1.512137 -2.375243 -0.860606 0
M  V30 8 C 1.451786 -1.572766 0.328721 0
M  V30 9 N 2.014765 -0.364029 0.483555 0
M  V30 10 C 1.873944 0.284682 1.665523 0
M  V30 11 N 2.468481 1.573539 1.843023 0
M  V30 12 C 2.262153 2.230248 3.143397 0 CFG=1
M  V30 13 C 2.935809 3.570043 3.189278 0
M  V30 14 C 0.771455 2.338978 3.265984 0
M  V30 15 C 0.050840 2.039214 4.391517 0
M  V30 16 C -1.330075 2.165043 4.421762 0
M  V30 17 C -1.956534 2.606197 3.269395 0
M  V30 18 F -3.307817 2.715186 3.342024 0
M  V30 19 C -1.223655 2.909219 2.130480 0
M  V30 20 N 0.129563 2.772830 2.140716 0
M  V30 21 N 1.169687 -0.317612 2.640087 0
M  V30 22 C 0.588723 -1.516746 2.543028 0
M  V30 23 C -0.121651 -2.087052 3.575864 0
M  V30 24 C -0.714785 -3.333710 3.450057 0
M  V30 25 C -0.581031 -4.005111 2.256715 0
M  V30 26 C 0.128630 -3.422299 1.241431 0
M  V30 27 F 0.258470 -4.096211 0.054833 0
M  V30 28 C 0.730331 -2.183025 1.336292 0
M  V30 29 C 0.157903 -2.643905 -2.999723 0
M  V30 30 H -3.403627 -3.053667 -3.824255 0
M  V30 31 H -3.245060 -3.511110 -5.534578 0
M  V30 32 H -2.259999 -4.399098 -4.328771 0
M  V30 33 H -0.935694 -2.627515 -5.614284 0
M  V30 34 H -2.147110 -1.438612 -5.141935 0
M  V30 35 H -2.223681 -0.456136 -2.670301 0
M  V30 36 H 2.178792 -3.118382 -1.176042 0
M  V30 37 H 3.007883 1.993407 1.080336 0
M  V30 38 H 2.702482 1.603751 3.948292 0
M  V30 39 H 2.774796 3.997519 4.178255 0
M  V30 40 H 2.547660 4.273769 2.426120 0
M  V30 41 H 4.011378 3.394256 3.049922 0
M  V30 42 H 0.621791 1.704872 5.237206 0
M  V30 43 H -1.888752 1.924026 5.321230 0
M  V30 44 H -1.776767 3.249835 1.261053 0
M  V30 45 H -0.217222 -1.548586 4.504132 0
M  V30 46 H -1.282120 -3.816980 4.239923 0
M  V30 47 H -1.017470 -4.967769 2.106157 0
M  V30 48 H 0.737358 -3.433469 -3.475411 0
M  V30 END ATOM
M  V30 BEGIN BOND
M  V30 1 1 1 2
M  V30 2 1 2 3
M  V30 3 1 3 4
M  V30 4 2 4 5
M  V30 5 1 5 6
M  V30 6 1 6 7
M  V30 7 1 7 8
M  V30 8 2 8 9
M  V30 9 1 9 10
M  V30 10 1 10 11
M  V30 11 1 11 12
M  V30 12 1 12 13
M  V30 13 1 12 14
M  V30 14 2 14 15
M  V30 15 1 15 16
M  V30 16 2 16 17
M  V30 17 1 17 18
M  V30 18 1 17 19
M  V30 19 2 19 20
M  V30 20 2 10 21
M  V30 21 1 21 22
M  V30 22 2 22 23
M  V30 23 1 23 24
M  V30 24 2 24 25
M  V30 25 1 25 26
M  V30 26 1 26 27
M  V30 27 2 26 28
M  V30 28 2 6 29
M  V30 29 1 29 3
M  V30 30 1 28 8
M  V30 31 1 20 14
M  V30 32 1 28 22
M  V30 33 1 1 30
M  V30 34 1 1 31
M  V30 35 1 1 32
M  V30 36 1 2 33
M  V30 37 1 2 34
M  V30 38 1 4 35
M  V30 39 1 7 36
M  V30 40 1 11 37
M  V30 41 1 12 38 CFG=1
M  V30 42 1 13 39
M  V30 43 1 13 40
M  V30 44 1 13 41
M  V30 45 1 15 42
M  V30 46 1 16 43
M  V30 47 1 19 44
M  V30 48 1 23 45
M  V30 49 1 24 46
M  V30 50 1 25 47
M  V30 51 1 29 48
M  V30 END BOND
M  V30 END CTAB
M  END
>  <Dataset>  (732) 
ChEMBL_Kinases

>  <Ligand_Instance>  (732) 
nan

>  <PDB_ID>  (732) 
nan

>  <Standardized_SMILES>  (732) 
CCn1cnc(Nc2nc(N[C@@H](C)c3ccc(F)cn3)nc3cccc(F)c23)c1

>  <Name>  (732) 
nan

>  <Pocket>  (732) 
nan

>  <ATP_Site>  (732) 
nan

>  <Peripheral>  (732) 
nan

>  <Num_H_Atoms_ProtBoundConf>  (732) 
nan

>  <Num_Resolved_Atoms>  (732) 
nan

>  <Num_Not_Resolved_Atoms>  (732) 
nan

$$$$
CHEMBL4857680
     RDKit          3D

  0  0  0  0  0  0  0  0  0  0999 V3000
M  V30 BEGIN CTAB
M  V30 COUNTS 74 78 0 0 0
M  V30 BEGIN ATOM
M  V30 1 C 7.979645 -3.050381 2.783331 0
M  V30 2 O 7.637610 -3.253844 1.433249 0
M  V30 3 C 6.348136 -3.611696 1.037854 0
M  V30 4 C 5.364565 -3.775453 1.988773 0
M  V30 5 C 4.107451 -4.129435 1.548026 0
M  V30 6 C 3.826771 -4.316287 0.216727 0
M  V30 7 C 4.795188 -4.159609 -0.775731 0
M  V30 8 C 4.692854 -4.300500 -2.237802 0
M  V30 9 N 4.484185 -3.042073 -2.860833 0
M  V30 10 C 4.386311 -3.106533 -4.287220 0
M  V30 11 C 3.762715 -1.919927 -4.958510 0
M  V30 12 C 2.356054 -1.604075 -4.386379 0
M  V30 13 C 2.270680 -0.149373 -4.072168 0
M  V30 14 N 1.085447 0.394822 -3.528068 0
M  V30 15 C 0.207510 0.428992 -2.438090 0
M  V30 16 O 0.571898 -0.314365 -1.476251 0
M  V30 17 C -1.021357 1.178537 -2.274469 0
M  V30 18 C -1.566049 2.036928 -3.205148 0
M  V30 19 N -2.704895 2.714732 -3.025959 0
M  V30 20 C -3.436133 2.613161 -1.889437 0
M  V30 21 C -2.891610 1.752953 -0.955010 0
M  V30 22 N -3.599179 1.589492 0.267923 0
M  V30 23 C -4.575939 0.575307 0.370594 0
M  V30 24 O -4.777655 -0.153658 -0.648906 0
M  V30 25 C -5.371370 0.303360 1.563438 0
M  V30 26 C -6.282668 -0.731980 1.489966 0
M  V30 27 C -7.092669 -1.068679 2.578083 0
M  V30 28 N -6.920640 -0.316023 3.693525 0
M  V30 29 C -6.025795 0.687626 3.740103 0
M  V30 30 N -5.970674 1.389032 5.000686 0
M  V30 31 C -6.909922 2.449250 4.889273 0
M  V30 32 O -7.576819 2.593949 3.810117 0
M  V30 33 C -7.225034 3.472377 5.949423 0
M  V30 34 C -7.276219 2.984423 7.388636 0
M  V30 35 C -6.227281 3.902170 6.928615 0
M  V30 36 C -5.217742 1.052228 2.711502 0
M  V30 37 C -1.735352 1.056936 -1.122062 0
M  V30 38 C 2.204899 -2.494868 -3.209285 0
M  V30 39 C 3.411694 -2.306367 -2.298600 0
M  V30 40 C 6.058763 -3.800573 -0.293840 0
M  V30 41 H 8.180080 -4.043929 3.279530 0
M  V30 42 H 8.936788 -2.473152 2.799407 0
M  V30 43 H 7.218252 -2.462532 3.331810 0
M  V30 44 H 5.541653 -3.639799 3.034750 0
M  V30 45 H 3.275930 -4.278386 2.230263 0
M  V30 46 H 2.855928 -4.603248 -0.185291 0
M  V30 47 H 5.650841 -4.784067 -2.596928 0
M  V30 48 H 3.854364 -5.026547 -2.432101 0
M  V30 49 H 3.891371 -4.058871 -4.612148 0
M  V30 50 H 5.431800 -3.186173 -4.699537 0
M  V30 51 H 3.692300 -2.152402 -6.039306 0
M  V30 52 H 4.419491 -1.034195 -4.811099 0
M  V30 53 H 1.616107 -1.878593 -5.209418 0
M  V30 54 H 3.190792 0.200800 -3.506870 0
M  V30 55 H 2.428837 0.383023 -5.076018 0
M  V30 56 H 0.611788 1.088757 -4.203353 0
M  V30 57 H -1.062617 2.189234 -4.144020 0
M  V30 58 H -4.355850 3.153337 -1.730789 0
M  V30 59 H -3.420376 2.196707 1.097205 0
M  V30 60 H -6.429262 -1.340855 0.604394 0
M  V30 61 H -7.810328 -1.866734 2.553398 0
M  V30 62 H -5.485706 1.378509 5.940245 0
M  V30 63 H -7.981480 4.202306 5.652355 0
M  V30 64 H -8.146545 3.334847 7.992806 0
M  V30 65 H -6.957028 1.953324 7.630214 0
M  V30 66 H -6.273089 4.958878 7.296455 0
M  V30 67 H -5.154907 3.553713 6.909990 0
M  V30 68 H -4.520365 1.850462 2.780440 0
M  V30 69 H -1.382283 0.397990 -0.323662 0
M  V30 70 H 1.245417 -2.417569 -2.683432 0
M  V30 71 H 2.240107 -3.579329 -3.594085 0
M  V30 72 H 3.144996 -2.526106 -1.255471 0
M  V30 73 H 3.739807 -1.225581 -2.297020 0
M  V30 74 H 6.902024 -3.649599 -0.987325 0
M  V30 END ATOM
M  V30 BEGIN BOND
M  V30 1 1 1 2
M  V30 2 1 2 3
M  V30 3 2 3 4
M  V30 4 1 4 5
M  V30 5 2 5 6
M  V30 6 1 6 7
M  V30 7 1 7 8
M  V30 8 1 8 9
M  V30 9 1 9 10
M  V30 10 1 10 11
M  V30 11 1 11 12
M  V30 12 1 12 13
M  V30 13 1 13 14
M  V30 14 1 14 15
M  V30 15 2 15 16
M  V30 16 1 15 17
M  V30 17 2 17 18
M  V30 18 1 18 19
M  V30 19 2 19 20
M  V30 20 1 20 21
M  V30 21 1 21 22
M  V30 22 1 22 23
M  V30 23 2 23 24
M  V30 24 1 23 25
M  V30 25 2 25 26
M  V30 26 1 26 27
M  V30 27 2 27 28
M  V30 28 1 28 29
M  V30 29 1 29 30
M  V30 30 1 30 31
M  V30 31 2 31 32
M  V30 32 1 31 33
M  V30 33 1 33 34
M  V30 34 1 34 35
M  V30 35 2 29 36
M  V30 36 2 21 37
M  V30 37 1 12 38
M  V30 38 1 38 39
M  V30 39 2 7 40
M  V30 40 1 40 3
M  V30 41 1 39 9
M  V30 42 1 37 17
M  V30 43 1 36 25
M  V30 44 1 35 33
M  V30 45 1 1 41
M  V30 46 1 1 42
M  V30 47 1 1 43
M  V30 48 1 4 44
M  V30 49 1 5 45
M  V30 50 1 6 46
M  V30 51 1 8 47
M  V30 52 1 8 48
M  V30 53 1 10 49
M  V30 54 1 10 50
M  V30 55 1 11 51
M  V30 56 1 11 52
M  V30 57 1 12 53
M  V30 58 1 13 54
M  V30 59 1 13 55
M  V30 60 1 14 56
M  V30 61 1 18 57
M  V30 62 1 20 58
M  V30 63 1 22 59
M  V30 64 1 26 60
M  V30 65 1 27 61
M  V30 66 1 30 62
M  V30 67 1 33 63
M  V30 68 1 34 64
M  V30 69 1 34 65
M  V30 70 1 35 66
M  V30 71 1 35 67
M  V30 72 1 36 68
M  V30 73 1 37 69
M  V30 74 1 38 70
M  V30 75 1 38 71
M  V30 76 1 39 72
M  V30 77 1 39 73
M  V30 78 1 40 74
M  V30 END BOND
M  V30 END CTAB
M  END
>  <Dataset>  (733) 
ChEMBL_Kinases

>  <Ligand_Instance>  (733) 
nan

>  <PDB_ID>  (733) 
nan

>  <Standardized_SMILES>  (733) 
COc1cccc(CN2CCC(CNC(=O)c3cncc(NC(=O)c4ccnc(NC(=O)C5CC5)c4)c3)CC2)c1

>  <Name>  (733) 
nan

>  <Pocket>  (733) 
nan

>  <ATP_Site>  (733) 
nan

>  <Peripheral>  (733) 
nan

>  <Num_H_Atoms_ProtBoundConf>  (733) 
nan

>  <Num_Resolved_Atoms>  (733) 
nan

>  <Num_Not_Resolved_Atoms>  (733) 
nan

$$$$
CHEMBL4857706
     RDKit          3D

  0  0  0  0  0  0  0  0  0  0999 V3000
M  V30 BEGIN CTAB
M  V30 COUNTS 49 53 0 0 0
M  V30 BEGIN ATOM
M  V30 1 O 1.900442 -5.250635 0.048375 0
M  V30 2 C 2.111308 -4.110428 0.518981 0
M  V30 3 O 3.086521 -4.288254 1.484459 0
M  V30 4 C 1.529595 -2.783874 0.212727 0
M  V30 5 C 2.050938 -1.725362 0.944350 0
M  V30 6 C 1.564477 -0.462182 0.691762 0
M  V30 7 C 0.587006 -0.247514 -0.259487 0
M  V30 8 C 0.138071 1.129426 -0.420497 0
M  V30 9 N 0.094249 1.657218 -1.635038 0
M  V30 10 C -0.287107 2.870680 -1.982740 0
M  V30 11 N -0.684637 3.694009 -1.011515 0
M  V30 12 C -0.654672 3.170011 0.306016 0
M  V30 13 S -1.124902 3.939029 1.957800 0
M  V30 14 C -0.752706 2.546188 2.872299 0
M  V30 15 C -0.876452 2.378737 4.360839 0
M  V30 16 C -0.554330 1.191919 4.990909 0
M  V30 17 C -0.674912 1.067464 6.358413 0
M  V30 18 C -1.130695 2.172033 7.091265 0
M  V30 19 C -1.435957 3.329680 6.411766 0
M  V30 20 C -1.326002 3.483709 5.047419 0
M  V30 21 C -0.309728 1.586083 1.989268 0
M  V30 22 C -0.249116 1.881184 0.669571 0
M  V30 23 C 0.094339 -1.334978 -0.966919 0
M  V30 24 C 0.558762 -2.632246 -0.742804 0
M  V30 25 C -0.014433 -3.776575 -1.497698 0
M  V30 26 C 0.786691 -4.184789 -2.667219 0
M  V30 27 C 0.375846 -3.206758 -3.738358 0
M  V30 28 C -1.135789 -3.096422 -3.491044 0
M  V30 29 C -1.377535 -3.483710 -2.069376 0
M  V30 30 H 3.101544 -5.093830 2.124147 0
M  V30 31 H 2.828563 -1.910452 1.700582 0
M  V30 32 H 2.041684 0.313704 1.312561 0
M  V30 33 H -0.348485 3.362998 -2.924342 0
M  V30 34 H -0.207194 0.361452 4.397282 0
M  V30 35 H -0.403584 0.101840 6.783993 0
M  V30 36 H -1.189856 1.973100 8.151340 0
M  V30 37 H -1.780031 4.142707 7.013204 0
M  V30 38 H -1.591928 4.435721 4.592332 0
M  V30 39 H -0.028978 0.619375 2.384502 0
M  V30 40 H -0.651387 -1.080950 -1.677558 0
M  V30 41 H -0.117080 -4.667789 -0.797330 0
M  V30 42 H 1.873629 -4.256913 -2.514849 0
M  V30 43 H 0.454305 -5.191586 -2.999126 0
M  V30 44 H 0.783969 -2.201923 -3.635303 0
M  V30 45 H 0.562697 -3.576682 -4.768838 0
M  V30 46 H -1.632183 -3.802499 -4.196417 0
M  V30 47 H -1.501342 -2.079685 -3.658831 0
M  V30 48 H -1.893912 -2.660764 -1.530738 0
M  V30 49 H -1.996803 -4.408920 -1.984537 0
M  V30 END ATOM
M  V30 BEGIN BOND
M  V30 1 2 1 2
M  V30 2 1 2 3
M  V30 3 1 2 4
M  V30 4 2 4 5
M  V30 5 1 5 6
M  V30 6 2 6 7
M  V30 7 1 7 8
M  V30 8 2 8 9
M  V30 9 1 9 10
M  V30 10 2 10 11
M  V30 11 1 11 12
M  V30 12 1 12 13
M  V30 13 1 13 14
M  V30 14 1 14 15
M  V30 15 2 15 16
M  V30 16 1 16 17
M  V30 17 2 17 18
M  V30 18 1 18 19
M  V30 19 2 19 20
M  V30 20 2 14 21
M  V30 21 1 21 22
M  V30 22 1 7 23
M  V30 23 2 23 24
M  V30 24 1 24 25
M  V30 25 1 25 26
M  V30 26 1 26 27
M  V30 27 1 27 28
M  V30 28 1 28 29
M  V30 29 1 24 4
M  V30 30 1 29 25
M  V30 31 1 22 8
M  V30 32 2 22 12
M  V30 33 1 20 15
M  V30 34 1 3 30
M  V30 35 1 5 31
M  V30 36 1 6 32
M  V30 37 1 10 33
M  V30 38 1 16 34
M  V30 39 1 17 35
M  V30 40 1 18 36
M  V30 41 1 19 37
M  V30 42 1 20 38
M  V30 43 1 21 39
M  V30 44 1 23 40
M  V30 45 1 25 41
M  V30 46 1 26 42
M  V30 47 1 26 43
M  V30 48 1 27 44
M  V30 49 1 27 45
M  V30 50 1 28 46
M  V30 51 1 28 47
M  V30 52 1 29 48
M  V30 53 1 29 49
M  V30 END BOND
M  V30 END CTAB
M  END
>  <Dataset>  (734) 
ChEMBL_Kinases

>  <Ligand_Instance>  (734) 
nan

>  <PDB_ID>  (734) 
nan

>  <Standardized_SMILES>  (734) 
O=C(O)c1ccc(-c2ncnc3sc(-c4ccccc4)cc23)cc1C1CCCC1

>  <Name>  (734) 
nan

>  <Pocket>  (734) 
nan

>  <ATP_Site>  (734) 
nan

>  <Peripheral>  (734) 
nan

>  <Num_H_Atoms_ProtBoundConf>  (734) 
nan

>  <Num_Resolved_Atoms>  (734) 
nan

>  <Num_Not_Resolved_Atoms>  (734) 
nan

$$$$
CHEMBL4857725
     RDKit          3D

  0  0  0  0  0  0  0  0  0  0999 V3000
M  V30 BEGIN CTAB
M  V30 COUNTS 46 49 0 0 0
M  V30 BEGIN ATOM
M  V30 1 O -0.944114 -1.945361 1.435301 0
M  V30 2 C -0.476766 -3.103907 1.456488 0
M  V30 3 N 0.919128 -3.323086 1.213706 0
M  V30 4 C 1.815185 -2.251632 0.943465 0
M  V30 5 C 2.473507 -1.617898 1.976105 0
M  V30 6 C 3.326304 -0.587966 1.637357 0
M  V30 7 C 3.585139 -0.126229 0.338190 0
M  V30 8 O 4.413518 0.871318 0.010110 0
M  V30 9 C 4.308617 2.181709 -0.146094 0
M  V30 10 N 5.554848 2.628255 -0.495269 0
M  V30 11 C 5.721807 3.946042 -0.715266 0
M  V30 12 N 4.727942 4.856934 -0.611264 0
M  V30 13 C 3.492041 4.478421 -0.273832 0
M  V30 14 C 2.389273 5.289812 -0.130925 0
M  V30 15 C 1.145065 4.795385 0.224451 0
M  V30 16 C 1.014979 3.419246 0.443986 0
M  V30 17 C 2.122743 2.615954 0.298802 0
M  V30 18 C 3.341871 3.142387 -0.055201 0
M  V30 19 C 2.857031 -0.850395 -0.617256 0
M  V30 20 C 1.983862 -1.891577 -0.377523 0
M  V30 21 N -1.381974 -4.150633 1.726194 0
M  V30 22 C -2.753467 -3.808834 1.952752 0
M  V30 23 C -3.314277 -3.513044 3.181227 0
M  V30 24 C -4.646349 -3.201090 3.255902 0
M  V30 25 C -5.472113 -3.167644 2.137922 0
M  V30 26 C -4.948810 -3.457074 0.893762 0
M  V30 27 C -5.735541 -3.453907 -0.380141 0
M  V30 28 F -7.080578 -3.350294 -0.082373 0
M  V30 29 F -5.559716 -4.598096 -1.117159 0
M  V30 30 F -5.373352 -2.333734 -1.130901 0
M  V30 31 C -3.595403 -3.769894 0.848046 0
M  V30 32 H 1.240856 -4.329401 1.247964 0
M  V30 33 H 2.350345 -1.889493 3.010378 0
M  V30 34 H 3.853031 -0.078751 2.446558 0
M  V30 35 H 6.646747 4.479158 -1.002187 0
M  V30 36 H 2.551964 6.353219 -0.314908 0
M  V30 37 H 0.337531 5.498345 0.314106 0
M  V30 38 H 0.016825 3.067034 0.722979 0
M  V30 39 H 1.925550 1.597856 0.484630 0
M  V30 40 H 3.009127 -0.544924 -1.654846 0
M  V30 41 H 1.493103 -2.354650 -1.222331 0
M  V30 42 H -1.003527 -5.126603 1.746952 0
M  V30 43 H -2.657383 -3.544341 4.036158 0
M  V30 44 H -5.089543 -2.969284 4.212734 0
M  V30 45 H -6.521241 -2.927876 2.153263 0
M  V30 46 H -3.175490 -3.999926 -0.134113 0
M  V30 END ATOM
M  V30 BEGIN BOND
M  V30 1 2 1 2
M  V30 2 1 2 3
M  V30 3 1 3 4
M  V30 4 2 4 5
M  V30 5 1 5 6
M  V30 6 2 6 7
M  V30 7 1 7 8
M  V30 8 1 8 9
M  V30 9 2 9 10
M  V30 10 1 10 11
M  V30 11 2 11 12
M  V30 12 1 12 13
M  V30 13 2 13 14
M  V30 14 1 14 15
M  V30 15 2 15 16
M  V30 16 1 16 17
M  V30 17 2 17 18
M  V30 18 1 7 19
M  V30 19 2 19 20
M  V30 20 1 2 21
M  V30 21 1 21 22
M  V30 22 2 22 23
M  V30 23 1 23 24
M  V30 24 2 24 25
M  V30 25 1 25 26
M  V30 26 1 26 27
M  V30 27 1 27 28
M  V30 28 1 27 29
M  V30 29 1 27 30
M  V30 30 2 26 31
M  V30 31 1 20 4
M  V30 32 1 31 22
M  V30 33 1 18 9
M  V30 34 1 18 13
M  V30 35 1 3 32
M  V30 36 1 5 33
M  V30 37 1 6 34
M  V30 38 1 11 35
M  V30 39 1 14 36
M  V30 40 1 15 37
M  V30 41 1 16 38
M  V30 42 1 17 39
M  V30 43 1 19 40
M  V30 44 1 20 41
M  V30 45 1 21 42
M  V30 46 1 23 43
M  V30 47 1 24 44
M  V30 48 1 25 45
M  V30 49 1 31 46
M  V30 END BOND
M  V30 END CTAB
M  END
>  <Dataset>  (735) 
ChEMBL_Kinases

>  <Ligand_Instance>  (735) 
nan

>  <PDB_ID>  (735) 
nan

>  <Standardized_SMILES>  (735) 
O=C(Nc1ccc(Oc2ncnc3ccccc23)cc1)Nc1cccc(C(F)(F)F)c1

>  <Name>  (735) 
nan

>  <Pocket>  (735) 
nan

>  <ATP_Site>  (735) 
nan

>  <Peripheral>  (735) 
nan

>  <Num_H_Atoms_ProtBoundConf>  (735) 
nan

>  <Num_Resolved_Atoms>  (735) 
nan

>  <Num_Not_Resolved_Atoms>  (735) 
nan

$$$$
CHEMBL4857751
     RDKit          3D

  0  0  0  0  0  0  0  0  0  0999 V3000
M  V30 BEGIN CTAB
M  V30 COUNTS 47 49 0 0 0
M  V30 BEGIN ATOM
M  V30 1 C -1.155622 -5.836171 3.716847 0
M  V30 2 C -1.075376 -6.018073 2.228749 0
M  V30 3 N -1.026528 -4.727703 1.535787 0
M  V30 4 C -0.229694 -3.726979 1.034999 0
M  V30 5 C -0.906726 -2.581598 0.381016 0
M  V30 6 C 0.436260 -2.018316 0.144114 0
M  V30 7 O -0.284784 -1.115720 -0.444812 0
M  V30 8 N 1.788183 -1.716523 0.063352 0
M  V30 9 C 2.096819 -0.516074 -0.629543 0
M  V30 10 C 2.341882 -0.598135 -1.993732 0
M  V30 11 C 2.640508 0.594887 -2.650385 0
M  V30 12 C 2.656341 1.725291 -1.851739 0
M  V30 13 C 2.415367 1.816708 -0.502446 0
M  V30 14 C 2.484009 3.124043 0.135368 0
M  V30 15 N 3.422892 4.065298 -0.031660 0
M  V30 16 N 3.125904 5.126603 0.733181 0
M  V30 17 C 1.973036 4.798090 1.371695 0
M  V30 18 N 1.548316 3.567410 1.026092 0
M  V30 19 C 0.387665 2.822952 1.459331 0 CFG=1
M  V30 20 C 0.649825 2.390578 2.888070 0
M  V30 21 C -0.870897 3.661734 1.423490 0
M  V30 22 F -1.154391 4.128801 0.175272 0
M  V30 23 F -0.775622 4.663548 2.375309 0
M  V30 24 F -1.952787 2.870638 1.800222 0
M  V30 25 N 2.128584 0.622792 0.088363 0
M  V30 26 C -2.131226 -3.106312 0.603465 0
M  V30 27 O -2.784456 -2.002507 -0.026273 0
M  V30 28 C -4.182975 -2.024676 -0.082111 0
M  V30 29 N -2.248078 -4.275127 1.230076 0
M  V30 30 H -0.136293 -5.959533 4.157816 0
M  V30 31 H -1.510810 -4.845387 4.043295 0
M  V30 32 H -1.804433 -6.615814 4.191098 0
M  V30 33 H -0.086185 -6.545107 2.019315 0
M  V30 34 H -1.901556 -6.652223 1.873541 0
M  V30 35 H 0.730981 -4.258712 1.369089 0
M  V30 36 H 2.026452 -2.603933 0.607874 0
M  V30 37 H 2.292879 -1.560969 -2.477018 0
M  V30 38 H 2.836440 0.574441 -3.708659 0
M  V30 39 H 2.897779 2.622855 -2.430224 0
M  V30 40 H 1.376885 5.367291 2.087353 0
M  V30 41 H 0.237209 1.974369 0.784229 0
M  V30 42 H -0.319357 2.012180 3.274236 0
M  V30 43 H 1.451353 1.645673 2.973131 0
M  V30 44 H 1.011454 3.278062 3.470705 0
M  V30 45 H -4.631127 -2.839051 0.542188 0
M  V30 46 H -4.630666 -1.050103 0.251508 0
M  V30 47 H -4.567347 -2.203770 -1.109981 0
M  V30 END ATOM
M  V30 BEGIN BOND
M  V30 1 1 1 2
M  V30 2 1 2 3
M  V30 3 1 3 4
M  V30 4 2 4 5
M  V30 5 1 5 6
M  V30 6 2 6 7
M  V30 7 1 6 8
M  V30 8 1 8 9
M  V30 9 2 9 10
M  V30 10 1 10 11
M  V30 11 2 11 12
M  V30 12 1 12 13
M  V30 13 1 13 14
M  V30 14 2 14 15
M  V30 15 1 15 16
M  V30 16 2 16 17
M  V30 17 1 17 18
M  V30 18 1 18 19
M  V30 19 1 19 20
M  V30 20 1 19 21
M  V30 21 1 21 22
M  V30 22 1 21 23
M  V30 23 1 21 24
M  V30 24 2 13 25
M  V30 25 1 5 26
M  V30 26 1 26 27
M  V30 27 1 27 28
M  V30 28 2 26 29
M  V30 29 1 29 3
M  V30 30 1 25 9
M  V30 31 1 18 14
M  V30 32 1 1 30
M  V30 33 1 1 31
M  V30 34 1 1 32
M  V30 35 1 2 33
M  V30 36 1 2 34
M  V30 37 1 4 35
M  V30 38 1 8 36
M  V30 39 1 10 37
M  V30 40 1 11 38
M  V30 41 1 12 39
M  V30 42 1 17 40
M  V30 43 1 19 41 CFG=3
M  V30 44 1 20 42
M  V30 45 1 20 43
M  V30 46 1 20 44
M  V30 47 1 28 45
M  V30 48 1 28 46
M  V30 49 1 28 47
M  V30 END BOND
M  V30 END CTAB
M  END
>  <Dataset>  (736) 
ChEMBL_Kinases

>  <Ligand_Instance>  (736) 
nan

>  <PDB_ID>  (736) 
nan

>  <Standardized_SMILES>  (736) 
CCn1cc(C(=O)Nc2cccc(-c3nncn3[C@@H](C)C(F)(F)F)n2)c(OC)n1

>  <Name>  (736) 
nan

>  <Pocket>  (736) 
nan

>  <ATP_Site>  (736) 
nan

>  <Peripheral>  (736) 
nan

>  <Num_H_Atoms_ProtBoundConf>  (736) 
nan

>  <Num_Resolved_Atoms>  (736) 
nan

>  <Num_Not_Resolved_Atoms>  (736) 
nan

$$$$
CHEMBL4857782
     RDKit          3D

  0  0  0  0  0  0  0  0  0  0999 V3000
M  V30 BEGIN CTAB
M  V30 COUNTS 60 62 0 0 0
M  V30 BEGIN ATOM
M  V30 1 C 0.292428 -2.763832 4.722359 0
M  V30 2 C -0.265521 -1.682543 3.853302 0
M  V30 3 C 0.450468 -1.499743 2.593452 0
M  V30 4 C 1.381085 -0.490418 2.474134 0
M  V30 5 C 2.108766 -0.234007 1.339468 0
M  V30 6 N 3.075077 0.786350 1.158101 0
M  V30 7 C 3.506716 1.758591 2.076706 0
M  V30 8 O 3.033802 1.812138 3.236611 0
M  V30 9 C 4.528820 2.803823 1.818157 0 CFG=2
M  V30 10 O 4.734555 3.611589 2.918111 0
M  V30 11 C 4.040001 3.615835 0.659461 0
M  V30 12 C 3.041649 4.528958 0.979925 0
M  V30 13 C 2.491728 5.352501 0.000908 0
M  V30 14 F 1.505331 6.262151 0.289648 0
M  V30 15 C 2.927137 5.278172 -1.306611 0
M  V30 16 C 3.922400 4.362686 -1.607202 0
M  V30 17 F 4.396711 4.243600 -2.891438 0
M  V30 18 C 4.482301 3.535573 -0.651737 0
M  V30 19 C 1.880812 -1.050540 0.255659 0
M  V30 20 C 0.955111 -2.066005 0.351447 0
M  V30 21 C 0.217891 -2.317703 1.517137 0
M  V30 22 C -0.692374 -3.436088 1.406060 0
M  V30 23 C -0.871484 -4.615123 2.080049 0
M  V30 24 N -1.841421 -5.489818 1.783038 0
M  V30 25 C -2.718481 -5.268578 0.788089 0
M  V30 26 N -3.721540 -6.254309 0.539175 0
M  V30 27 C -2.620708 -4.109810 0.049740 0
M  V30 28 C -3.591426 -3.910938 -1.021724 0
M  V30 29 O -4.454914 -4.807927 -1.205452 0
M  V30 30 N -3.675699 -2.809932 -1.891528 0
M  V30 31 C -4.651578 -2.663616 -2.931543 0
M  V30 32 C -4.013385 -2.455172 -4.293827 0
M  V30 33 C -5.456229 -1.399239 -2.617820 0
M  V30 34 C -1.616675 -3.219798 0.368793 0
M  V30 35 H 0.694637 -2.369820 5.687302 0
M  V30 36 H 1.147241 -3.210778 4.136153 0
M  V30 37 H -0.422168 -3.558030 4.937772 0
M  V30 38 H -0.257016 -0.744607 4.447157 0
M  V30 39 H -1.343690 -1.917268 3.699296 0
M  V30 40 H 1.534103 0.122469 3.328211 0
M  V30 41 H 3.582683 0.905118 0.255336 0
M  V30 42 H 5.518191 2.379736 1.537485 0
M  V30 43 H 5.655970 3.698777 3.214872 0
M  V30 44 H 2.606740 4.689441 1.976191 0
M  V30 45 H 2.496633 5.925853 -2.084230 0
M  V30 46 H 5.249773 2.814854 -0.831829 0
M  V30 47 H 2.430300 -0.901329 -0.687913 0
M  V30 48 H 0.830152 -2.673996 -0.557537 0
M  V30 49 H -0.145679 -4.770973 2.856222 0
M  V30 50 H -3.292002 -6.822756 -0.224118 0
M  V30 51 H -4.501827 -6.039771 1.207343 0
M  V30 52 H -2.978979 -2.043119 -1.773727 0
M  V30 53 H -5.356043 -3.489438 -3.016268 0
M  V30 54 H -4.716432 -1.827808 -4.882431 0
M  V30 55 H -3.941927 -3.436184 -4.778864 0
M  V30 56 H -3.007929 -1.998525 -4.182455 0
M  V30 57 H -6.206089 -1.586020 -1.824127 0
M  V30 58 H -4.789734 -0.575033 -2.241259 0
M  V30 59 H -5.971383 -0.986614 -3.487203 0
M  V30 60 H -1.640208 -2.335971 -0.287155 0
M  V30 END ATOM
M  V30 BEGIN BOND
M  V30 1 1 1 2
M  V30 2 1 2 3
M  V30 3 2 3 4
M  V30 4 1 4 5
M  V30 5 1 5 6
M  V30 6 1 6 7
M  V30 7 2 7 8
M  V30 8 1 7 9
M  V30 9 1 9 10
M  V30 10 1 9 11
M  V30 11 2 11 12
M  V30 12 1 12 13
M  V30 13 1 13 14
M  V30 14 2 13 15
M  V30 15 1 15 16
M  V30 16 1 16 17
M  V30 17 2 16 18
M  V30 18 2 5 19
M  V30 19 1 19 20
M  V30 20 2 20 21
M  V30 21 1 21 22
M  V30 22 2 22 23
M  V30 23 1 23 24
M  V30 24 2 24 25
M  V30 25 1 25 26
M  V30 26 1 25 27
M  V30 27 1 27 28
M  V30 28 2 28 29
M  V30 29 1 28 30
M  V30 30 1 30 31
M  V30 31 1 31 32
M  V30 32 1 31 33
M  V30 33 2 27 34
M  V30 34 1 21 3
M  V30 35 1 34 22
M  V30 36 1 18 11
M  V30 37 1 1 35
M  V30 38 1 1 36
M  V30 39 1 1 37
M  V30 40 1 2 38
M  V30 41 1 2 39
M  V30 42 1 4 40
M  V30 43 1 6 41
M  V30 44 1 9 42 CFG=3
M  V30 45 1 10 43
M  V30 46 1 12 44
M  V30 47 1 15 45
M  V30 48 1 18 46
M  V30 49 1 19 47
M  V30 50 1 20 48
M  V30 51 1 23 49
M  V30 52 1 26 50
M  V30 53 1 26 51
M  V30 54 1 30 52
M  V30 55 1 31 53
M  V30 56 1 32 54
M  V30 57 1 32 55
M  V30 58 1 32 56
M  V30 59 1 33 57
M  V30 60 1 33 58
M  V30 61 1 33 59
M  V30 62 1 34 60
M  V30 END BOND
M  V30 END CTAB
M  END
>  <Dataset>  (737) 
ChEMBL_Kinases

>  <Ligand_Instance>  (737) 
nan

>  <PDB_ID>  (737) 
nan

>  <Standardized_SMILES>  (737) 
CCc1cc(NC(=O)[C@H](O)c2cc(F)cc(F)c2)ccc1-c1cnc(N)c(C(=O)NC(C)C)c1

>  <Name>  (737) 
nan

>  <Pocket>  (737) 
nan

>  <ATP_Site>  (737) 
nan

>  <Peripheral>  (737) 
nan

>  <Num_H_Atoms_ProtBoundConf>  (737) 
nan

>  <Num_Resolved_Atoms>  (737) 
nan

>  <Num_Not_Resolved_Atoms>  (737) 
nan

$$$$
CHEMBL4857485
     RDKit          3D

  0  0  0  0  0  0  0  0  0  0999 V3000
M  V30 BEGIN CTAB
M  V30 COUNTS 50 51 0 0 0
M  V30 BEGIN ATOM
M  V30 1 C 4.819028 -4.946576 2.468650 0
M  V30 2 O 3.948958 -3.978253 2.029189 0
M  V30 3 C 2.654245 -4.388954 1.823507 0 CFG=1
M  V30 4 C 1.799404 -3.590457 2.821596 0
M  V30 5 C 2.334019 -2.173455 2.629401 0
M  V30 6 C 2.031508 -1.620954 1.277163 0 CFG=2
M  V30 7 N 0.846875 -0.778670 1.367471 0
M  V30 8 C 0.318666 -0.088774 0.240415 0
M  V30 9 N 0.885741 -0.173690 -0.968055 0
M  V30 10 C 0.399402 0.470400 -2.040519 0
M  V30 11 C -0.723026 1.231892 -1.839032 0
M  V30 12 C -1.231066 1.916975 -3.007009 0
M  V30 13 N -0.656901 1.853667 -4.304367 0
M  V30 14 O -2.159997 2.682039 -3.348353 0
M  V30 15 C -1.347247 1.359946 -0.636085 0
M  V30 16 N -2.506624 2.143487 -0.417383 0
M  V30 17 C -3.073311 2.199080 0.902981 0
M  V30 18 C -2.092840 2.759029 1.912614 0
M  V30 19 C -3.445968 0.794008 1.382694 0
M  V30 20 C -4.344638 3.010272 0.922855 0
M  V30 21 N -0.770189 0.670192 0.361313 0
M  V30 22 C 1.934309 -2.605455 0.176406 0
M  V30 23 C 2.081870 -4.036684 0.484481 0
M  V30 24 H 5.826783 -4.452420 2.586631 0
M  V30 25 H 4.568720 -5.345256 3.473762 0
M  V30 26 H 4.956417 -5.781615 1.782716 0
M  V30 27 H 2.458532 -5.451288 2.033928 0
M  V30 28 H 1.945196 -3.899660 3.853795 0
M  V30 29 H 0.760623 -3.581182 2.459858 0
M  V30 30 H 1.961728 -1.469685 3.387173 0
M  V30 31 H 3.450235 -2.245158 2.749856 0
M  V30 32 H 2.856796 -0.892790 1.050857 0
M  V30 33 H 0.348280 -0.664945 2.300183 0
M  V30 34 H 0.888702 0.378642 -3.013561 0
M  V30 35 H 0.025117 2.557236 -4.710858 0
M  V30 36 H -0.929425 1.035023 -4.924468 0
M  V30 37 H -2.962811 2.676855 -1.164725 0
M  V30 38 H -2.700278 3.107960 2.786752 0
M  V30 39 H -1.451269 1.936474 2.255055 0
M  V30 40 H -1.522039 3.622326 1.507358 0
M  V30 41 H -4.332181 0.854711 2.020838 0
M  V30 42 H -3.632046 0.149158 0.500827 0
M  V30 43 H -2.596135 0.383978 1.958665 0
M  V30 44 H -4.333678 3.870553 0.233154 0
M  V30 45 H -4.484248 3.364745 1.979377 0
M  V30 46 H -5.220901 2.392621 0.686722 0
M  V30 47 H 0.931046 -2.452953 -0.323227 0
M  V30 48 H 2.654127 -2.337501 -0.653845 0
M  V30 49 H 2.654924 -4.555256 -0.334092 0
M  V30 50 H 1.077092 -4.551075 0.446601 0
M  V30 END ATOM
M  V30 BEGIN BOND
M  V30 1 1 1 2
M  V30 2 1 2 3
M  V30 3 1 3 4
M  V30 4 1 4 5
M  V30 5 1 5 6
M  V30 6 1 6 7
M  V30 7 1 7 8
M  V30 8 2 8 9
M  V30 9 1 9 10
M  V30 10 2 10 11
M  V30 11 1 11 12
M  V30 12 1 12 13
M  V30 13 2 12 14
M  V30 14 1 11 15
M  V30 15 1 15 16
M  V30 16 1 16 17
M  V30 17 1 17 18
M  V30 18 1 17 19
M  V30 19 1 17 20
M  V30 20 2 15 21
M  V30 21 1 6 22
M  V30 22 1 22 23
M  V30 23 1 23 3
M  V30 24 1 21 8
M  V30 25 1 1 24
M  V30 26 1 1 25
M  V30 27 1 1 26
M  V30 28 1 3 27 CFG=1
M  V30 29 1 4 28
M  V30 30 1 4 29
M  V30 31 1 5 30
M  V30 32 1 5 31
M  V30 33 1 6 32 CFG=3
M  V30 34 1 7 33
M  V30 35 1 10 34
M  V30 36 1 13 35
M  V30 37 1 13 36
M  V30 38 1 16 37
M  V30 39 1 18 38
M  V30 40 1 18 39
M  V30 41 1 18 40
M  V30 42 1 19 41
M  V30 43 1 19 42
M  V30 44 1 19 43
M  V30 45 1 20 44
M  V30 46 1 20 45
M  V30 47 1 20 46
M  V30 48 1 22 47
M  V30 49 1 22 48
M  V30 50 1 23 49
M  V30 51 1 23 50
M  V30 END BOND
M  V30 END CTAB
M  END
>  <Dataset>  (738) 
ChEMBL_Kinases

>  <Ligand_Instance>  (738) 
nan

>  <PDB_ID>  (738) 
nan

>  <Standardized_SMILES>  (738) 
CO[C@H]1CC[C@H](Nc2ncc(C(N)=O)c(NC(C)(C)C)n2)CC1

>  <Name>  (738) 
nan

>  <Pocket>  (738) 
nan

>  <ATP_Site>  (738) 
nan

>  <Peripheral>  (738) 
nan

>  <Num_H_Atoms_ProtBoundConf>  (738) 
nan

>  <Num_Resolved_Atoms>  (738) 
nan

>  <Num_Not_Resolved_Atoms>  (738) 
nan

$$$$
CHEMBL4066347
     RDKit          3D

  0  0  0  0  0  0  0  0  0  0999 V3000
M  V30 BEGIN CTAB
M  V30 COUNTS 65 69 0 0 0
M  V30 BEGIN ATOM
M  V30 1 O -2.256968 4.483171 7.924404 0
M  V30 2 C -2.204847 3.372046 7.338743 0
M  V30 3 N -2.773045 2.233713 7.971845 0
M  V30 4 C -3.389773 2.398013 9.267241 0
M  V30 5 C -3.927822 1.043618 9.743370 0
M  V30 6 O -2.909401 0.094531 9.853158 0
M  V30 7 C -1.558876 3.314978 6.032864 0
M  V30 8 C -1.037916 4.478162 5.509149 0
M  V30 9 C -0.423431 4.481165 4.288363 0
M  V30 10 C -0.279992 3.349136 3.503977 0
M  V30 11 C -0.820328 2.193981 4.070024 0
M  V30 12 C -1.446390 2.153947 5.297927 0
M  V30 13 C -0.833430 0.848872 3.504269 0
M  V30 14 O -1.360074 -0.121749 4.137540 0
M  V30 15 C -0.274717 0.466524 2.209443 0
M  V30 16 C -0.798922 -0.723790 1.724634 0
M  V30 17 C -0.326623 -1.162587 0.503464 0
M  V30 18 C 0.616039 -0.516971 -0.263625 0
M  V30 19 N 1.084608 -1.015337 -1.507388 0
M  V30 20 C 1.098670 -2.334944 -2.030821 0
M  V30 21 C 1.089651 -3.468359 -1.250159 0
M  V30 22 C 1.084215 -4.773840 -1.723325 0
M  V30 23 C 1.088827 -4.902185 -3.117959 0
M  V30 24 F 1.082312 -6.158883 -3.660412 0
M  V30 25 C 1.098299 -3.784481 -3.942723 0
M  V30 26 N 1.102662 -4.023787 -5.337699 0
M  V30 27 C 1.969000 -4.214122 -6.414243 0
M  V30 28 O 3.204409 -4.165279 -6.086569 0
M  V30 29 C 1.438609 -4.440211 -7.752323 0
M  V30 30 C 0.109810 -4.490927 -8.123715 0
M  V30 31 C -0.186421 -4.720108 -9.449439 0
M  V30 32 C 0.755092 -4.906666 -10.455406 0
M  V30 33 C 2.059306 -4.845211 -10.024112 0
M  V30 34 C 2.416688 -4.618203 -8.706780 0
M  V30 35 C 1.103048 -2.546668 -3.392451 0
M  V30 36 C 1.127360 0.667488 0.234031 0
M  V30 37 C 0.671772 1.142849 1.469018 0
M  V30 38 C 1.335528 2.420756 1.831790 0
M  V30 39 C 0.413838 3.526848 2.202954 0
M  V30 40 H -2.742381 1.311171 7.510922 0
M  V30 41 H -2.705826 2.774503 10.042783 0
M  V30 42 H -4.264790 3.078075 9.232207 0
M  V30 43 H -4.647570 0.631066 8.987821 0
M  V30 44 H -4.453009 1.154304 10.704001 0
M  V30 45 H -2.071459 0.417230 9.412411 0
M  V30 46 H -1.087769 5.445726 6.034176 0
M  V30 47 H -0.013814 5.407812 3.882490 0
M  V30 48 H -1.845014 1.226323 5.681591 0
M  V30 49 H -1.540635 -1.249526 2.309475 0
M  V30 50 H -0.782843 -2.080303 0.188536 0
M  V30 51 H 1.491591 -0.290073 -2.152624 0
M  V30 52 H 1.097934 -3.411836 -0.175962 0
M  V30 53 H 1.077658 -5.635919 -1.078630 0
M  V30 54 H 0.059223 -4.036344 -5.448191 0
M  V30 55 H -0.593406 -4.346309 -7.345274 0
M  V30 56 H -1.249374 -4.752099 -9.697145 0
M  V30 57 H 0.447829 -5.082501 -11.478526 0
M  V30 58 H 2.826745 -4.989589 -10.800689 0
M  V30 59 H 3.498486 -4.597107 -8.523357 0
M  V30 60 H 1.110171 -1.688775 -4.045306 0
M  V30 61 H 1.869883 1.228555 -0.312372 0
M  V30 62 H 2.019022 2.238720 2.693272 0
M  V30 63 H 1.939802 2.778733 0.961926 0
M  V30 64 H -0.301827 3.673707 1.357567 0
M  V30 65 H 1.039542 4.451163 2.284630 0
M  V30 END ATOM
M  V30 BEGIN BOND
M  V30 1 2 1 2
M  V30 2 1 2 3
M  V30 3 1 3 4
M  V30 4 1 4 5
M  V30 5 1 5 6
M  V30 6 1 2 7
M  V30 7 2 7 8
M  V30 8 1 8 9
M  V30 9 2 9 10
M  V30 10 1 10 11
M  V30 11 2 11 12
M  V30 12 1 11 13
M  V30 13 2 13 14
M  V30 14 1 13 15
M  V30 15 2 15 16
M  V30 16 1 16 17
M  V30 17 2 17 18
M  V30 18 1 18 19
M  V30 19 1 19 20
M  V30 20 2 20 21
M  V30 21 1 21 22
M  V30 22 2 22 23
M  V30 23 1 23 24
M  V30 24 1 23 25
M  V30 25 1 25 26
M  V30 26 1 26 27
M  V30 27 2 27 28
M  V30 28 1 27 29
M  V30 29 2 29 30
M  V30 30 1 30 31
M  V30 31 2 31 32
M  V30 32 1 32 33
M  V30 33 2 33 34
M  V30 34 2 25 35
M  V30 35 1 18 36
M  V30 36 2 36 37
M  V30 37 1 37 38
M  V30 38 1 38 39
M  V30 39 1 12 7
M  V30 40 1 37 15
M  V30 41 1 39 10
M  V30 42 1 35 20
M  V30 43 1 34 29
M  V30 44 1 3 40
M  V30 45 1 4 41
M  V30 46 1 4 42
M  V30 47 1 5 43
M  V30 48 1 5 44
M  V30 49 1 6 45
M  V30 50 1 8 46
M  V30 51 1 9 47
M  V30 52 1 12 48
M  V30 53 1 16 49
M  V30 54 1 17 50
M  V30 55 1 19 51
M  V30 56 1 21 52
M  V30 57 1 22 53
M  V30 58 1 26 54
M  V30 59 1 30 55
M  V30 60 1 31 56
M  V30 61 1 32 57
M  V30 62 1 33 58
M  V30 63 1 34 59
M  V30 64 1 35 60
M  V30 65 1 36 61
M  V30 66 1 38 62
M  V30 67 1 38 63
M  V30 68 1 39 64
M  V30 69 1 39 65
M  V30 END BOND
M  V30 END CTAB
M  END
>  <Dataset>  (739) 
ChEMBL_Kinases

>  <Ligand_Instance>  (739) 
nan

>  <PDB_ID>  (739) 
nan

>  <Standardized_SMILES>  (739) 
O=C(NCCO)c1ccc2c(c1)C(=O)c1ccc(Nc3ccc(F)c(NC(=O)c4ccccc4)c3)cc1CC2

>  <Name>  (739) 
nan

>  <Pocket>  (739) 
nan

>  <ATP_Site>  (739) 
nan

>  <Peripheral>  (739) 
nan

>  <Num_H_Atoms_ProtBoundConf>  (739) 
nan

>  <Num_Resolved_Atoms>  (739) 
nan

>  <Num_Not_Resolved_Atoms>  (739) 
nan

$$$$
CHEMBL4066327
     RDKit          3D

  0  0  0  0  0  0  0  0  0  0999 V3000
M  V30 BEGIN CTAB
M  V30 COUNTS 66 70 0 0 0
M  V30 BEGIN ATOM
M  V30 1 O 6.153994 1.199192 -0.238656 0
M  V30 2 C 5.437526 0.673717 0.663117 0
M  V30 3 N 6.091367 -0.043471 1.678392 0
M  V30 4 C 7.491080 -0.287326 1.865195 0
M  V30 5 C 8.352577 0.915675 2.039157 0
M  V30 6 O 8.356614 1.811725 1.000518 0
M  V30 7 C 9.768380 0.382453 2.318150 0
M  V30 8 O 9.660171 -0.509257 3.376309 0
M  V30 9 C 4.000795 0.874753 0.543268 0
M  V30 10 C 3.532909 1.613289 -0.516196 0
M  V30 11 C 2.183537 1.861047 -0.733173 0
M  V30 12 C 1.267075 1.342164 0.155675 0
M  V30 13 C 1.691778 0.591944 1.237878 0
M  V30 14 C 3.048496 0.376938 1.404585 0
M  V30 15 C 0.955599 -0.071481 2.323197 0
M  V30 16 O 1.556591 -0.489713 3.332184 0
M  V30 17 C -0.489407 -0.260566 2.257869 0
M  V30 18 C -1.018756 -0.666386 3.469961 0
M  V30 19 C -2.354798 -0.920202 3.691854 0
M  V30 20 C -3.250995 -0.763985 2.637352 0
M  V30 21 N -4.631235 -0.973063 2.742149 0
M  V30 22 C -5.666055 -1.289714 1.837815 0
M  V30 23 C -6.987486 -0.993861 2.094013 0
M  V30 24 C -7.963626 -1.334783 1.192786 0
M  V30 25 C -7.678378 -1.975770 0.013175 0
M  V30 26 F -8.669351 -2.299916 -0.861374 0
M  V30 27 C -6.380779 -2.305449 -0.314036 0
M  V30 28 N -6.009257 -2.968872 -1.511192 0
M  V30 29 C -5.632349 -2.546172 -2.813602 0
M  V30 30 O -5.654303 -1.269343 -2.846382 0
M  V30 31 C -5.310823 -3.595008 -3.807320 0
M  V30 32 C -4.145378 -3.229254 -4.709657 0
M  V30 33 C -5.534340 -3.328773 -5.261491 0
M  V30 34 C -5.420516 -1.941980 0.627394 0
M  V30 35 C -2.745589 -0.360494 1.422370 0
M  V30 36 C -1.407107 -0.109438 1.211540 0
M  V30 37 C -0.978845 0.323824 -0.134885 0
M  V30 38 C -0.179089 1.606883 -0.089104 0
M  V30 39 H 5.379144 -0.430982 2.369653 0
M  V30 40 H 7.919067 -0.933834 1.046269 0
M  V30 41 H 7.605708 -0.900071 2.797694 0
M  V30 42 H 8.106380 1.493191 2.966741 0
M  V30 43 H 8.853173 1.470218 0.191308 0
M  V30 44 H 10.031746 -0.202219 1.411768 0
M  V30 45 H 10.485199 1.202481 2.514467 0
M  V30 46 H 9.906147 -1.419296 3.096760 0
M  V30 47 H 4.156709 2.070543 -1.279359 0
M  V30 48 H 1.768323 2.431050 -1.544274 0
M  V30 49 H 3.375290 -0.206764 2.248222 0
M  V30 50 H -0.350833 -0.798872 4.312842 0
M  V30 51 H -2.749489 -1.237460 4.649114 0
M  V30 52 H -4.968211 -0.865784 3.747348 0
M  V30 53 H -7.250936 -0.483444 3.027403 0
M  V30 54 H -8.987541 -1.062870 1.474371 0
M  V30 55 H -6.072442 -3.987110 -1.214298 0
M  V30 56 H -5.383826 -4.654873 -3.489522 0
M  V30 57 H -3.451177 -4.083334 -4.945007 0
M  V30 58 H -3.663779 -2.245897 -4.616040 0
M  V30 59 H -6.100150 -2.418919 -5.535906 0
M  V30 60 H -5.746930 -4.211856 -5.932282 0
M  V30 61 H -4.403925 -2.226562 0.343062 0
M  V30 62 H -3.277443 -0.178981 0.503574 0
M  V30 63 H -0.297955 -0.450497 -0.520766 0
M  V30 64 H -1.838106 0.383173 -0.831057 0
M  V30 65 H -0.536995 2.147014 0.811047 0
M  V30 66 H -0.390390 2.188330 -0.984731 0
M  V30 END ATOM
M  V30 BEGIN BOND
M  V30 1 2 1 2
M  V30 2 1 2 3
M  V30 3 1 3 4
M  V30 4 1 4 5
M  V30 5 1 5 6
M  V30 6 1 5 7
M  V30 7 1 7 8
M  V30 8 1 2 9
M  V30 9 2 9 10
M  V30 10 1 10 11
M  V30 11 2 11 12
M  V30 12 1 12 13
M  V30 13 2 13 14
M  V30 14 1 13 15
M  V30 15 2 15 16
M  V30 16 1 15 17
M  V30 17 2 17 18
M  V30 18 1 18 19
M  V30 19 2 19 20
M  V30 20 1 20 21
M  V30 21 1 21 22
M  V30 22 2 22 23
M  V30 23 1 23 24
M  V30 24 2 24 25
M  V30 25 1 25 26
M  V30 26 1 25 27
M  V30 27 1 27 28
M  V30 28 1 28 29
M  V30 29 2 29 30
M  V30 30 1 29 31
M  V30 31 1 31 32
M  V30 32 1 32 33
M  V30 33 2 27 34
M  V30 34 1 20 35
M  V30 35 2 35 36
M  V30 36 1 36 37
M  V30 37 1 37 38
M  V30 38 1 14 9
M  V30 39 1 36 17
M  V30 40 1 38 12
M  V30 41 1 34 22
M  V30 42 1 33 31
M  V30 43 1 3 39
M  V30 44 1 4 40
M  V30 45 1 4 41
M  V30 46 1 5 42
M  V30 47 1 6 43
M  V30 48 1 7 44
M  V30 49 1 7 45
M  V30 50 1 8 46
M  V30 51 1 10 47
M  V30 52 1 11 48
M  V30 53 1 14 49
M  V30 54 1 18 50
M  V30 55 1 19 51
M  V30 56 1 21 52
M  V30 57 1 23 53
M  V30 58 1 24 54
M  V30 59 1 28 55
M  V30 60 1 31 56
M  V30 61 1 32 57
M  V30 62 1 32 58
M  V30 63 1 33 59
M  V30 64 1 33 60
M  V30 65 1 34 61
M  V30 66 1 35 62
M  V30 67 1 37 63
M  V30 68 1 37 64
M  V30 69 1 38 65
M  V30 70 1 38 66
M  V30 END BOND
M  V30 END CTAB
M  END
>  <Dataset>  (740) 
ChEMBL_Kinases

>  <Ligand_Instance>  (740) 
nan

>  <PDB_ID>  (740) 
nan

>  <Standardized_SMILES>  (740) 
O=C(NCC(O)CO)c1ccc2c(c1)C(=O)c1ccc(Nc3ccc(F)c(NC(=O)C4CC4)c3)cc1CC2

>  <Name>  (740) 
nan

>  <Pocket>  (740) 
nan

>  <ATP_Site>  (740) 
nan

>  <Peripheral>  (740) 
nan

>  <Num_H_Atoms_ProtBoundConf>  (740) 
nan

>  <Num_Resolved_Atoms>  (740) 
nan

>  <Num_Not_Resolved_Atoms>  (740) 
nan

$$$$
CHEMBL4066269
     RDKit          3D

  0  0  0  0  0  0  0  0  0  0999 V3000
M  V30 BEGIN CTAB
M  V30 COUNTS 66 70 0 0 0
M  V30 BEGIN ATOM
M  V30 1 O 5.945357 2.639552 3.155746 0
M  V30 2 C 4.932492 1.958568 3.095840 0
M  V30 3 N 4.628151 0.840677 3.969443 0
M  V30 4 C 5.558952 0.458150 5.015932 0
M  V30 5 C 5.059359 -0.712804 5.814076 0
M  V30 6 O 5.978272 -1.029102 6.814128 0
M  V30 7 C 4.776449 -1.929687 4.956249 0
M  V30 8 O 4.225427 -2.965536 5.733079 0
M  V30 9 C 3.904609 2.279546 2.054937 0
M  V30 10 C 4.130866 3.542092 1.438212 0
M  V30 11 C 3.132577 3.741646 0.520646 0
M  V30 12 C 2.052099 3.083295 0.073820 0
M  V30 13 C 1.959260 1.864393 0.768329 0
M  V30 14 C 2.843367 1.417179 1.752342 0
M  V30 15 C 0.918254 0.823854 0.585782 0
M  V30 16 O 1.062088 -0.286278 1.185514 0
M  V30 17 C -0.271862 0.972363 -0.236543 0
M  V30 18 C -0.892113 -0.225186 -0.482293 0
M  V30 19 C -2.063526 -0.260460 -1.243654 0
M  V30 20 C -2.698822 0.861905 -1.807607 0
M  V30 21 N -3.878781 0.613398 -2.505179 0
M  V30 22 C -3.836549 -0.693040 -3.151260 0
M  V30 23 C -4.715297 -1.628648 -2.609224 0
M  V30 24 C -4.611161 -2.824762 -3.265007 0
M  V30 25 N -5.496955 -3.838520 -2.692628 0
M  V30 26 C -4.668018 -4.441372 -1.704774 0
M  V30 27 O -3.531356 -3.975135 -1.643015 0
M  V30 28 C -5.138555 -5.565649 -0.798562 0
M  V30 29 C -4.333692 -6.137214 0.141945 0
M  V30 30 C -5.010385 -7.095319 0.773404 0
M  V30 31 C -6.370207 -7.498768 0.535579 0
M  V30 32 S -6.730503 -6.241838 -0.878866 0
M  V30 33 C -3.841715 -3.241702 -4.293659 0
M  V30 34 F -3.785797 -4.428422 -4.885741 0
M  V30 35 C -3.072588 -2.177570 -4.663806 0
M  V30 36 C -2.914953 -0.868751 -4.248178 0
M  V30 37 F -2.123131 0.130687 -4.652263 0
M  V30 38 C -1.993844 1.991417 -1.492611 0
M  V30 39 C -0.855738 2.149465 -0.768980 0
M  V30 40 C -0.323108 3.497176 -0.632074 0
M  V30 41 C 1.157872 3.615550 -0.944412 0
M  V30 42 H 3.774504 0.258144 3.919172 0
M  V30 43 H 6.539836 0.246931 4.540613 0
M  V30 44 H 5.631069 1.337943 5.695004 0
M  V30 45 H 4.105266 -0.461379 6.338190 0
M  V30 46 H 6.871158 -1.125832 6.377329 0
M  V30 47 H 4.090970 -1.735182 4.137917 0
M  V30 48 H 5.750155 -2.337546 4.558127 0
M  V30 49 H 4.172098 -2.679689 6.672771 0
M  V30 50 H 4.930879 4.205726 1.649023 0
M  V30 51 H 3.259023 4.722557 0.010142 0
M  V30 52 H 2.760720 0.503016 2.259194 0
M  V30 53 H -0.476076 -1.139090 -0.097500 0
M  V30 54 H -2.467210 -1.269382 -1.371791 0
M  V30 55 H -4.626451 1.358593 -2.482153 0
M  V30 56 H -5.366412 -1.373019 -1.811219 0
M  V30 57 H -6.464760 -4.175040 -2.831928 0
M  V30 58 H -3.319860 -5.807410 0.296696 0
M  V30 59 H -4.437396 -7.624402 1.568359 0
M  V30 60 H -6.763626 -8.360063 1.199610 0
M  V30 61 H -2.378746 -2.348905 -5.517854 0
M  V30 62 H -2.454648 2.890836 -1.898523 0
M  V30 63 H -0.846937 4.133532 -1.401376 0
M  V30 64 H -0.538600 3.935754 0.360185 0
M  V30 65 H 1.369301 4.688295 -1.078256 0
M  V30 66 H 1.335728 3.166158 -1.959164 0
M  V30 END ATOM
M  V30 BEGIN BOND
M  V30 1 2 1 2
M  V30 2 1 2 3
M  V30 3 1 3 4
M  V30 4 1 4 5
M  V30 5 1 5 6
M  V30 6 1 5 7
M  V30 7 1 7 8
M  V30 8 1 2 9
M  V30 9 2 9 10
M  V30 10 1 10 11
M  V30 11 2 11 12
M  V30 12 1 12 13
M  V30 13 2 13 14
M  V30 14 1 13 15
M  V30 15 2 15 16
M  V30 16 1 15 17
M  V30 17 2 17 18
M  V30 18 1 18 19
M  V30 19 2 19 20
M  V30 20 1 20 21
M  V30 21 1 21 22
M  V30 22 2 22 23
M  V30 23 1 23 24
M  V30 24 1 24 25
M  V30 25 1 25 26
M  V30 26 2 26 27
M  V30 27 1 26 28
M  V30 28 2 28 29
M  V30 29 1 29 30
M  V30 30 2 30 31
M  V30 31 1 31 32
M  V30 32 2 24 33
M  V30 33 1 33 34
M  V30 34 1 33 35
M  V30 35 2 35 36
M  V30 36 1 36 37
M  V30 37 1 20 38
M  V30 38 2 38 39
M  V30 39 1 39 40
M  V30 40 1 40 41
M  V30 41 1 14 9
M  V30 42 1 39 17
M  V30 43 1 41 12
M  V30 44 1 36 22
M  V30 45 1 32 28
M  V30 46 1 3 42
M  V30 47 1 4 43
M  V30 48 1 4 44
M  V30 49 1 5 45
M  V30 50 1 6 46
M  V30 51 1 7 47
M  V30 52 1 7 48
M  V30 53 1 8 49
M  V30 54 1 10 50
M  V30 55 1 11 51
M  V30 56 1 14 52
M  V30 57 1 18 53
M  V30 58 1 19 54
M  V30 59 1 21 55
M  V30 60 1 23 56
M  V30 61 1 25 57
M  V30 62 1 29 58
M  V30 63 1 30 59
M  V30 64 1 31 60
M  V30 65 1 35 61
M  V30 66 1 38 62
M  V30 67 1 40 63
M  V30 68 1 40 64
M  V30 69 1 41 65
M  V30 70 1 41 66
M  V30 END BOND
M  V30 END CTAB
M  END
>  <Dataset>  (741) 
ChEMBL_Kinases

>  <Ligand_Instance>  (741) 
nan

>  <PDB_ID>  (741) 
nan

>  <Standardized_SMILES>  (741) 
O=C(NCC(O)CO)c1ccc2c(c1)C(=O)c1ccc(Nc3cc(NC(=O)c4cccs4)c(F)cc3F)cc1CC2

>  <Name>  (741) 
nan

>  <Pocket>  (741) 
nan

>  <ATP_Site>  (741) 
nan

>  <Peripheral>  (741) 
nan

>  <Num_H_Atoms_ProtBoundConf>  (741) 
nan

>  <Num_Resolved_Atoms>  (741) 
nan

>  <Num_Not_Resolved_Atoms>  (741) 
nan

$$$$
CHEMBL4066257
     RDKit          3D

  0  0  0  0  0  0  0  0  0  0999 V3000
M  V30 BEGIN CTAB
M  V30 COUNTS 57 60 0 0 0
M  V30 BEGIN ATOM
M  V30 1 C 2.481004 -3.872754 4.516427 0
M  V30 2 N 3.114051 -3.043993 3.507990 0
M  V30 3 C 3.408722 -1.773280 3.837061 0
M  V30 4 C 4.007701 -1.157727 2.731013 0
M  V30 5 C 4.633519 0.084534 2.308056 0
M  V30 6 C 5.825286 0.341066 2.950080 0
M  V30 7 C 6.535171 1.451316 2.543913 0
M  V30 8 N 7.773465 1.789877 3.152045 0
M  V30 9 N 6.035273 2.200869 1.568499 0
M  V30 10 C 4.873764 1.944698 0.949878 0
M  V30 11 C 4.103128 0.846596 1.305250 0
M  V30 12 C 2.825204 0.704353 0.656643 0
M  V30 13 C 1.743860 -0.010595 0.847727 0
M  V30 14 C 0.528743 -0.035014 0.086330 0
M  V30 15 O -0.424778 -0.786891 0.406499 0
M  V30 16 N 0.254066 0.741716 -1.065431 0
M  V30 17 C -1.064246 0.456529 -1.567829 0
M  V30 18 C -2.115692 1.210905 -1.086719 0
M  V30 19 C -3.377511 0.931307 -1.572946 0
M  V30 20 C -3.670430 -0.044539 -2.503493 0
M  V30 21 C -5.025948 -0.301880 -2.986277 0
M  V30 22 N -5.790205 -1.255890 -2.261009 0
M  V30 23 C -6.032389 -0.978755 -0.886186 0
M  V30 24 C -5.153659 -1.772314 0.066466 0
M  V30 25 O -5.218174 -3.126755 -0.166030 0
M  V30 26 C -5.924064 -3.446737 -1.321901 0
M  V30 27 C -5.485127 -2.629870 -2.505210 0
M  V30 28 C -2.566145 -0.753528 -2.934124 0
M  V30 29 C -1.274335 -0.538202 -2.499976 0
M  V30 30 C 4.044165 -2.151227 1.733541 0
M  V30 31 N 3.487037 -3.279597 2.260802 0
M  V30 32 H 1.400906 -3.580280 4.585438 0
M  V30 33 H 2.592635 -4.947189 4.264213 0
M  V30 34 H 2.908207 -3.700604 5.525749 0
M  V30 35 H 3.326633 -1.093484 4.677919 0
M  V30 36 H 6.231652 -0.254002 3.731225 0
M  V30 37 H 8.431102 2.461704 2.711401 0
M  V30 38 H 8.099513 1.396065 4.061857 0
M  V30 39 H 4.598191 2.652127 0.169139 0
M  V30 40 H 2.642802 1.315782 -0.237289 0
M  V30 41 H 1.804199 -0.631589 1.722848 0
M  V30 42 H 0.992439 1.405075 -1.414746 0
M  V30 43 H -1.935098 1.987371 -0.356058 0
M  V30 44 H -4.156365 1.555564 -1.158309 0
M  V30 45 H -4.951032 -0.654608 -4.034854 0
M  V30 46 H -5.614730 0.636577 -3.025660 0
M  V30 47 H -5.951163 0.068260 -0.597362 0
M  V30 48 H -7.087706 -1.315211 -0.664438 0
M  V30 49 H -4.137450 -1.350203 0.083940 0
M  V30 50 H -5.585036 -1.605351 1.089067 0
M  V30 51 H -7.001835 -3.305337 -1.099781 0
M  V30 52 H -5.807068 -4.524997 -1.543981 0
M  V30 53 H -6.124743 -2.950074 -3.362786 0
M  V30 54 H -4.424714 -2.840588 -2.674639 0
M  V30 55 H -2.668361 -1.541376 -3.660878 0
M  V30 56 H -0.436083 -1.124049 -2.869569 0
M  V30 57 H 4.363663 -2.317558 0.697552 0
M  V30 END ATOM
M  V30 BEGIN BOND
M  V30 1 1 1 2
M  V30 2 1 2 3
M  V30 3 2 3 4
M  V30 4 1 4 5
M  V30 5 2 5 6
M  V30 6 1 6 7
M  V30 7 1 7 8
M  V30 8 2 7 9
M  V30 9 1 9 10
M  V30 10 2 10 11
M  V30 11 1 11 12
M  V30 12 2 12 13
M  V30 13 1 13 14
M  V30 14 2 14 15
M  V30 15 1 14 16
M  V30 16 1 16 17
M  V30 17 2 17 18
M  V30 18 1 18 19
M  V30 19 2 19 20
M  V30 20 1 20 21
M  V30 21 1 21 22
M  V30 22 1 22 23
M  V30 23 1 23 24
M  V30 24 1 24 25
M  V30 25 1 25 26
M  V30 26 1 26 27
M  V30 27 1 20 28
M  V30 28 2 28 29
M  V30 29 1 4 30
M  V30 30 2 30 31
M  V30 31 1 31 2
M  V30 32 1 11 5
M  V30 33 1 29 17
M  V30 34 1 27 22
M  V30 35 1 1 32
M  V30 36 1 1 33
M  V30 37 1 1 34
M  V30 38 1 3 35
M  V30 39 1 6 36
M  V30 40 1 8 37
M  V30 41 1 8 38
M  V30 42 1 10 39
M  V30 43 1 12 40
M  V30 44 1 13 41
M  V30 45 1 16 42
M  V30 46 1 18 43
M  V30 47 1 19 44
M  V30 48 1 21 45
M  V30 49 1 21 46
M  V30 50 1 23 47
M  V30 51 1 23 48
M  V30 52 1 24 49
M  V30 53 1 24 50
M  V30 54 1 26 51
M  V30 55 1 26 52
M  V30 56 1 27 53
M  V30 57 1 27 54
M  V30 58 1 28 55
M  V30 59 1 29 56
M  V30 60 1 30 57
M  V30 END BOND
M  V30 END CTAB
M  END
>  <Dataset>  (742) 
ChEMBL_Kinases

>  <Ligand_Instance>  (742) 
nan

>  <PDB_ID>  (742) 
nan

>  <Standardized_SMILES>  (742) 
Cn1cc(-c2cc(N)ncc2/C=C/C(=O)Nc2ccc(CN3CCOCC3)cc2)cn1

>  <Name>  (742) 
nan

>  <Pocket>  (742) 
nan

>  <ATP_Site>  (742) 
nan

>  <Peripheral>  (742) 
nan

>  <Num_H_Atoms_ProtBoundConf>  (742) 
nan

>  <Num_Resolved_Atoms>  (742) 
nan

>  <Num_Not_Resolved_Atoms>  (742) 
nan

$$$$
CHEMBL4066219
     RDKit          3D

  0  0  0  0  0  0  0  0  0  0999 V3000
M  V30 BEGIN CTAB
M  V30 COUNTS 61 63 0 0 0
M  V30 BEGIN ATOM
M  V30 1 C 0.010897 -0.554794 7.668671 0
M  V30 2 C 1.436281 -0.669142 7.192595 0
M  V30 3 C 1.850953 0.511490 6.333002 0
M  V30 4 C 3.292358 0.306142 5.887562 0
M  V30 5 C 3.414654 -0.971581 5.081779 0
M  V30 6 C 2.568453 -0.970473 3.852582 0
M  V30 7 C 3.005457 0.154553 2.953338 0
M  V30 8 C 2.171236 0.220870 1.716113 0
M  V30 9 O 1.128270 -0.507567 1.533836 0
M  V30 10 N 2.364189 1.051978 0.572562 0
M  V30 11 N 1.409248 0.896333 -0.445713 0
M  V30 12 C 1.458177 -0.115529 -1.507171 0
M  V30 13 O 2.500312 -0.450512 -0.933307 0
M  V30 14 C 0.279501 0.122090 -2.303817 0
M  V30 15 C -0.530379 1.198188 -2.459001 0
M  V30 16 O -0.248624 2.368149 -1.835153 0
M  V30 17 C -1.611362 1.014594 -3.268467 0
M  V30 18 C -2.424216 2.147760 -3.416723 0
M  V30 19 C -3.513605 1.985440 -4.237395 0
M  V30 20 C -3.872874 0.854435 -4.905996 0
M  V30 21 Cl -5.263136 0.704701 -5.927082 0
M  V30 22 C -2.993047 -0.209960 -4.686207 0
M  V30 23 C -1.873138 -0.180974 -3.892084 0
M  V30 24 N -1.083093 -1.272108 -3.754884 0
M  V30 25 C -1.420829 -2.544364 -4.408305 0
M  V30 26 C -2.205107 -3.442582 -3.523997 0
M  V30 27 C -1.561360 -4.462440 -2.807051 0
M  V30 28 C -2.163881 -5.359339 -1.951867 0
M  V30 29 C -3.513982 -5.261301 -1.772312 0
M  V30 30 C -4.222511 -4.286184 -2.439724 0
M  V30 31 C -3.548419 -3.428607 -3.276827 0
M  V30 32 C 0.001887 -1.090680 -2.945889 0
M  V30 33 O 0.677237 -2.177498 -2.890771 0
M  V30 34 H -0.601855 -1.416753 7.299505 0
M  V30 35 H 0.002601 -0.594370 8.770696 0
M  V30 36 H -0.474450 0.371008 7.328976 0
M  V30 37 H 1.513792 -1.593768 6.611328 0
M  V30 38 H 2.164460 -0.765321 8.029375 0
M  V30 39 H 1.844380 1.396706 6.999222 0
M  V30 40 H 1.168341 0.659545 5.496971 0
M  V30 41 H 3.680128 1.174955 5.373041 0
M  V30 42 H 3.881360 0.163991 6.826031 0
M  V30 43 H 3.290849 -1.871157 5.700092 0
M  V30 44 H 4.490337 -0.995145 4.744884 0
M  V30 45 H 1.489407 -0.906054 4.046908 0
M  V30 46 H 2.735086 -1.969186 3.345490 0
M  V30 47 H 4.029198 -0.119351 2.599586 0
M  V30 48 H 3.092356 1.108262 3.459101 0
M  V30 49 H 3.217949 1.688530 0.639086 0
M  V30 50 H 0.837695 1.724993 -0.034897 0
M  V30 51 H 0.513214 2.990668 -2.022797 0
M  V30 52 H -2.205499 3.082095 -2.917463 0
M  V30 53 H -4.164622 2.863831 -4.369709 0
M  V30 54 H -3.280490 -1.117458 -5.240307 0
M  V30 55 H -1.793361 -2.441612 -5.421248 0
M  V30 56 H -0.418149 -3.065877 -4.546009 0
M  V30 57 H -0.475788 -4.632137 -2.885872 0
M  V30 58 H -1.627688 -6.131781 -1.420215 0
M  V30 59 H -4.018509 -5.947897 -1.109317 0
M  V30 60 H -5.279873 -4.206636 -2.299181 0
M  V30 61 H -4.158231 -2.691781 -3.770142 0
M  V30 END ATOM
M  V30 BEGIN BOND
M  V30 1 1 1 2
M  V30 2 1 2 3
M  V30 3 1 3 4
M  V30 4 1 4 5
M  V30 5 1 5 6
M  V30 6 1 6 7
M  V30 7 1 7 8
M  V30 8 2 8 9
M  V30 9 1 8 10
M  V30 10 1 10 11
M  V30 11 1 11 12
M  V30 12 2 12 13
M  V30 13 1 12 14
M  V30 14 2 14 15
M  V30 15 1 15 16
M  V30 16 1 15 17
M  V30 17 2 17 18
M  V30 18 1 18 19
M  V30 19 2 19 20
M  V30 20 1 20 21
M  V30 21 1 20 22
M  V30 22 2 22 23
M  V30 23 1 23 24
M  V30 24 1 24 25
M  V30 25 1 25 26
M  V30 26 2 26 27
M  V30 27 1 27 28
M  V30 28 2 28 29
M  V30 29 1 29 30
M  V30 30 2 30 31
M  V30 31 1 24 32
M  V30 32 2 32 33
M  V30 33 1 32 14
M  V30 34 1 23 17
M  V30 35 1 31 26
M  V30 36 1 1 34
M  V30 37 1 1 35
M  V30 38 1 1 36
M  V30 39 1 2 37
M  V30 40 1 2 38
M  V30 41 1 3 39
M  V30 42 1 3 40
M  V30 43 1 4 41
M  V30 44 1 4 42
M  V30 45 1 5 43
M  V30 46 1 5 44
M  V30 47 1 6 45
M  V30 48 1 6 46
M  V30 49 1 7 47
M  V30 50 1 7 48
M  V30 51 1 10 49
M  V30 52 1 11 50
M  V30 53 1 16 51
M  V30 54 1 18 52
M  V30 55 1 19 53
M  V30 56 1 22 54
M  V30 57 1 25 55
M  V30 58 1 25 56
M  V30 59 1 27 57
M  V30 60 1 28 58
M  V30 61 1 29 59
M  V30 62 1 30 60
M  V30 63 1 31 61
M  V30 END BOND
M  V30 END CTAB
M  END
>  <Dataset>  (743) 
ChEMBL_Kinases

>  <Ligand_Instance>  (743) 
nan

>  <PDB_ID>  (743) 
nan

>  <Standardized_SMILES>  (743) 
CCCCCCCC(=O)NNC(=O)c1c(O)c2ccc(Cl)cc2n(Cc2ccccc2)c1=O

>  <Name>  (743) 
nan

>  <Pocket>  (743) 
nan

>  <ATP_Site>  (743) 
nan

>  <Peripheral>  (743) 
nan

>  <Num_H_Atoms_ProtBoundConf>  (743) 
nan

>  <Num_Resolved_Atoms>  (743) 
nan

>  <Num_Not_Resolved_Atoms>  (743) 
nan

$$$$
CHEMBL4066208
     RDKit          3D

  0  0  0  0  0  0  0  0  0  0999 V3000
M  V30 BEGIN CTAB
M  V30 COUNTS 53 54 0 0 0
M  V30 BEGIN ATOM
M  V30 1 C 2.996865 -3.766576 3.973844 0
M  V30 2 C 2.862691 -2.309820 4.282326 0
M  V30 3 C 1.711493 -2.168826 5.297241 0
M  V30 4 C 2.627724 -1.383916 3.137000 0
M  V30 5 C 3.646982 -1.300890 2.076547 0 CFG=2
M  V30 6 C 3.887230 -2.588605 1.325895 0
M  V30 7 N 4.955476 -1.020899 2.744570 0
M  V30 8 C 3.510141 -0.187788 1.085041 0
M  V30 9 O 2.429293 -0.105327 0.288377 0
M  V30 10 C 1.104304 0.072176 0.349005 0
M  V30 11 C 0.135196 0.285526 1.298670 0
M  V30 12 C -1.211951 0.442307 1.083494 0
M  V30 13 C -1.612454 0.376108 -0.230434 0
M  V30 14 C -3.034099 0.536913 -0.510828 0
M  V30 15 C -4.018302 0.750068 0.427007 0
M  V30 16 C -5.349060 0.894245 0.095226 0
M  V30 17 N -5.733143 0.828630 -1.191023 0
M  V30 18 C -4.779610 0.620654 -2.115794 0
M  V30 19 C -5.052531 0.525478 -3.576210 0
M  V30 20 C -4.685272 -0.823855 -4.152635 0
M  V30 21 C -4.261437 1.650932 -4.239992 0
M  V30 22 N -3.485261 0.481971 -1.776692 0
M  V30 23 C -0.740080 0.167365 -1.278561 0
M  V30 24 C 0.625491 0.015637 -0.975718 0
M  V30 25 F 1.342368 -0.183046 -2.136671 0
M  V30 26 H 4.059215 -4.115524 4.012435 0
M  V30 27 H 2.584301 -4.072536 2.997647 0
M  V30 28 H 2.489297 -4.388568 4.790940 0
M  V30 29 H 3.770832 -2.013071 4.882180 0
M  V30 30 H 0.756865 -1.906005 4.792887 0
M  V30 31 H 1.935121 -1.372197 6.013145 0
M  V30 32 H 1.597547 -3.116948 5.869730 0
M  V30 33 H 1.615194 -1.719104 2.716527 0
M  V30 34 H 2.434488 -0.370913 3.598040 0
M  V30 35 H 4.478452 -2.269475 0.406944 0
M  V30 36 H 2.936791 -3.005155 0.954608 0
M  V30 37 H 4.526158 -3.285328 1.890514 0
M  V30 38 H 5.121226 0.005691 2.809509 0
M  V30 39 H 5.715672 -1.580829 2.350931 0
M  V30 40 H 4.478642 -0.214568 0.485796 0
M  V30 41 H 3.656141 0.786399 1.673516 0
M  V30 42 H 0.549441 0.337054 2.281689 0
M  V30 43 H -1.814481 0.600135 1.957860 0
M  V30 44 H -3.746997 0.807802 1.468014 0
M  V30 45 H -6.070076 1.059079 0.876526 0
M  V30 46 H -6.146907 0.655388 -3.738063 0
M  V30 47 H -5.529861 -1.536594 -4.043102 0
M  V30 48 H -4.538624 -0.717988 -5.248289 0
M  V30 49 H -3.800265 -1.258953 -3.663932 0
M  V30 50 H -3.224399 1.298523 -4.340201 0
M  V30 51 H -4.249321 2.499607 -3.521518 0
M  V30 52 H -4.701876 1.937433 -5.216225 0
M  V30 53 H -1.168566 0.134200 -2.270188 0
M  V30 END ATOM
M  V30 BEGIN BOND
M  V30 1 1 1 2
M  V30 2 1 2 3
M  V30 3 1 2 4
M  V30 4 1 4 5
M  V30 5 1 5 6
M  V30 6 1 5 7 CFG=1
M  V30 7 1 5 8
M  V30 8 1 8 9
M  V30 9 1 9 10
M  V30 10 2 10 11
M  V30 11 1 11 12
M  V30 12 2 12 13
M  V30 13 1 13 14
M  V30 14 2 14 15
M  V30 15 1 15 16
M  V30 16 2 16 17
M  V30 17 1 17 18
M  V30 18 1 18 19
M  V30 19 1 19 20
M  V30 20 1 19 21
M  V30 21 2 18 22
M  V30 22 1 13 23
M  V30 23 2 23 24
M  V30 24 1 24 25
M  V30 25 1 24 10
M  V30 26 1 22 14
M  V30 27 1 1 26
M  V30 28 1 1 27
M  V30 29 1 1 28
M  V30 30 1 2 29
M  V30 31 1 3 30
M  V30 32 1 3 31
M  V30 33 1 3 32
M  V30 34 1 4 33
M  V30 35 1 4 34
M  V30 36 1 6 35
M  V30 37 1 6 36
M  V30 38 1 6 37
M  V30 39 1 7 38
M  V30 40 1 7 39
M  V30 41 1 8 40
M  V30 42 1 8 41
M  V30 43 1 11 42
M  V30 44 1 12 43
M  V30 45 1 15 44
M  V30 46 1 16 45
M  V30 47 1 19 46
M  V30 48 1 20 47
M  V30 49 1 20 48
M  V30 50 1 20 49
M  V30 51 1 21 50
M  V30 52 1 21 51
M  V30 53 1 21 52
M  V30 54 1 23 53
M  V30 END BOND
M  V30 END CTAB
M  END
>  <Dataset>  (744) 
ChEMBL_Kinases

>  <Ligand_Instance>  (744) 
nan

>  <PDB_ID>  (744) 
nan

>  <Standardized_SMILES>  (744) 
CC(C)C[C@](C)(N)COc1ccc(-c2ccnc(C(C)C)n2)cc1F

>  <Name>  (744) 
nan

>  <Pocket>  (744) 
nan

>  <ATP_Site>  (744) 
nan

>  <Peripheral>  (744) 
nan

>  <Num_H_Atoms_ProtBoundConf>  (744) 
nan

>  <Num_Resolved_Atoms>  (744) 
nan

>  <Num_Not_Resolved_Atoms>  (744) 
nan

$$$$
CHEMBL4066167
     RDKit          3D

  0  0  0  0  0  0  0  0  0  0999 V3000
M  V30 BEGIN CTAB
M  V30 COUNTS 26 28 0 0 0
M  V30 BEGIN ATOM
M  V30 1 N -2.427843 -2.401429 -0.068555 0
M  V30 2 C -1.283904 -2.479390 0.110167 0
M  V30 3 C 0.119111 -2.596478 0.316730 0
M  V30 4 C 0.813969 -3.803694 0.178129 0
M  V30 5 N 2.123887 -3.562431 0.429908 0
M  V30 6 C 2.330437 -2.250079 0.729407 0
M  V30 7 N 3.416961 -1.520513 1.037504 0
M  V30 8 C 3.277956 -0.208951 1.275076 0
M  V30 9 C 2.031424 0.382576 1.203851 0
M  V30 10 C 0.876134 -0.345621 0.886302 0
M  V30 11 C -0.355244 0.427393 0.889346 0
M  V30 12 C -0.271402 1.534566 0.035491 0
M  V30 13 C -1.301350 2.432916 -0.123620 0
M  V30 14 C -2.480859 2.266911 0.571651 0
M  V30 15 Cl -3.859540 3.341790 0.451990 0
M  V30 16 C -2.566955 1.179252 1.412660 0
M  V30 17 C -1.539443 0.277687 1.575628 0
M  V30 18 C 1.079590 -1.686694 0.651470 0
M  V30 19 H 0.401031 -4.757114 -0.080082 0
M  V30 20 H 2.924892 -4.242412 0.415162 0
M  V30 21 H 4.131975 0.381285 1.520093 0
M  V30 22 H 1.986124 1.456767 1.408709 0
M  V30 23 H 0.591973 1.793348 -0.574232 0
M  V30 24 H -1.266159 3.294887 -0.773772 0
M  V30 25 H -3.447049 0.936968 2.018479 0
M  V30 26 H -1.529760 -0.588471 2.220653 0
M  V30 END ATOM
M  V30 BEGIN BOND
M  V30 1 3 1 2
M  V30 2 1 2 3
M  V30 3 2 3 4
M  V30 4 1 4 5
M  V30 5 1 5 6
M  V30 6 2 6 7
M  V30 7 1 7 8
M  V30 8 2 8 9
M  V30 9 1 9 10
M  V30 10 1 10 11
M  V30 11 2 11 12
M  V30 12 1 12 13
M  V30 13 2 13 14
M  V30 14 1 14 15
M  V30 15 1 14 16
M  V30 16 2 16 17
M  V30 17 2 10 18
M  V30 18 1 18 3
M  V30 19 1 18 6
M  V30 20 1 17 11
M  V30 21 1 4 19
M  V30 22 1 5 20
M  V30 23 1 8 21
M  V30 24 1 9 22
M  V30 25 1 12 23
M  V30 26 1 13 24
M  V30 27 1 16 25
M  V30 28 1 17 26
M  V30 END BOND
M  V30 END CTAB
M  END
>  <Dataset>  (745) 
ChEMBL_Kinases

>  <Ligand_Instance>  (745) 
nan

>  <PDB_ID>  (745) 
nan

>  <Standardized_SMILES>  (745) 
N#Cc1c[nH]c2nccc(-c3ccc(Cl)cc3)c12

>  <Name>  (745) 
nan

>  <Pocket>  (745) 
nan

>  <ATP_Site>  (745) 
nan

>  <Peripheral>  (745) 
nan

>  <Num_H_Atoms_ProtBoundConf>  (745) 
nan

>  <Num_Resolved_Atoms>  (745) 
nan

>  <Num_Not_Resolved_Atoms>  (745) 
nan

$$$$
CHEMBL4066163
     RDKit          3D

  0  0  0  0  0  0  0  0  0  0999 V3000
M  V30 BEGIN CTAB
M  V30 COUNTS 78 83 0 0 0
M  V30 BEGIN ATOM
M  V30 1 C 3.320793 1.485713 4.237305 0
M  V30 2 C 4.300642 0.432033 3.733941 0
M  V30 3 C 4.596816 0.698167 2.272304 0 CFG=2
M  V30 4 C 5.190791 2.084238 2.247916 0
M  V30 5 C 6.387256 2.455397 2.872164 0
M  V30 6 C 7.324127 1.657849 3.607228 0
M  V30 7 N 8.065252 1.005809 4.209761 0
M  V30 8 N 6.557222 3.773675 2.673205 0
M  V30 9 C 5.523860 4.237285 1.955311 0
M  V30 10 N 4.715236 3.198971 1.710858 0
M  V30 11 C 3.510984 3.038709 0.983790 0
M  V30 12 C 2.935398 4.162250 0.432823 0
M  V30 13 N 1.780619 4.029655 -0.229513 0
M  V30 14 C 1.179672 2.809311 -0.360152 0
M  V30 15 N -0.031518 2.810647 -1.098933 0
M  V30 16 C -1.017856 1.802333 -1.263821 0
M  V30 17 C -0.935397 0.654298 -0.513212 0
M  V30 18 C -1.846720 -0.375853 -0.576959 0
M  V30 19 F -1.783582 -1.494647 0.140200 0
M  V30 20 C -2.919677 -0.311592 -1.417240 0
M  V30 21 C -4.014620 -1.226842 -1.691295 0
M  V30 22 O -4.976172 -1.069885 -2.487462 0
M  V30 23 N -4.139426 -2.478143 -1.059793 0
M  V30 24 C -5.080116 -3.547296 -1.131907 0
M  V30 25 C -4.459799 -4.859144 -1.571471 0
M  V30 26 C -5.646652 -5.774173 -1.901838 0
M  V30 27 N -6.516955 -5.954195 -0.794885 0
M  V30 28 C -6.248632 -7.117027 0.002701 0
M  V30 29 C -6.873412 -4.794796 -0.059883 0
M  V30 30 C -5.749214 -3.837729 0.195609 0
M  V30 31 C -3.024786 0.852685 -2.193110 0
M  V30 32 C -2.101026 1.867861 -2.111708 0
M  V30 33 O -2.200357 3.019314 -2.876614 0
M  V30 34 C -3.294278 3.135555 -3.763217 0
M  V30 35 N 1.803740 1.785826 0.198729 0
M  V30 36 C 2.952773 1.801895 0.877311 0
M  V30 37 N 3.453199 0.591075 1.420239 0
M  V30 38 C 2.996750 -0.743332 1.288538 0
M  V30 39 C 4.098493 -1.799751 1.317212 0
M  V30 40 C 4.796709 -1.738385 0.002086 0
M  V30 41 C 3.884269 -0.952148 -0.919807 0
M  V30 42 C 2.559603 -0.993038 -0.166306 0
M  V30 43 H 3.870019 2.416022 4.454490 0
M  V30 44 H 2.463526 1.601797 3.567651 0
M  V30 45 H 2.936529 1.090794 5.222236 0
M  V30 46 H 3.838429 -0.528912 3.945562 0
M  V30 47 H 5.231865 0.548526 4.299335 0
M  V30 48 H 5.435426 0.051280 1.929038 0
M  V30 49 H 5.303240 5.245359 1.595914 0
M  V30 50 H 3.417257 5.132869 0.539853 0
M  V30 51 H -0.303324 3.669519 -1.639423 0
M  V30 52 H -0.163349 0.456336 0.205825 0
M  V30 53 H -3.465377 -2.841574 -0.356496 0
M  V30 54 H -5.877021 -3.262695 -1.875356 0
M  V30 55 H -3.827465 -4.764233 -2.475203 0
M  V30 56 H -3.946492 -5.359311 -0.720275 0
M  V30 57 H -5.204052 -6.759022 -2.158427 0
M  V30 58 H -6.114082 -5.380693 -2.826878 0
M  V30 59 H -6.097904 -7.986829 -0.672094 0
M  V30 60 H -7.123014 -7.362522 0.639830 0
M  V30 61 H -5.394189 -6.932745 0.679104 0
M  V30 62 H -7.718388 -4.231671 -0.505957 0
M  V30 63 H -7.233455 -5.127466 0.951837 0
M  V30 64 H -5.009006 -4.375421 0.830557 0
M  V30 65 H -6.162872 -2.923756 0.662450 0
M  V30 66 H -3.835766 1.045695 -2.914817 0
M  V30 67 H -3.344671 2.271875 -4.480219 0
M  V30 68 H -3.138871 4.030830 -4.408815 0
M  V30 69 H -4.276419 3.168069 -3.241526 0
M  V30 70 H 2.196109 -1.024781 1.977989 0
M  V30 71 H 4.774923 -1.768893 2.141989 0
M  V30 72 H 3.539041 -2.786365 1.398557 0
M  V30 73 H 5.823666 -1.332362 0.046893 0
M  V30 74 H 4.844415 -2.781480 -0.437251 0
M  V30 75 H 3.739465 -1.463069 -1.881044 0
M  V30 76 H 4.236120 0.078704 -1.069556 0
M  V30 77 H 1.899352 -0.259891 -0.545622 0
M  V30 78 H 2.147178 -2.027027 -0.248335 0
M  V30 END ATOM
M  V30 BEGIN BOND
M  V30 1 1 1 2
M  V30 2 1 2 3
M  V30 3 1 3 4
M  V30 4 2 4 5
M  V30 5 1 5 6
M  V30 6 3 6 7
M  V30 7 1 5 8
M  V30 8 2 8 9
M  V30 9 1 9 10
M  V30 10 1 10 11
M  V30 11 2 11 12
M  V30 12 1 12 13
M  V30 13 2 13 14
M  V30 14 1 14 15
M  V30 15 1 15 16
M  V30 16 2 16 17
M  V30 17 1 17 18
M  V30 18 1 18 19
M  V30 19 2 18 20
M  V30 20 1 20 21
M  V30 21 2 21 22
M  V30 22 1 21 23
M  V30 23 1 23 24
M  V30 24 1 24 25
M  V30 25 1 25 26
M  V30 26 1 26 27
M  V30 27 1 27 28
M  V30 28 1 27 29
M  V30 29 1 29 30
M  V30 30 1 20 31
M  V30 31 2 31 32
M  V30 32 1 32 33
M  V30 33 1 33 34
M  V30 34 1 14 35
M  V30 35 2 35 36
M  V30 36 1 36 37
M  V30 37 1 37 38
M  V30 38 1 38 39
M  V30 39 1 39 40
M  V30 40 1 40 41
M  V30 41 1 41 42
M  V30 42 1 37 3
M  V30 43 1 42 38
M  V30 44 1 10 4
M  V30 45 1 36 11
M  V30 46 1 32 16
M  V30 47 1 30 24
M  V30 48 1 1 43
M  V30 49 1 1 44
M  V30 50 1 1 45
M  V30 51 1 2 46
M  V30 52 1 2 47
M  V30 53 1 3 48 CFG=3
M  V30 54 1 9 49
M  V30 55 1 12 50
M  V30 56 1 15 51
M  V30 57 1 17 52
M  V30 58 1 23 53
M  V30 59 1 24 54
M  V30 60 1 25 55
M  V30 61 1 25 56
M  V30 62 1 26 57
M  V30 63 1 26 58
M  V30 64 1 28 59
M  V30 65 1 28 60
M  V30 66 1 28 61
M  V30 67 1 29 62
M  V30 68 1 29 63
M  V30 69 1 30 64
M  V30 70 1 30 65
M  V30 71 1 31 66
M  V30 72 1 34 67
M  V30 73 1 34 68
M  V30 74 1 34 69
M  V30 75 1 38 70
M  V30 76 1 39 71
M  V30 77 1 39 72
M  V30 78 1 40 73
M  V30 79 1 40 74
M  V30 80 1 41 75
M  V30 81 1 41 76
M  V30 82 1 42 77
M  V30 83 1 42 78
M  V30 END BOND
M  V30 END CTAB
M  END
>  <Dataset>  (746) 
ChEMBL_Kinases

>  <Ligand_Instance>  (746) 
nan

>  <PDB_ID>  (746) 
nan

>  <Standardized_SMILES>  (746) 
CC[C@@H]1c2c(C#N)ncn2-c2cnc(Nc3cc(F)c(C(=O)NC4CCN(C)CC4)cc3OC)nc2N1C1CCCC1

>  <Name>  (746) 
nan

>  <Pocket>  (746) 
nan

>  <ATP_Site>  (746) 
nan

>  <Peripheral>  (746) 
nan

>  <Num_H_Atoms_ProtBoundConf>  (746) 
nan

>  <Num_Resolved_Atoms>  (746) 
nan

>  <Num_Not_Resolved_Atoms>  (746) 
nan

$$$$
CHEMBL4066104
     RDKit          3D

  0  0  0  0  0  0  0  0  0  0999 V3000
M  V30 BEGIN CTAB
M  V30 COUNTS 81 84 0 0 0
M  V30 BEGIN ATOM
M  V30 1 C 2.079912 -0.880062 5.555219 0
M  V30 2 C 2.147315 -0.399859 4.314691 0
M  V30 3 C 2.424229 0.915687 3.765887 0
M  V30 4 O 2.392832 0.978411 2.493427 0
M  V30 5 N 2.722694 2.134530 4.387112 0
M  V30 6 C 2.991664 3.424195 3.879991 0
M  V30 7 C 3.022760 3.787380 2.553721 0
M  V30 8 C 3.282887 5.034414 2.036575 0
M  V30 9 N 3.275995 5.282970 0.616662 0
M  V30 10 C 3.021111 4.192053 -0.252153 0
M  V30 11 N 1.692735 3.914417 -0.483254 0
M  V30 12 C 1.311977 2.906397 -1.278339 0
M  V30 13 C 2.286793 2.143004 -1.866270 0
M  V30 14 C 1.907122 1.040132 -2.730371 0
M  V30 15 O 2.540051 0.190748 -3.405682 0
M  V30 16 N 0.574973 0.734342 -2.953831 0
M  V30 17 C -0.222019 -0.188640 -3.667951 0
M  V30 18 C -0.540900 -1.359318 -2.974944 0
M  V30 19 C -1.326590 -2.405918 -3.466375 0
M  V30 20 N -1.592936 -3.562801 -2.680987 0
M  V30 21 C -2.750962 -3.329774 -1.847230 0
M  V30 22 O -3.205659 -2.165893 -2.048317 0
M  V30 23 C -3.274740 -4.326656 -0.924520 0
M  V30 24 C -2.906382 -5.649716 -0.820312 0
M  V30 25 C -3.518831 -6.414324 0.138333 0
M  V30 26 O -3.194335 -7.734017 0.285766 0
M  V30 27 C -2.242036 -8.397779 -0.507009 0
M  V30 28 C -4.479078 -5.902195 0.991812 0
M  V30 29 O -5.073975 -6.692593 1.945008 0
M  V30 30 C -6.253232 -7.434156 1.796858 0
M  V30 31 C -4.876613 -4.561014 0.913636 0
M  V30 32 O -5.838180 -4.111286 1.794282 0
M  V30 33 C -6.375088 -2.834093 1.894625 0
M  V30 34 C -4.233691 -3.825852 -0.070015 0
M  V30 35 C -1.796302 -2.205688 -4.750994 0
M  V30 36 C -1.517874 -1.078911 -5.483669 0
M  V30 37 C -0.735977 -0.077162 -4.944611 0
M  V30 38 C -0.374706 1.179613 -5.655662 0
M  V30 39 C 3.616312 2.377547 -1.668596 0
M  V30 40 N 4.697245 1.646961 -2.226495 0
M  V30 41 C 6.058490 1.997939 -1.935452 0
M  V30 42 N 3.923225 3.407683 -0.857717 0
M  V30 43 C 3.540504 6.022960 2.961106 0
M  V30 44 C 3.527423 5.740763 4.305717 0
M  V30 45 C 3.258006 4.465770 4.743828 0
M  V30 46 C 3.262644 4.241962 6.211982 0
M  V30 47 H 2.310915 0.160496 5.495638 0
M  V30 48 H 1.855446 -1.909696 5.769334 0
M  V30 49 H 1.941099 -1.205482 3.590980 0
M  V30 50 H 2.747523 2.052941 5.435533 0
M  V30 51 H 2.831316 3.048408 1.794076 0
M  V30 52 H 3.465192 6.278152 0.333978 0
M  V30 53 H 0.249877 2.777202 -1.390688 0
M  V30 54 H -0.270515 1.246367 -2.548134 0
M  V30 55 H -0.173554 -1.529680 -1.952325 0
M  V30 56 H -1.102698 -4.480032 -2.628750 0
M  V30 57 H -2.162097 -5.988329 -1.501891 0
M  V30 58 H -1.278863 -7.844908 -0.574275 0
M  V30 59 H -2.026930 -9.361907 0.005612 0
M  V30 60 H -2.615354 -8.566395 -1.557073 0
M  V30 61 H -6.284342 -8.182590 2.645137 0
M  V30 62 H -7.102662 -6.734644 1.932475 0
M  V30 63 H -6.360002 -7.968067 0.840761 0
M  V30 64 H -6.107369 -2.470839 2.932376 0
M  V30 65 H -7.502734 -2.811677 1.910481 0
M  V30 66 H -6.007207 -2.082655 1.173042 0
M  V30 67 H -4.581500 -2.779828 -0.096905 0
M  V30 68 H -2.412723 -2.999392 -5.165371 0
M  V30 69 H -1.895055 -0.946135 -6.499760 0
M  V30 70 H -0.858817 2.078557 -5.228086 0
M  V30 71 H -0.667974 1.123483 -6.723199 0
M  V30 72 H 0.717828 1.302787 -5.525374 0
M  V30 73 H 4.643441 0.828607 -2.866516 0
M  V30 74 H 6.144810 3.084757 -1.658426 0
M  V30 75 H 6.679244 1.856152 -2.840057 0
M  V30 76 H 6.503066 1.354741 -1.136804 0
M  V30 77 H 3.752194 7.024102 2.628836 0
M  V30 78 H 3.735108 6.530020 5.020323 0
M  V30 79 H 2.317804 3.721205 6.503653 0
M  V30 80 H 4.093862 3.549431 6.452626 0
M  V30 81 H 3.353361 5.195745 6.774470 0
M  V30 END ATOM
M  V30 BEGIN BOND
M  V30 1 2 1 2
M  V30 2 1 2 3
M  V30 3 2 3 4
M  V30 4 1 3 5
M  V30 5 1 5 6
M  V30 6 2 6 7
M  V30 7 1 7 8
M  V30 8 1 8 9
M  V30 9 1 9 10
M  V30 10 2 10 11
M  V30 11 1 11 12
M  V30 12 2 12 13
M  V30 13 1 13 14
M  V30 14 2 14 15
M  V30 15 1 14 16
M  V30 16 1 16 17
M  V30 17 2 17 18
M  V30 18 1 18 19
M  V30 19 1 19 20
M  V30 20 1 20 21
M  V30 21 2 21 22
M  V30 22 1 21 23
M  V30 23 2 23 24
M  V30 24 1 24 25
M  V30 25 1 25 26
M  V30 26 1 26 27
M  V30 27 2 25 28
M  V30 28 1 28 29
M  V30 29 1 29 30
M  V30 30 1 28 31
M  V30 31 1 31 32
M  V30 32 1 32 33
M  V30 33 2 31 34
M  V30 34 2 19 35
M  V30 35 1 35 36
M  V30 36 2 36 37
M  V30 37 1 37 38
M  V30 38 1 13 39
M  V30 39 1 39 40
M  V30 40 1 40 41
M  V30 41 2 39 42
M  V30 42 2 8 43
M  V30 43 1 43 44
M  V30 44 2 44 45
M  V30 45 1 45 46
M  V30 46 1 45 6
M  V30 47 1 42 10
M  V30 48 1 37 17
M  V30 49 1 34 23
M  V30 50 1 1 47
M  V30 51 1 1 48
M  V30 52 1 2 49
M  V30 53 1 5 50
M  V30 54 1 7 51
M  V30 55 1 9 52
M  V30 56 1 12 53
M  V30 57 1 16 54
M  V30 58 1 18 55
M  V30 59 1 20 56
M  V30 60 1 24 57
M  V30 61 1 27 58
M  V30 62 1 27 59
M  V30 63 1 27 60
M  V30 64 1 30 61
M  V30 65 1 30 62
M  V30 66 1 30 63
M  V30 67 1 33 64
M  V30 68 1 33 65
M  V30 69 1 33 66
M  V30 70 1 34 67
M  V30 71 1 35 68
M  V30 72 1 36 69
M  V30 73 1 38 70
M  V30 74 1 38 71
M  V30 75 1 38 72
M  V30 76 1 40 73
M  V30 77 1 41 74
M  V30 78 1 41 75
M  V30 79 1 41 76
M  V30 80 1 43 77
M  V30 81 1 44 78
M  V30 82 1 46 79
M  V30 83 1 46 80
M  V30 84 1 46 81
M  V30 END BOND
M  V30 END CTAB
M  END
>  <Dataset>  (747) 
ChEMBL_Kinases

>  <Ligand_Instance>  (747) 
nan

>  <PDB_ID>  (747) 
nan

>  <Standardized_SMILES>  (747) 
C=CC(=O)Nc1cc(Nc2ncc(C(=O)Nc3cc(NC(=O)c4cc(OC)c(OC)c(OC)c4)ccc3C)c(NC)n2)ccc1C

>  <Name>  (747) 
nan

>  <Pocket>  (747) 
nan

>  <ATP_Site>  (747) 
nan

>  <Peripheral>  (747) 
nan

>  <Num_H_Atoms_ProtBoundConf>  (747) 
nan

>  <Num_Resolved_Atoms>  (747) 
nan

>  <Num_Not_Resolved_Atoms>  (747) 
nan

$$$$
CHEMBL4066066
     RDKit          3D

  0  0  0  0  0  0  0  0  0  0999 V3000
M  V30 BEGIN CTAB
M  V30 COUNTS 53 58 0 0 0
M  V30 BEGIN ATOM
M  V30 1 Cl -1.500622 -5.680101 2.544409 0
M  V30 2 C -0.334496 -4.479639 2.135689 0
M  V30 3 C 1.058303 -4.766690 2.107416 0
M  V30 4 C 2.048559 -3.847319 1.820193 0
M  V30 5 C 1.650310 -2.581705 1.531254 0
M  V30 6 N 2.577880 -1.566672 1.363089 0
M  V30 7 C 2.095233 -0.342532 1.182947 0
M  V30 8 N 3.175330 0.592822 1.150049 0
M  V30 9 C 2.915610 1.980933 1.352787 0
M  V30 10 C 1.664359 2.402777 1.735224 0
M  V30 11 C 1.241419 3.672943 1.938214 0
M  V30 12 Br -0.545795 4.188269 2.473752 0
M  V30 13 C 2.165092 4.680171 1.742656 0
M  V30 14 N 2.158234 6.061320 1.828200 0
M  V30 15 N 3.318116 6.581067 1.538927 0
M  V30 16 C 4.156156 5.501577 1.238627 0
M  V30 17 C 3.470256 4.339774 1.360133 0
M  V30 18 C 3.862290 2.972063 1.154145 0
M  V30 19 N 0.835073 0.052958 1.130450 0
M  V30 20 C -0.187809 -0.853001 1.286869 0
M  V30 21 N -1.618379 -0.572391 1.154210 0
M  V30 22 C -2.927736 -0.272146 1.030944 0
M  V30 23 C -3.823818 -0.909288 -0.003943 0
M  V30 24 C -3.515545 -2.343587 -0.221677 0
M  V30 25 C -3.770780 -3.467984 0.500376 0
M  V30 26 N -3.016390 -4.353286 -0.139441 0
M  V30 27 C -2.328184 -3.816904 -1.178590 0
M  V30 28 C -1.459516 -4.459463 -2.131938 0
M  V30 29 C -1.040112 -3.574239 -3.078823 0
M  V30 30 C -1.296670 -2.250291 -3.278924 0
M  V30 31 C -2.119177 -1.672608 -2.335716 0
M  V30 32 C -2.619163 -2.457123 -1.287444 0
M  V30 33 C 0.372334 -2.091117 1.480487 0
M  V30 34 C -0.521858 -3.131456 1.792856 0
M  V30 35 H 1.411944 -5.759722 2.285119 0
M  V30 36 H 3.133445 -4.075573 1.763861 0
M  V30 37 H 4.165643 0.399290 0.971907 0
M  V30 38 H 0.796528 1.851443 1.982135 0
M  V30 39 H 1.190275 6.542698 2.108846 0
M  V30 40 H 5.196901 5.626608 0.968373 0
M  V30 41 H 4.876951 2.734674 0.855303 0
M  V30 42 H -2.020988 -1.613057 0.931313 0
M  V30 43 H -3.477589 -0.196575 2.036803 0
M  V30 44 H -3.069223 0.874123 0.755994 0
M  V30 45 H -4.888832 -0.999896 0.514663 0
M  V30 46 H -3.955351 -0.332848 -0.917816 0
M  V30 47 H -4.426024 -3.561734 1.344203 0
M  V30 48 H -2.943180 -5.415093 0.099630 0
M  V30 49 H -1.171043 -5.478460 -2.086885 0
M  V30 50 H -0.367751 -3.929432 -3.909047 0
M  V30 51 H -1.000076 -1.582914 -4.029567 0
M  V30 52 H -2.439490 -0.648293 -2.380949 0
M  V30 53 H -1.564577 -2.986352 1.856312 0
M  V30 END ATOM
M  V30 BEGIN BOND
M  V30 1 1 1 2
M  V30 2 2 2 3
M  V30 3 1 3 4
M  V30 4 2 4 5
M  V30 5 1 5 6
M  V30 6 2 6 7
M  V30 7 1 7 8
M  V30 8 1 8 9
M  V30 9 2 9 10
M  V30 10 1 10 11
M  V30 11 1 11 12
M  V30 12 2 11 13
M  V30 13 1 13 14
M  V30 14 1 14 15
M  V30 15 2 15 16
M  V30 16 1 16 17
M  V30 17 2 17 18
M  V30 18 1 7 19
M  V30 19 2 19 20
M  V30 20 1 20 21
M  V30 21 1 21 22
M  V30 22 1 22 23
M  V30 23 1 23 24
M  V30 24 2 24 25
M  V30 25 1 25 26
M  V30 26 1 26 27
M  V30 27 2 27 28
M  V30 28 1 28 29
M  V30 29 2 29 30
M  V30 30 1 30 31
M  V30 31 2 31 32
M  V30 32 1 20 33
M  V30 33 2 33 34
M  V30 34 1 34 2
M  V30 35 1 33 5
M  V30 36 1 18 9
M  V30 37 1 32 24
M  V30 38 1 17 13
M  V30 39 1 32 27
M  V30 40 1 3 35
M  V30 41 1 4 36
M  V30 42 1 8 37
M  V30 43 1 10 38
M  V30 44 1 14 39
M  V30 45 1 16 40
M  V30 46 1 18 41
M  V30 47 1 21 42
M  V30 48 1 22 43
M  V30 49 1 22 44
M  V30 50 1 23 45
M  V30 51 1 23 46
M  V30 52 1 25 47
M  V30 53 1 26 48
M  V30 54 1 28 49
M  V30 55 1 29 50
M  V30 56 1 30 51
M  V30 57 1 31 52
M  V30 58 1 34 53
M  V30 END BOND
M  V30 END CTAB
M  END
>  <Dataset>  (748) 
ChEMBL_Kinases

>  <Ligand_Instance>  (748) 
nan

>  <PDB_ID>  (748) 
nan

>  <Standardized_SMILES>  (748) 
Clc1ccc2nc(Nc3cc(Br)c4[nH]ncc4c3)nc(NCCc3c[nH]c4ccccc34)c2c1

>  <Name>  (748) 
nan

>  <Pocket>  (748) 
nan

>  <ATP_Site>  (748) 
nan

>  <Peripheral>  (748) 
nan

>  <Num_H_Atoms_ProtBoundConf>  (748) 
nan

>  <Num_Resolved_Atoms>  (748) 
nan

>  <Num_Not_Resolved_Atoms>  (748) 
nan

$$$$
CHEMBL4861256
     RDKit          3D

  0  0  0  0  0  0  0  0  0  0999 V3000
M  V30 BEGIN CTAB
M  V30 COUNTS 44 45 0 0 0
M  V30 BEGIN ATOM
M  V30 1 C 2.002651 -3.178563 2.030290 0
M  V30 2 C 0.486931 -2.954169 1.919693 0
M  V30 3 C -0.124409 -3.984597 2.781467 0
M  V30 4 N 0.139411 -3.117505 0.521108 0
M  V30 5 C 0.235913 -1.537742 2.313270 0
M  V30 6 C -1.205636 -1.122039 2.267994 0
M  V30 7 N -1.803471 -1.234693 0.969911 0
M  V30 8 C -1.424308 -0.526809 -0.176081 0
M  V30 9 N -0.439366 0.380446 -0.200316 0
M  V30 10 C -0.051139 1.083695 -1.270357 0
M  V30 11 N 0.982239 2.052310 -1.307718 0
M  V30 12 C 1.800514 2.541478 -0.260821 0
M  V30 13 C 2.846343 3.436425 -0.451407 0
M  V30 14 C 3.604911 3.884953 0.596156 0
M  V30 15 C 3.396186 3.494077 1.888801 0
M  V30 16 C 4.195562 3.970062 2.975887 0
M  V30 17 N 4.830272 4.348411 3.846516 0
M  V30 18 N 2.388591 2.627487 2.099373 0
M  V30 19 C 1.649391 2.192964 1.064001 0
M  V30 20 N -0.718276 0.846041 -2.410598 0
M  V30 21 C -1.718975 -0.032354 -2.518730 0
M  V30 22 C -2.069088 -0.722849 -1.380589 0
M  V30 23 C -3.169498 -1.712570 -1.437135 0
M  V30 24 F -2.766265 -2.990843 -1.102694 0
M  V30 25 F -4.223618 -1.378632 -0.622495 0
M  V30 26 F -3.664738 -1.784159 -2.724037 0
M  V30 27 H 2.199766 -4.145908 1.529459 0
M  V30 28 H 2.553941 -2.341861 1.563835 0
M  V30 29 H 2.274847 -3.302422 3.099296 0
M  V30 30 H 0.508503 -4.172659 3.692386 0
M  V30 31 H -0.133981 -4.950281 2.226766 0
M  V30 32 H -1.164424 -3.826540 3.108782 0
M  V30 33 H -0.134532 -4.100377 0.290932 0
M  V30 34 H 0.942292 -2.893715 -0.120024 0
M  V30 35 H 0.589659 -1.340109 3.347417 0
M  V30 36 H 0.811049 -0.852283 1.658426 0
M  V30 37 H -1.782752 -1.586759 3.069056 0
M  V30 38 H -1.183652 -0.014369 2.499077 0
M  V30 39 H -2.592187 -1.916568 0.909093 0
M  V30 40 H 1.212915 2.506052 -2.237979 0
M  V30 41 H 3.063088 3.784918 -1.455618 0
M  V30 42 H 4.404801 4.583769 0.369147 0
M  V30 43 H 0.876765 1.508655 1.374534 0
M  V30 44 H -2.228340 -0.191188 -3.458490 0
M  V30 END ATOM
M  V30 BEGIN BOND
M  V30 1 1 1 2
M  V30 2 1 2 3
M  V30 3 1 2 4
M  V30 4 1 2 5
M  V30 5 1 5 6
M  V30 6 1 6 7
M  V30 7 1 7 8
M  V30 8 2 8 9
M  V30 9 1 9 10
M  V30 10 1 10 11
M  V30 11 1 11 12
M  V30 12 2 12 13
M  V30 13 1 13 14
M  V30 14 2 14 15
M  V30 15 1 15 16
M  V30 16 3 16 17
M  V30 17 1 15 18
M  V30 18 2 18 19
M  V30 19 2 10 20
M  V30 20 1 20 21
M  V30 21 2 21 22
M  V30 22 1 22 23
M  V30 23 1 23 24
M  V30 24 1 23 25
M  V30 25 1 23 26
M  V30 26 1 22 8
M  V30 27 1 19 12
M  V30 28 1 1 27
M  V30 29 1 1 28
M  V30 30 1 1 29
M  V30 31 1 3 30
M  V30 32 1 3 31
M  V30 33 1 3 32
M  V30 34 1 4 33
M  V30 35 1 4 34
M  V30 36 1 5 35
M  V30 37 1 5 36
M  V30 38 1 6 37
M  V30 39 1 6 38
M  V30 40 1 7 39
M  V30 41 1 11 40
M  V30 42 1 13 41
M  V30 43 1 14 42
M  V30 44 1 19 43
M  V30 45 1 21 44
M  V30 END BOND
M  V30 END CTAB
M  END
>  <Dataset>  (749) 
ChEMBL_Kinases

>  <Ligand_Instance>  (749) 
nan

>  <PDB_ID>  (749) 
nan

>  <Standardized_SMILES>  (749) 
CC(C)(N)CCNc1nc(Nc2ccc(C#N)nc2)ncc1C(F)(F)F

>  <Name>  (749) 
nan

>  <Pocket>  (749) 
nan

>  <ATP_Site>  (749) 
nan

>  <Peripheral>  (749) 
nan

>  <Num_H_Atoms_ProtBoundConf>  (749) 
nan

>  <Num_Resolved_Atoms>  (749) 
nan

>  <Num_Not_Resolved_Atoms>  (749) 
nan

$$$$
CHEMBL4070456
     RDKit          3D

  0  0  0  0  0  0  0  0  0  0999 V3000
M  V30 BEGIN CTAB
M  V30 COUNTS 45 48 0 0 0
M  V30 BEGIN ATOM
M  V30 1 C -0.420094 -1.772160 -1.667980 0
M  V30 2 O 0.555507 -0.845948 -1.296638 0
M  V30 3 C 1.367160 -0.275088 -2.259133 0
M  V30 4 C 1.213409 -0.624800 -3.586446 0
M  V30 5 C 1.988187 -0.100939 -4.605180 0
M  V30 6 C 2.958154 0.813924 -4.266044 0
M  V30 7 C 3.125859 1.174667 -2.948941 0
M  V30 8 N 4.086996 2.057952 -2.641408 0
M  V30 9 C 4.323423 2.452273 -1.380178 0
M  V30 10 C 3.512818 1.894942 -0.393468 0
M  V30 11 C 2.491402 0.969218 -0.642081 0
M  V30 12 N 1.788505 0.527680 0.480103 0
M  V30 13 C 0.460340 0.618492 0.972848 0
M  V30 14 C -0.473100 1.548636 0.495309 0
M  V30 15 C -1.765522 1.641108 0.963340 0
M  V30 16 N -2.126425 0.782200 1.929740 0
M  V30 17 C -1.252030 -0.140586 2.425702 0
M  V30 18 C -1.736380 -1.031085 3.473859 0
M  V30 19 C -0.991804 -2.017418 4.083382 0
M  V30 20 C -1.464324 -2.846852 5.068425 0
M  V30 21 C -0.561663 -3.893503 5.666607 0
M  V30 22 C -2.769450 -2.715651 5.506114 0
M  V30 23 C -3.547807 -1.747570 4.928371 0
M  V30 24 C -3.029760 -0.941261 3.945509 0
M  V30 25 F -3.880268 -0.007965 3.431218 0
M  V30 26 C 0.036149 -0.223516 1.950529 0
M  V30 27 C 2.338891 0.634978 -1.969708 0
M  V30 28 H -0.869651 -2.240003 -0.759055 0
M  V30 29 H -0.041579 -2.612858 -2.294909 0
M  V30 30 H -1.245572 -1.325305 -2.268703 0
M  V30 31 H 0.438202 -1.353684 -3.840547 0
M  V30 32 H 1.829450 -0.404723 -5.620775 0
M  V30 33 H 3.597403 1.260684 -5.014104 0
M  V30 34 H 5.093445 3.162030 -1.112575 0
M  V30 35 H 3.726434 2.233349 0.625825 0
M  V30 36 H 2.482750 -0.007995 1.076498 0
M  V30 37 H -0.120777 2.222343 -0.292524 0
M  V30 38 H -2.447862 2.383216 0.555419 0
M  V30 39 H 0.033486 -2.156508 3.773694 0
M  V30 40 H 0.153073 -3.477179 6.391343 0
M  V30 41 H 0.039621 -4.256705 4.803942 0
M  V30 42 H -1.172510 -4.705080 6.118807 0
M  V30 43 H -3.066867 -3.405135 6.284438 0
M  V30 44 H -4.559502 -1.688204 5.307584 0
M  V30 45 H 0.731119 -0.932976 2.321937 0
M  V30 END ATOM
M  V30 BEGIN BOND
M  V30 1 1 1 2
M  V30 2 1 2 3
M  V30 3 2 3 4
M  V30 4 1 4 5
M  V30 5 2 5 6
M  V30 6 1 6 7
M  V30 7 2 7 8
M  V30 8 1 8 9
M  V30 9 2 9 10
M  V30 10 1 10 11
M  V30 11 1 11 12
M  V30 12 1 12 13
M  V30 13 2 13 14
M  V30 14 1 14 15
M  V30 15 2 15 16
M  V30 16 1 16 17
M  V30 17 1 17 18
M  V30 18 2 18 19
M  V30 19 1 19 20
M  V30 20 1 20 21
M  V30 21 2 20 22
M  V30 22 1 22 23
M  V30 23 2 23 24
M  V30 24 1 24 25
M  V30 25 2 17 26
M  V30 26 2 11 27
M  V30 27 1 27 3
M  V30 28 1 27 7
M  V30 29 1 26 13
M  V30 30 1 24 18
M  V30 31 1 1 28
M  V30 32 1 1 29
M  V30 33 1 1 30
M  V30 34 1 4 31
M  V30 35 1 5 32
M  V30 36 1 6 33
M  V30 37 1 9 34
M  V30 38 1 10 35
M  V30 39 1 12 36
M  V30 40 1 14 37
M  V30 41 1 15 38
M  V30 42 1 19 39
M  V30 43 1 21 40
M  V30 44 1 21 41
M  V30 45 1 21 42
M  V30 46 1 22 43
M  V30 47 1 23 44
M  V30 48 1 26 45
M  V30 END BOND
M  V30 END CTAB
M  END
>  <Dataset>  (750) 
ChEMBL_Kinases

>  <Ligand_Instance>  (750) 
nan

>  <PDB_ID>  (750) 
nan

>  <Standardized_SMILES>  (750) 
COc1cccc2nccc(Nc3ccnc(-c4cc(C)ccc4F)c3)c12

>  <Name>  (750) 
nan

>  <Pocket>  (750) 
nan

>  <ATP_Site>  (750) 
nan

>  <Peripheral>  (750) 
nan

>  <Num_H_Atoms_ProtBoundConf>  (750) 
nan

>  <Num_Resolved_Atoms>  (750) 
nan

>  <Num_Not_Resolved_Atoms>  (750) 
nan

$$$$
CHEMBL4065996
     RDKit          3D

  0  0  0  0  0  0  0  0  0  0999 V3000
M  V30 BEGIN CTAB
M  V30 COUNTS 65 69 0 0 0
M  V30 BEGIN ATOM
M  V30 1 C 2.769779 -1.973495 4.697322 0
M  V30 2 C 2.770223 -2.351543 3.231793 0
M  V30 3 C 4.151946 -2.854115 2.916104 0
M  V30 4 C 1.726127 -3.392744 3.001689 0
M  V30 5 O 2.501225 -1.122924 2.536654 0
M  V30 6 C 2.445336 -1.179025 1.154081 0
M  V30 7 O 2.616534 -2.249125 0.488050 0
M  V30 8 N 2.208350 -0.176919 0.180604 0
M  V30 9 C 2.206710 -0.528482 -1.202258 0
M  V30 10 C 0.962590 -0.117062 -1.932223 0
M  V30 11 N 0.288712 0.973491 -1.182181 0
M  V30 12 C -1.133788 0.774927 -1.099758 0
M  V30 13 C -2.197634 1.590994 -1.308334 0
M  V30 14 C -3.494368 1.243046 -1.137292 0
M  V30 15 C -3.738601 -0.025707 -0.724318 0
M  V30 16 N -5.057412 -0.481199 -0.517850 0 CHG=1 VAL=4
M  V30 17 O -5.447732 -1.379470 0.260848 0
M  V30 18 O -5.498548 -1.481330 0.347999 0 CHG=-1 VAL=1
M  V30 19 C -2.729854 -0.896589 -0.496512 0
M  V30 20 N -2.985209 -2.212427 -0.064609 0
M  V30 21 C -3.053791 -2.401250 1.250450 0
M  V30 22 O -2.936361 -1.627091 2.261458 0
M  V30 23 N -3.303588 -3.712349 1.528667 0
M  V30 24 C -3.391104 -4.349595 0.327014 0
M  V30 25 N -3.614535 -5.605194 -0.053048 0
M  V30 26 C -3.636432 -5.899569 -1.363121 0
M  V30 27 C -3.437809 -4.967361 -2.387064 0
M  V30 28 C -3.200691 -3.639905 -2.019971 0
M  V30 29 C -3.191165 -3.405988 -0.658729 0
M  V30 30 N -1.459401 -0.490359 -0.684655 0
M  V30 31 C 1.298940 1.897905 -0.724216 0
M  V30 32 C 0.893034 3.240376 -0.370779 0
M  V30 33 C 1.187296 3.747722 0.903984 0
M  V30 34 C 0.878081 5.016496 1.341728 0
M  V30 35 C 0.232504 5.875884 0.490710 0
M  V30 36 C -0.097904 5.465892 -0.782718 0
M  V30 37 C 0.248924 4.188562 -1.130204 0
M  V30 38 C 1.956354 1.233807 0.468772 0
M  V30 39 H 1.722519 -1.712979 4.978130 0
M  V30 40 H 3.351567 -1.008991 4.765819 0
M  V30 41 H 3.185121 -2.745207 5.341206 0
M  V30 42 H 4.844080 -2.007595 2.953245 0
M  V30 43 H 4.195705 -3.465943 1.991167 0
M  V30 44 H 4.451300 -3.555200 3.729029 0
M  V30 45 H 0.723132 -2.965406 3.082471 0
M  V30 46 H 1.879796 -3.976422 2.072841 0
M  V30 47 H 1.824179 -4.131512 3.844667 0
M  V30 48 H 2.310375 -1.625268 -1.302911 0
M  V30 49 H 3.131438 -0.118578 -1.703636 0
M  V30 50 H 0.305492 -0.951138 -2.152589 0
M  V30 51 H 1.272523 0.325205 -2.909311 0
M  V30 52 H -1.945273 2.563555 -1.639401 0
M  V30 53 H -4.246222 1.965121 -1.331010 0
M  V30 54 H -3.427137 -4.256378 2.399196 0
M  V30 55 H -3.823305 -6.941279 -1.616107 0
M  V30 56 H -3.463197 -5.242703 -3.425593 0
M  V30 57 H -3.036477 -2.853176 -2.744016 0
M  V30 58 H 2.115116 1.956210 -1.502900 0
M  V30 59 H 1.701072 3.169707 1.684324 0
M  V30 60 H 1.105145 5.398617 2.315317 0
M  V30 61 H -0.047246 6.885050 0.754136 0
M  V30 62 H -0.610918 6.107271 -1.498785 0
M  V30 63 H -0.012597 3.869352 -2.143297 0
M  V30 64 H 2.858887 1.746707 0.820720 0
M  V30 65 H 1.217126 1.234889 1.293989 0
M  V30 END ATOM
M  V30 BEGIN BOND
M  V30 1 1 1 2
M  V30 2 1 2 3
M  V30 3 1 2 4
M  V30 4 1 2 5
M  V30 5 1 5 6
M  V30 6 2 6 7
M  V30 7 1 6 8
M  V30 8 1 8 9
M  V30 9 1 9 10
M  V30 10 1 10 11
M  V30 11 1 11 12
M  V30 12 2 12 13
M  V30 13 1 13 14
M  V30 14 2 14 15
M  V30 15 1 15 16
M  V30 16 2 16 17
M  V30 17 1 16 18
M  V30 18 1 15 19
M  V30 19 1 19 20
M  V30 20 1 20 21
M  V30 21 2 21 22
M  V30 22 1 21 23
M  V30 23 1 23 24
M  V30 24 2 24 25
M  V30 25 1 25 26
M  V30 26 2 26 27
M  V30 27 1 27 28
M  V30 28 2 28 29
M  V30 29 2 19 30
M  V30 30 1 11 31
M  V30 31 1 31 32
M  V30 32 2 32 33
M  V30 33 1 33 34
M  V30 34 2 34 35
M  V30 35 1 35 36
M  V30 36 2 36 37
M  V30 37 1 31 38
M  V30 38 1 38 8
M  V30 39 1 30 12
M  V30 40 1 37 32
M  V30 41 1 29 20
M  V30 42 1 29 24
M  V30 43 1 1 39
M  V30 44 1 1 40
M  V30 45 1 1 41
M  V30 46 1 3 42
M  V30 47 1 3 43
M  V30 48 1 3 44
M  V30 49 1 4 45
M  V30 50 1 4 46
M  V30 51 1 4 47
M  V30 52 1 9 48
M  V30 53 1 9 49
M  V30 54 1 10 50
M  V30 55 1 10 51
M  V30 56 1 13 52
M  V30 57 1 14 53
M  V30 58 1 23 54
M  V30 59 1 26 55
M  V30 60 1 27 56
M  V30 61 1 28 57
M  V30 62 1 31 58
M  V30 63 1 33 59
M  V30 64 1 34 60
M  V30 65 1 35 61
M  V30 66 1 36 62
M  V30 67 1 37 63
M  V30 68 1 38 64
M  V30 69 1 38 65
M  V30 END BOND
M  V30 END CTAB
M  END
>  <Dataset>  (751) 
ChEMBL_Kinases

>  <Ligand_Instance>  (751) 
nan

>  <PDB_ID>  (751) 
nan

>  <Standardized_SMILES>  (751) 
CC(C)(C)OC(=O)N1CCN(c2ccc([N+](=O)[O-])c(-n3c(=O)[nH]c4ncccc43)n2)C(c2ccccc2)C1

>  <Name>  (751) 
nan

>  <Pocket>  (751) 
nan

>  <ATP_Site>  (751) 
nan

>  <Peripheral>  (751) 
nan

>  <Num_H_Atoms_ProtBoundConf>  (751) 
nan

>  <Num_Resolved_Atoms>  (751) 
nan

>  <Num_Not_Resolved_Atoms>  (751) 
nan

$$$$
CHEMBL4065992
     RDKit          3D

  0  0  0  0  0  0  0  0  0  0999 V3000
M  V30 BEGIN CTAB
M  V30 COUNTS 54 57 0 0 0
M  V30 BEGIN ATOM
M  V30 1 C 1.351224 -6.383851 3.411407 0
M  V30 2 O 1.083916 -6.018544 2.071953 0
M  V30 3 C 2.198979 -5.366524 1.612755 0
M  V30 4 C 2.107443 -4.889140 0.180275 0
M  V30 5 N 1.027718 -3.962977 -0.027650 0
M  V30 6 C 1.314531 -2.585657 0.155027 0
M  V30 7 O 2.409261 -2.150952 0.591082 0
M  V30 8 C 0.280591 -1.624902 -0.182875 0
M  V30 9 C 0.120436 -0.268769 -0.168443 0
M  V30 10 C -1.155329 0.066150 -0.632713 0
M  V30 11 C -1.462919 1.486503 -0.655296 0
M  V30 12 N -0.617958 2.456185 -0.293361 0
M  V30 13 C -0.792566 3.760184 -0.263555 0
M  V30 14 N 0.387784 4.430891 0.181036 0
M  V30 15 C 0.969047 4.646827 1.477123 0
M  V30 16 C 2.152302 5.370781 1.629178 0
M  V30 17 C 2.342265 5.320383 2.991961 0
M  V30 18 N 1.367844 4.636399 3.567968 0
M  V30 19 N 0.500920 4.207028 2.649721 0
M  V30 20 C -0.677612 3.434196 2.884996 0
M  V30 21 N -1.985741 4.226890 -0.646717 0
M  V30 22 C -2.942394 3.379786 -1.039691 0
M  V30 23 C -2.673474 2.021037 -1.040278 0
M  V30 24 C -3.781988 1.131204 -1.482579 0
M  V30 25 N -1.716031 -1.106524 -0.910101 0
M  V30 26 C -0.899237 -2.144414 -0.658432 0
M  V30 27 C -1.267747 -3.565459 -0.874770 0
M  V30 28 C -0.250023 -4.527852 -0.401103 0 CFG=1
M  V30 29 C -0.000224 -5.507726 -1.548233 0
M  V30 30 H 1.555538 -5.491343 4.050701 0
M  V30 31 H 0.478149 -6.895773 3.869249 0
M  V30 32 H 2.280633 -6.995530 3.488933 0
M  V30 33 H 3.061463 -6.077102 1.650942 0
M  V30 34 H 2.418236 -4.517038 2.308930 0
M  V30 35 H 3.059010 -4.362157 -0.034895 0
M  V30 36 H 2.100724 -5.754240 -0.513067 0
M  V30 37 H 0.965962 0.326178 0.183313 0
M  V30 38 H 0.800259 4.778478 -0.691960 0
M  V30 39 H 2.773507 5.852566 0.891748 0
M  V30 40 H 3.151244 5.755694 3.564763 0
M  V30 41 H -0.478586 2.394194 2.505621 0
M  V30 42 H -1.585101 3.761747 2.383311 0
M  V30 43 H -0.807209 3.286164 3.991519 0
M  V30 44 H -3.885836 3.798270 -1.344314 0
M  V30 45 H -3.523010 0.658655 -2.432810 0
M  V30 46 H -4.688064 1.767143 -1.748756 0
M  V30 47 H -4.166312 0.495150 -0.679397 0
M  V30 48 H -2.665677 -1.129949 -1.273690 0
M  V30 49 H -2.217090 -3.730143 -0.303637 0
M  V30 50 H -1.436309 -3.672248 -1.968494 0
M  V30 51 H -0.676099 -5.141278 0.435435 0
M  V30 52 H 0.638447 -4.955145 -2.261727 0
M  V30 53 H -1.020102 -5.667207 -2.013766 0
M  V30 54 H 0.366165 -6.479686 -1.227936 0
M  V30 END ATOM
M  V30 BEGIN BOND
M  V30 1 1 1 2
M  V30 2 1 2 3
M  V30 3 1 3 4
M  V30 4 1 4 5
M  V30 5 1 5 6
M  V30 6 2 6 7
M  V30 7 1 6 8
M  V30 8 1 8 9
M  V30 9 2 9 10
M  V30 10 1 10 11
M  V30 11 2 11 12
M  V30 12 1 12 13
M  V30 13 1 13 14
M  V30 14 1 14 15
M  V30 15 2 15 16
M  V30 16 1 16 17
M  V30 17 2 17 18
M  V30 18 1 18 19
M  V30 19 1 19 20
M  V30 20 2 13 21
M  V30 21 1 21 22
M  V30 22 2 22 23
M  V30 23 1 23 24
M  V30 24 1 10 25
M  V30 25 1 25 26
M  V30 26 1 26 27
M  V30 27 1 27 28
M  V30 28 1 28 29
M  V30 29 1 28 5
M  V30 30 2 26 8
M  V30 31 1 23 11
M  V30 32 1 19 15
M  V30 33 1 1 30
M  V30 34 1 1 31
M  V30 35 1 1 32
M  V30 36 1 3 33
M  V30 37 1 3 34
M  V30 38 1 4 35
M  V30 39 1 4 36
M  V30 40 1 9 37
M  V30 41 1 14 38
M  V30 42 1 16 39
M  V30 43 1 17 40
M  V30 44 1 20 41
M  V30 45 1 20 42
M  V30 46 1 20 43
M  V30 47 1 22 44
M  V30 48 1 24 45
M  V30 49 1 24 46
M  V30 50 1 24 47
M  V30 51 1 25 48
M  V30 52 1 27 49
M  V30 53 1 27 50
M  V30 54 1 28 51 CFG=1
M  V30 55 1 29 52
M  V30 56 1 29 53
M  V30 57 1 29 54
M  V30 END BOND
M  V30 END CTAB
M  END
>  <Dataset>  (752) 
ChEMBL_Kinases

>  <Ligand_Instance>  (752) 
nan

>  <PDB_ID>  (752) 
nan

>  <Standardized_SMILES>  (752) 
COCCN1C(=O)c2cc(-c3nc(Nc4ccnn4C)ncc3C)[nH]c2C[C@H]1C

>  <Name>  (752) 
nan

>  <Pocket>  (752) 
nan

>  <ATP_Site>  (752) 
nan

>  <Peripheral>  (752) 
nan

>  <Num_H_Atoms_ProtBoundConf>  (752) 
nan

>  <Num_Resolved_Atoms>  (752) 
nan

>  <Num_Not_Resolved_Atoms>  (752) 
nan

$$$$
CHEMBL4065956
     RDKit          3D

  0  0  0  0  0  0  0  0  0  0999 V3000
M  V30 BEGIN CTAB
M  V30 COUNTS 48 51 0 0 0
M  V30 BEGIN ATOM
M  V30 1 C 1.300819 -2.705625 1.750019 0
M  V30 2 C 0.583511 -2.302265 0.477471 0 CFG=2
M  V30 3 C 1.699293 -1.848820 -0.496137 0
M  V30 4 N 2.578923 -1.002007 0.254426 0
M  V30 5 C 3.999597 -0.994740 0.301025 0
M  V30 6 C 4.744986 -0.124071 1.073544 0
M  V30 7 C 6.122276 -0.219404 1.030529 0
M  V30 8 N 6.794052 -1.107094 0.283410 0
M  V30 9 C 6.075123 -1.959446 -0.472614 0
M  V30 10 C 4.706014 -1.910622 -0.469466 0
M  V30 11 C 1.826627 -0.051009 1.047221 0
M  V30 12 C 0.399840 0.066071 0.636523 0
M  V30 13 N -0.319222 -1.216821 0.620477 0
M  V30 14 C -1.721814 -1.063593 0.737575 0
M  V30 15 N -2.188802 0.197268 0.737605 0
M  V30 16 C -3.516960 0.502586 0.846118 0
M  V30 17 C -3.920580 1.904100 0.835790 0
M  V30 18 C -2.951480 2.876640 0.717355 0
M  V30 19 C -3.303504 4.231938 0.703438 0
M  V30 20 N -4.619408 4.548072 0.809713 0
M  V30 21 C -5.534270 3.556658 0.923961 0
M  V30 22 N -5.197070 2.240278 0.937955 0
M  V30 23 C -4.429947 -0.516288 0.961409 0
M  V30 24 C -3.983244 -1.814310 0.964906 0
M  V30 25 O -4.778441 -2.757538 1.067594 0
M  V30 26 N -2.661276 -2.011184 0.853551 0
M  V30 27 C -2.222958 -3.391134 0.876415 0
M  V30 28 H 2.391619 -2.515322 1.705619 0
M  V30 29 H 0.863891 -2.264878 2.664930 0
M  V30 30 H 1.231034 -3.819923 1.927272 0
M  V30 31 H 0.212655 -3.220425 0.023471 0
M  V30 32 H 1.180461 -1.225143 -1.252669 0
M  V30 33 H 2.194447 -2.738097 -0.938745 0
M  V30 34 H 4.213536 0.601762 1.684477 0
M  V30 35 H 6.714638 0.442490 1.619037 0
M  V30 36 H 6.637068 -2.676316 -1.075345 0
M  V30 37 H 4.235598 -2.627832 -1.101815 0
M  V30 38 H 2.283647 0.958577 0.866549 0
M  V30 39 H 1.963046 -0.204767 2.153778 0
M  V30 40 H 0.299462 0.600895 -0.305679 0
M  V30 41 H -0.110867 0.695017 1.422694 0
M  V30 42 H -1.888186 2.671911 0.629665 0
M  V30 43 H -2.539718 5.010384 0.609916 0
M  V30 44 H -6.604838 3.744312 1.012953 0
M  V30 45 H -5.484911 -0.326524 1.048765 0
M  V30 46 H -1.432397 -3.554749 1.637344 0
M  V30 47 H -3.065055 -4.056533 1.271125 0
M  V30 48 H -2.033187 -3.789694 -0.118434 0
M  V30 END ATOM
M  V30 BEGIN BOND
M  V30 1 1 1 2
M  V30 2 1 2 3
M  V30 3 1 3 4
M  V30 4 1 4 5
M  V30 5 2 5 6
M  V30 6 1 6 7
M  V30 7 2 7 8
M  V30 8 1 8 9
M  V30 9 2 9 10
M  V30 10 1 4 11
M  V30 11 1 11 12
M  V30 12 1 12 13
M  V30 13 1 13 14
M  V30 14 2 14 15
M  V30 15 1 15 16
M  V30 16 1 16 17
M  V30 17 2 17 18
M  V30 18 1 18 19
M  V30 19 2 19 20
M  V30 20 1 20 21
M  V30 21 2 21 22
M  V30 22 2 16 23
M  V30 23 1 23 24
M  V30 24 2 24 25
M  V30 25 1 24 26
M  V30 26 1 26 27
M  V30 27 1 13 2
M  V30 28 1 26 14
M  V30 29 1 10 5
M  V30 30 1 22 17
M  V30 31 1 1 28
M  V30 32 1 1 29
M  V30 33 1 1 30
M  V30 34 1 2 31 CFG=3
M  V30 35 1 3 32
M  V30 36 1 3 33
M  V30 37 1 6 34
M  V30 38 1 7 35
M  V30 39 1 9 36
M  V30 40 1 10 37
M  V30 41 1 11 38
M  V30 42 1 11 39
M  V30 43 1 12 40
M  V30 44 1 12 41
M  V30 45 1 18 42
M  V30 46 1 19 43
M  V30 47 1 21 44
M  V30 48 1 23 45
M  V30 49 1 27 46
M  V30 50 1 27 47
M  V30 51 1 27 48
M  V30 END BOND
M  V30 END CTAB
M  END
>  <Dataset>  (753) 
ChEMBL_Kinases

>  <Ligand_Instance>  (753) 
nan

>  <PDB_ID>  (753) 
nan

>  <Standardized_SMILES>  (753) 
C[C@@H]1CN(c2ccncc2)CCN1c1nc(-c2ccncn2)cc(=O)n1C

>  <Name>  (753) 
nan

>  <Pocket>  (753) 
nan

>  <ATP_Site>  (753) 
nan

>  <Peripheral>  (753) 
nan

>  <Num_H_Atoms_ProtBoundConf>  (753) 
nan

>  <Num_Resolved_Atoms>  (753) 
nan

>  <Num_Not_Resolved_Atoms>  (753) 
nan

$$$$
CHEMBL4065944
     RDKit          3D

  0  0  0  0  0  0  0  0  0  0999 V3000
M  V30 BEGIN CTAB
M  V30 COUNTS 65 68 0 0 0
M  V30 BEGIN ATOM
M  V30 1 C 1.306250 -7.966898 3.577915 0
M  V30 2 N 2.269647 -7.170064 2.840135 0
M  V30 3 C 2.040634 -5.932736 2.179999 0
M  V30 4 N 2.204519 -4.919702 3.040238 0
M  V30 5 C 2.055685 -3.608946 2.699016 0
M  V30 6 C 1.712406 -3.396961 1.356276 0
M  V30 7 C 1.582876 -1.962512 1.061512 0
M  V30 8 C 0.748629 -1.224288 1.916053 0
M  V30 9 C 0.611329 0.127340 1.678919 0
M  V30 10 C 1.233536 0.818598 0.663354 0
M  V30 11 C 1.043565 2.252225 0.457278 0
M  V30 12 O 1.730813 2.902812 -0.372053 0
M  V30 13 N 0.045768 2.899310 1.231838 0
M  V30 14 C -0.115597 4.332063 1.010759 0
M  V30 15 C -1.174019 4.894792 1.877630 0
M  V30 16 O -1.745662 4.103338 2.633853 0
M  V30 17 N -1.532653 6.252473 1.865511 0
M  V30 18 C -2.510789 6.924830 2.630900 0
M  V30 19 C -2.705879 8.272773 2.440920 0
M  V30 20 C -3.637801 8.987584 3.154503 0
M  V30 21 C -4.436583 8.389365 4.110083 0
M  V30 22 C -4.260315 7.040348 4.319367 0
M  V30 23 C -3.313681 6.350430 3.583602 0
M  V30 24 C 2.055778 0.075086 -0.171871 0
M  V30 25 C 2.208387 -1.277519 0.042780 0
M  V30 26 C 1.548383 -4.456537 0.486652 0
M  V30 27 O 1.213995 -4.096929 -0.783556 0
M  V30 28 C 0.983507 -4.959518 -1.875750 0
M  V30 29 C 0.630798 -4.107062 -3.102559 0
M  V30 30 C 0.384082 -5.017967 -4.244745 0
M  V30 31 C -0.804415 -4.642105 -5.076795 0
M  V30 32 N -1.912584 -4.465896 -4.137671 0
M  V30 33 C -1.688017 -3.188541 -3.500561 0
M  V30 34 C -0.385759 -3.091935 -2.778926 0
M  V30 35 N 1.710041 -5.721966 0.887540 0
M  V30 36 H 1.382218 -7.624534 4.633237 0
M  V30 37 H 0.271372 -7.852194 3.233220 0
M  V30 38 H 1.615935 -9.015023 3.527873 0
M  V30 39 H 3.264189 -7.481318 2.745011 0
M  V30 40 H 2.201222 -2.808616 3.436769 0
M  V30 41 H 0.247194 -1.738978 2.723032 0
M  V30 42 H -0.041975 0.608134 2.376138 0
M  V30 43 H -0.590214 2.477185 1.940541 0
M  V30 44 H -0.268156 4.588956 -0.058212 0
M  V30 45 H 0.840433 4.818431 1.298467 0
M  V30 46 H -0.975036 6.811093 1.181461 0
M  V30 47 H -2.103933 8.809707 1.694277 0
M  V30 48 H -3.735717 10.042524 2.948988 0
M  V30 49 H -5.134036 9.051942 4.612604 0
M  V30 50 H -4.890220 6.596188 5.071165 0
M  V30 51 H -3.251908 5.320395 3.814805 0
M  V30 52 H 2.590940 0.540955 -1.006647 0
M  V30 53 H 2.849810 -1.904596 -0.593437 0
M  V30 54 H 0.223825 -5.721332 -1.682182 0
M  V30 55 H 1.943756 -5.489363 -2.080829 0
M  V30 56 H 1.590378 -3.560646 -3.353393 0
M  V30 57 H 0.188534 -6.073299 -3.890263 0
M  V30 58 H 1.289016 -5.141078 -4.908904 0
M  V30 59 H -0.563745 -3.707612 -5.627469 0
M  V30 60 H -0.974233 -5.485965 -5.782116 0
M  V30 61 H -2.797160 -4.429723 -4.662395 0
M  V30 62 H -1.750626 -2.418688 -4.299177 0
M  V30 63 H -2.562572 -3.005962 -2.839756 0
M  V30 64 H -0.633856 -3.175369 -1.679367 0
M  V30 65 H -0.003374 -2.054306 -2.870794 0
M  V30 END ATOM
M  V30 BEGIN BOND
M  V30 1 1 1 2
M  V30 2 1 2 3
M  V30 3 2 3 4
M  V30 4 1 4 5
M  V30 5 2 5 6
M  V30 6 1 6 7
M  V30 7 2 7 8
M  V30 8 1 8 9
M  V30 9 2 9 10
M  V30 10 1 10 11
M  V30 11 2 11 12
M  V30 12 1 11 13
M  V30 13 1 13 14
M  V30 14 1 14 15
M  V30 15 2 15 16
M  V30 16 1 15 17
M  V30 17 1 17 18
M  V30 18 2 18 19
M  V30 19 1 19 20
M  V30 20 2 20 21
M  V30 21 1 21 22
M  V30 22 2 22 23
M  V30 23 1 10 24
M  V30 24 2 24 25
M  V30 25 1 6 26
M  V30 26 1 26 27
M  V30 27 1 27 28
M  V30 28 1 28 29
M  V30 29 1 29 30
M  V30 30 1 30 31
M  V30 31 1 31 32
M  V30 32 1 32 33
M  V30 33 1 33 34
M  V30 34 2 26 35
M  V30 35 1 35 3
M  V30 36 1 25 7
M  V30 37 1 34 29
M  V30 38 1 23 18
M  V30 39 1 1 36
M  V30 40 1 1 37
M  V30 41 1 1 38
M  V30 42 1 2 39
M  V30 43 1 5 40
M  V30 44 1 8 41
M  V30 45 1 9 42
M  V30 46 1 13 43
M  V30 47 1 14 44
M  V30 48 1 14 45
M  V30 49 1 17 46
M  V30 50 1 19 47
M  V30 51 1 20 48
M  V30 52 1 21 49
M  V30 53 1 22 50
M  V30 54 1 23 51
M  V30 55 1 24 52
M  V30 56 1 25 53
M  V30 57 1 28 54
M  V30 58 1 28 55
M  V30 59 1 29 56
M  V30 60 1 30 57
M  V30 61 1 30 58
M  V30 62 1 31 59
M  V30 63 1 31 60
M  V30 64 1 32 61
M  V30 65 1 33 62
M  V30 66 1 33 63
M  V30 67 1 34 64
M  V30 68 1 34 65
M  V30 END BOND
M  V30 END CTAB
M  END
>  <Dataset>  (754) 
ChEMBL_Kinases

>  <Ligand_Instance>  (754) 
nan

>  <PDB_ID>  (754) 
nan

>  <Standardized_SMILES>  (754) 
CNc1ncc(-c2ccc(C(=O)NCC(=O)Nc3ccccc3)cc2)c(OCC2CCNCC2)n1

>  <Name>  (754) 
nan

>  <Pocket>  (754) 
nan

>  <ATP_Site>  (754) 
nan

>  <Peripheral>  (754) 
nan

>  <Num_H_Atoms_ProtBoundConf>  (754) 
nan

>  <Num_Resolved_Atoms>  (754) 
nan

>  <Num_Not_Resolved_Atoms>  (754) 
nan

$$$$
CHEMBL4065875
     RDKit          3D

  0  0  0  0  0  0  0  0  0  0999 V3000
M  V30 BEGIN CTAB
M  V30 COUNTS 57 62 0 0 0
M  V30 BEGIN ATOM
M  V30 1 C 2.776527 -2.007723 5.704430 0
M  V30 2 O 1.557816 -2.082892 4.989236 0
M  V30 3 C 1.403837 -1.519742 3.753985 0
M  V30 4 C 2.428550 -0.844777 3.132214 0
M  V30 5 C 2.187620 -0.306870 1.885536 0
M  V30 6 C 0.989502 -0.405712 1.231835 0
M  V30 7 C 0.810750 0.151555 -0.009259 0
M  V30 8 N 1.901781 0.822514 -0.575794 0
M  V30 9 C 2.064168 2.215361 -0.288353 0
M  V30 10 C 3.088971 2.970428 -0.788249 0
M  V30 11 C 3.295514 4.309614 -0.544266 0
M  V30 12 C 2.390585 4.953621 0.277857 0
M  V30 13 N 2.323109 6.235523 0.697706 0
M  V30 14 N 1.260397 6.373426 1.483676 0
M  V30 15 C 0.637830 5.161812 1.568584 0
M  V30 16 C 1.327391 4.236296 0.815666 0
M  V30 17 C 1.166399 2.893745 0.538700 0
M  V30 18 N -0.392542 0.008898 -0.578993 0
M  V30 19 C -1.405464 -0.649112 0.017068 0
M  V30 20 N -2.671613 -0.821204 -0.547760 0
M  V30 21 C -3.786390 -1.484947 0.014237 0
M  V30 22 C -3.718668 -2.942468 0.246687 0
M  V30 23 C -3.518658 -3.784249 -0.952036 0
M  V30 24 C -4.598789 -4.392962 -1.612806 0
M  V30 25 N -4.210949 -5.085729 -2.696846 0
M  V30 26 C -2.879296 -4.961283 -2.788569 0
M  V30 27 C -1.922091 -5.447281 -3.675968 0
M  V30 28 C -0.564032 -5.149661 -3.507041 0
M  V30 29 C -0.209617 -4.366521 -2.442249 0
M  V30 30 C -1.140723 -3.875145 -1.552447 0
M  V30 31 C -2.455327 -4.175119 -1.734802 0
M  V30 32 N -1.254232 -1.211149 1.248760 0
M  V30 33 C -0.050827 -1.084754 1.850860 0
M  V30 34 C 0.187271 -1.623850 3.097991 0
M  V30 35 H 2.694485 -2.451701 6.695325 0
M  V30 36 H 3.609489 -2.519609 5.149921 0
M  V30 37 H 3.128777 -0.941984 5.804409 0
M  V30 38 H 3.393893 -0.726779 3.582326 0
M  V30 39 H 2.990297 0.222098 1.398466 0
M  V30 40 H 2.621063 0.398363 -1.198634 0
M  V30 41 H 3.810670 2.496750 -1.432241 0
M  V30 42 H 4.137320 4.859245 -0.975290 0
M  V30 43 H 2.940754 7.040639 0.498043 0
M  V30 44 H -0.270754 4.919504 2.135493 0
M  V30 45 H 0.326847 2.377483 0.977849 0
M  V30 46 H -2.803941 -0.399526 -1.516675 0
M  V30 47 H -4.741802 -1.291750 -0.566293 0
M  V30 48 H -4.006260 -0.949021 0.991852 0
M  V30 49 H -2.940982 -3.245894 0.987189 0
M  V30 50 H -4.679893 -3.262497 0.742887 0
M  V30 51 H -5.655982 -4.331839 -1.307262 0
M  V30 52 H -4.845253 -5.614334 -3.333623 0
M  V30 53 H -2.247268 -6.071964 -4.516839 0
M  V30 54 H 0.147903 -5.560885 -4.239892 0
M  V30 55 H 0.841141 -4.129448 -2.300647 0
M  V30 56 H -0.804580 -3.285043 -0.744234 0
M  V30 57 H -0.602713 -2.155205 3.599369 0
M  V30 END ATOM
M  V30 BEGIN BOND
M  V30 1 1 1 2
M  V30 2 1 2 3
M  V30 3 2 3 4
M  V30 4 1 4 5
M  V30 5 2 5 6
M  V30 6 1 6 7
M  V30 7 1 7 8
M  V30 8 1 8 9
M  V30 9 2 9 10
M  V30 10 1 10 11
M  V30 11 2 11 12
M  V30 12 1 12 13
M  V30 13 1 13 14
M  V30 14 2 14 15
M  V30 15 1 15 16
M  V30 16 2 16 17
M  V30 17 2 7 18
M  V30 18 1 18 19
M  V30 19 1 19 20
M  V30 20 1 20 21
M  V30 21 1 21 22
M  V30 22 1 22 23
M  V30 23 2 23 24
M  V30 24 1 24 25
M  V30 25 1 25 26
M  V30 26 2 26 27
M  V30 27 1 27 28
M  V30 28 2 28 29
M  V30 29 1 29 30
M  V30 30 2 30 31
M  V30 31 2 19 32
M  V30 32 1 32 33
M  V30 33 2 33 34
M  V30 34 1 34 3
M  V30 35 1 33 6
M  V30 36 1 17 9
M  V30 37 1 31 23
M  V30 38 1 16 12
M  V30 39 1 31 26
M  V30 40 1 1 35
M  V30 41 1 1 36
M  V30 42 1 1 37
M  V30 43 1 4 38
M  V30 44 1 5 39
M  V30 45 1 8 40
M  V30 46 1 10 41
M  V30 47 1 11 42
M  V30 48 1 13 43
M  V30 49 1 15 44
M  V30 50 1 17 45
M  V30 51 1 20 46
M  V30 52 1 21 47
M  V30 53 1 21 48
M  V30 54 1 22 49
M  V30 55 1 22 50
M  V30 56 1 24 51
M  V30 57 1 25 52
M  V30 58 1 27 53
M  V30 59 1 28 54
M  V30 60 1 29 55
M  V30 61 1 30 56
M  V30 62 1 34 57
M  V30 END BOND
M  V30 END CTAB
M  END
>  <Dataset>  (755) 
ChEMBL_Kinases

>  <Ligand_Instance>  (755) 
nan

>  <PDB_ID>  (755) 
nan

>  <Standardized_SMILES>  (755) 
COc1ccc2c(Nc3ccc4[nH]ncc4c3)nc(NCCc3c[nH]c4ccccc34)nc2c1

>  <Name>  (755) 
nan

>  <Pocket>  (755) 
nan

>  <ATP_Site>  (755) 
nan

>  <Peripheral>  (755) 
nan

>  <Num_H_Atoms_ProtBoundConf>  (755) 
nan

>  <Num_Resolved_Atoms>  (755) 
nan

>  <Num_Not_Resolved_Atoms>  (755) 
nan

$$$$
CHEMBL4065855
     RDKit          3D

  0  0  0  0  0  0  0  0  0  0999 V3000
M  V30 BEGIN CTAB
M  V30 COUNTS 26 27 0 0 0
M  V30 BEGIN ATOM
M  V30 1 N -0.876741 -4.649903 1.966685 0
M  V30 2 C 0.045513 -3.761196 2.628100 0
M  V30 3 O 0.849412 -4.154687 3.520260 0
M  V30 4 C 0.054790 -2.342672 2.253885 0
M  V30 5 C 0.941090 -1.518214 2.890500 0
M  V30 6 C 0.986025 -0.174654 2.570872 0
M  V30 7 C 0.133541 0.324247 1.609149 0
M  V30 8 N -0.000368 1.658082 1.136894 0
M  V30 9 C 0.274575 1.922824 -0.231837 0
M  V30 10 C 0.739239 0.970769 -1.116557 0
M  V30 11 C 1.010150 1.188374 -2.450388 0
M  V30 12 N 0.789143 2.452326 -2.891058 0
M  V30 13 C 0.339495 3.415184 -2.078085 0
M  V30 14 N 0.098216 3.140505 -0.802709 0
M  V30 15 C -0.755293 -0.534867 0.980027 0
M  V30 16 O -1.623698 -0.308004 0.078775 0
M  V30 17 N -0.780057 -1.860137 1.314372 0
M  V30 18 H -0.662947 -5.276636 1.153506 0
M  V30 19 H -1.862530 -4.655892 2.356087 0
M  V30 20 H 1.641037 -1.812257 3.647204 0
M  V30 21 H 1.628941 0.585507 2.990086 0
M  V30 22 H -0.290230 2.492907 1.712587 0
M  V30 23 H 0.929864 -0.049580 -0.776432 0
M  V30 24 H 1.375583 0.412078 -3.111950 0
M  V30 25 H 0.201076 4.382907 -2.531923 0
M  V30 26 H -1.409868 -2.583940 0.900097 0
M  V30 END ATOM
M  V30 BEGIN BOND
M  V30 1 1 1 2
M  V30 2 2 2 3
M  V30 3 1 2 4
M  V30 4 2 4 5
M  V30 5 1 5 6
M  V30 6 2 6 7
M  V30 7 1 7 8
M  V30 8 1 8 9
M  V30 9 2 9 10
M  V30 10 1 10 11
M  V30 11 2 11 12
M  V30 12 1 12 13
M  V30 13 2 13 14
M  V30 14 1 7 15
M  V30 15 2 15 16
M  V30 16 1 15 17
M  V30 17 1 17 4
M  V30 18 1 14 9
M  V30 19 1 1 18
M  V30 20 1 1 19
M  V30 21 1 5 20
M  V30 22 1 6 21
M  V30 23 1 8 22
M  V30 24 1 10 23
M  V30 25 1 11 24
M  V30 26 1 13 25
M  V30 27 1 17 26
M  V30 END BOND
M  V30 END CTAB
M  END
>  <Dataset>  (756) 
ChEMBL_Kinases

>  <Ligand_Instance>  (756) 
nan

>  <PDB_ID>  (756) 
nan

>  <Standardized_SMILES>  (756) 
NC(=O)c1ccc(Nc2ccncn2)c(=O)[nH]1

>  <Name>  (756) 
nan

>  <Pocket>  (756) 
nan

>  <ATP_Site>  (756) 
nan

>  <Peripheral>  (756) 
nan

>  <Num_H_Atoms_ProtBoundConf>  (756) 
nan

>  <Num_Resolved_Atoms>  (756) 
nan

>  <Num_Not_Resolved_Atoms>  (756) 
nan

$$$$
CHEMBL4065818
     RDKit          3D

  0  0  0  0  0  0  0  0  0  0999 V3000
M  V30 BEGIN CTAB
M  V30 COUNTS 53 56 0 0 0
M  V30 BEGIN ATOM
M  V30 1 C 2.280248 -0.268881 3.294604 0
M  V30 2 O 2.134396 -0.393507 1.881445 0
M  V30 3 C 3.190491 -1.016465 1.229103 0
M  V30 4 C 4.342026 -1.515322 1.805165 0
M  V30 5 C 5.319153 -2.114817 1.036651 0
M  V30 6 C 5.169925 -2.233087 -0.343309 0
M  V30 7 C 4.008241 -1.728575 -0.915452 0
M  V30 8 C 3.018131 -1.121050 -0.136271 0
M  V30 9 N 1.927427 -0.684796 -0.940570 0
M  V30 10 C 1.548313 0.715977 -0.988638 0
M  V30 11 C 0.147665 0.912473 -1.478334 0
M  V30 12 N -0.726309 -0.187930 -1.128330 0
M  V30 13 C -2.011476 -0.122958 -0.519294 0
M  V30 14 N -2.073355 -0.154523 0.843975 0
M  V30 15 C -3.244508 -0.098120 1.506114 0
M  V30 16 C -3.208214 -0.138290 2.963570 0
M  V30 17 C -1.990319 -0.231313 3.596561 0
M  V30 18 C -1.968483 -0.269043 4.995251 0
M  V30 19 N -3.110780 -0.216585 5.740072 0
M  V30 20 C -4.273072 -0.125783 5.058231 0
M  V30 21 N -4.341196 -0.086092 3.695969 0
M  V30 22 C -4.438223 -0.005252 0.820749 0
M  V30 23 C -4.363657 0.025906 -0.557558 0
M  V30 24 O -5.446643 0.110831 -1.205101 0
M  V30 25 N -3.171832 -0.032844 -1.179491 0
M  V30 26 C -3.142953 0.002521 -2.609675 0
M  V30 27 C -0.328912 -1.540633 -1.391449 0 CFG=2
M  V30 28 C -0.532637 -2.445115 -0.181176 0
M  V30 29 C 1.162459 -1.627762 -1.736153 0
M  V30 30 H 3.228222 0.322191 3.447897 0
M  V30 31 H 1.402133 0.175342 3.772725 0
M  V30 32 H 2.527285 -1.295820 3.685644 0
M  V30 33 H 4.414861 -1.400746 2.884421 0
M  V30 34 H 6.197568 -2.491026 1.507000 0
M  V30 35 H 5.949029 -2.706285 -0.921931 0
M  V30 36 H 3.973300 -1.862970 -2.000120 0
M  V30 37 H 2.236993 1.199553 -1.728125 0
M  V30 38 H 1.752999 1.228655 -0.025901 0
M  V30 39 H -0.219580 1.866255 -1.051729 0
M  V30 40 H 0.082600 1.039511 -2.595751 0
M  V30 41 H -1.055172 -0.275696 3.042302 0
M  V30 42 H -1.036724 -0.342189 5.555656 0
M  V30 43 H -5.193978 -0.083553 5.661283 0
M  V30 44 H -5.384604 0.040940 1.332135 0
M  V30 45 H -2.835606 -0.929548 -3.100307 0
M  V30 46 H -4.155104 0.245929 -3.042694 0
M  V30 47 H -2.491164 0.823436 -3.029800 0
M  V30 48 H -0.837164 -1.982011 -2.287652 0
M  V30 49 H -1.608027 -2.632281 0.024922 0
M  V30 50 H -0.001836 -1.969748 0.672255 0
M  V30 51 H -0.064963 -3.418996 -0.416968 0
M  V30 52 H 1.534229 -2.649057 -1.665885 0
M  V30 53 H 1.294859 -1.324832 -2.808434 0
M  V30 END ATOM
M  V30 BEGIN BOND
M  V30 1 1 1 2
M  V30 2 1 2 3
M  V30 3 2 3 4
M  V30 4 1 4 5
M  V30 5 2 5 6
M  V30 6 1 6 7
M  V30 7 2 7 8
M  V30 8 1 8 9
M  V30 9 1 9 10
M  V30 10 1 10 11
M  V30 11 1 11 12
M  V30 12 1 12 13
M  V30 13 2 13 14
M  V30 14 1 14 15
M  V30 15 1 15 16
M  V30 16 2 16 17
M  V30 17 1 17 18
M  V30 18 2 18 19
M  V30 19 1 19 20
M  V30 20 2 20 21
M  V30 21 2 15 22
M  V30 22 1 22 23
M  V30 23 2 23 24
M  V30 24 1 23 25
M  V30 25 1 25 26
M  V30 26 1 12 27
M  V30 27 1 27 28
M  V30 28 1 27 29
M  V30 29 1 8 3
M  V30 30 1 29 9
M  V30 31 1 25 13
M  V30 32 1 21 16
M  V30 33 1 1 30
M  V30 34 1 1 31
M  V30 35 1 1 32
M  V30 36 1 4 33
M  V30 37 1 5 34
M  V30 38 1 6 35
M  V30 39 1 7 36
M  V30 40 1 10 37
M  V30 41 1 10 38
M  V30 42 1 11 39
M  V30 43 1 11 40
M  V30 44 1 17 41
M  V30 45 1 18 42
M  V30 46 1 20 43
M  V30 47 1 22 44
M  V30 48 1 26 45
M  V30 49 1 26 46
M  V30 50 1 26 47
M  V30 51 1 27 48 CFG=3
M  V30 52 1 28 49
M  V30 53 1 28 50
M  V30 54 1 28 51
M  V30 55 1 29 52
M  V30 56 1 29 53
M  V30 END BOND
M  V30 END CTAB
M  END
>  <Dataset>  (757) 
ChEMBL_Kinases

>  <Ligand_Instance>  (757) 
nan

>  <PDB_ID>  (757) 
nan

>  <Standardized_SMILES>  (757) 
COc1ccccc1N1CCN(c2nc(-c3ccncn3)cc(=O)n2C)[C@H](C)C1

>  <Name>  (757) 
nan

>  <Pocket>  (757) 
nan

>  <ATP_Site>  (757) 
nan

>  <Peripheral>  (757) 
nan

>  <Num_H_Atoms_ProtBoundConf>  (757) 
nan

>  <Num_Resolved_Atoms>  (757) 
nan

>  <Num_Not_Resolved_Atoms>  (757) 
nan

$$$$
CHEMBL4861260
     RDKit          3D

  0  0  0  0  0  0  0  0  0  0999 V3000
M  V30 BEGIN CTAB
M  V30 COUNTS 42 44 0 0 0
M  V30 BEGIN ATOM
M  V30 1 N 0.235155 -4.116566 4.978513 0
M  V30 2 C 0.655688 -3.241914 4.374787 0
M  V30 3 C 1.187249 -2.151113 3.613397 0
M  V30 4 C 2.384614 -1.648488 4.019367 0
M  V30 5 N 2.922409 -0.639631 3.346803 0
M  V30 6 C 2.331158 -0.077832 2.261387 0
M  V30 7 N 2.946228 0.982109 1.553482 0
M  V30 8 C 2.903654 1.999120 0.570749 0
M  V30 9 C 2.109359 1.741659 -0.637016 0
M  V30 10 C 2.688859 1.079824 -1.717321 0
M  V30 11 N 2.072725 0.718611 -2.865894 0
M  V30 12 C 0.762948 1.006859 -3.031044 0
M  V30 13 C 0.142944 1.664151 -1.987855 0
M  V30 14 C 0.778828 2.040927 -0.796636 0
M  V30 15 C 0.048286 2.819542 0.227396 0
M  V30 16 F 0.634933 4.080123 0.394763 0
M  V30 17 F -1.226591 3.112972 -0.276642 0
M  V30 18 F -0.137526 2.208544 1.426528 0
M  V30 19 C 1.120380 -0.633168 1.900100 0
M  V30 20 C 0.484141 -1.664170 2.520002 0
M  V30 21 N -0.758902 -2.245864 2.188469 0
M  V30 22 C -1.710039 -1.975445 1.135988 0 CFG=1
M  V30 23 C -1.204856 -2.185845 -0.272946 0
M  V30 24 C -1.825301 -3.573431 -0.236543 0 CFG=1
M  V30 25 O -0.874103 -4.471638 0.251610 0
M  V30 26 C -2.707207 -3.066998 0.882391 0
M  V30 27 H 2.928436 -2.027195 4.865118 0
M  V30 28 H 3.925475 1.103783 1.932800 0
M  V30 29 H 3.957620 2.170600 0.177466 0
M  V30 30 H 2.600468 2.997277 0.987427 0
M  V30 31 H 3.735501 0.833904 -1.623760 0
M  V30 32 H 0.209972 0.748224 -3.919359 0
M  V30 33 H -0.920792 1.901666 -2.110990 0
M  V30 34 H 0.581216 -0.259406 1.032079 0
M  V30 35 H -1.095320 -3.042562 2.812177 0
M  V30 36 H -2.189342 -0.963089 1.255307 0
M  V30 37 H -1.621893 -1.496521 -1.020285 0
M  V30 38 H -0.084246 -2.206911 -0.307874 0
M  V30 39 H -2.353659 -3.897640 -1.136540 0
M  V30 40 H -1.327400 -5.018114 0.967087 0
M  V30 41 H -2.776692 -3.770131 1.740103 0
M  V30 42 H -3.669486 -2.628769 0.557126 0
M  V30 END ATOM
M  V30 BEGIN BOND
M  V30 1 3 1 2
M  V30 2 1 2 3
M  V30 3 2 3 4
M  V30 4 1 4 5
M  V30 5 2 5 6
M  V30 6 1 6 7
M  V30 7 1 7 8
M  V30 8 1 8 9
M  V30 9 2 9 10
M  V30 10 1 10 11
M  V30 11 2 11 12
M  V30 12 1 12 13
M  V30 13 2 13 14
M  V30 14 1 14 15
M  V30 15 1 15 16
M  V30 16 1 15 17
M  V30 17 1 15 18
M  V30 18 1 6 19
M  V30 19 2 19 20
M  V30 20 1 20 21
M  V30 21 1 21 22
M  V30 22 1 22 23
M  V30 23 1 23 24
M  V30 24 1 24 25
M  V30 25 1 24 26
M  V30 26 1 20 3
M  V30 27 1 26 22
M  V30 28 1 14 9
M  V30 29 1 4 27
M  V30 30 1 7 28
M  V30 31 1 8 29
M  V30 32 1 8 30
M  V30 33 1 10 31
M  V30 34 1 12 32
M  V30 35 1 13 33
M  V30 36 1 19 34
M  V30 37 1 21 35
M  V30 38 1 22 36 CFG=3
M  V30 39 1 23 37
M  V30 40 1 23 38
M  V30 41 1 24 39 CFG=3
M  V30 42 1 25 40
M  V30 43 1 26 41
M  V30 44 1 26 42
M  V30 END BOND
M  V30 END CTAB
M  END
>  <Dataset>  (758) 
ChEMBL_Kinases

>  <Ligand_Instance>  (758) 
nan

>  <PDB_ID>  (758) 
nan

>  <Standardized_SMILES>  (758) 
N#Cc1cnc(NCc2cnccc2C(F)(F)F)cc1N[C@H]1C[C@@H](O)C1

>  <Name>  (758) 
nan

>  <Pocket>  (758) 
nan

>  <ATP_Site>  (758) 
nan

>  <Peripheral>  (758) 
nan

>  <Num_H_Atoms_ProtBoundConf>  (758) 
nan

>  <Num_Resolved_Atoms>  (758) 
nan

>  <Num_Not_Resolved_Atoms>  (758) 
nan

$$$$
CHEMBL4861308
     RDKit          3D

  0  0  0  0  0  0  0  0  0  0999 V3000
M  V30 BEGIN CTAB
M  V30 COUNTS 75 79 0 0 0
M  V30 BEGIN ATOM
M  V30 1 C 5.420461 -0.376717 -0.408614 0
M  V30 2 O 4.203771 -0.043058 0.226590 0
M  V30 3 C 3.347430 0.888910 -0.226855 0
M  V30 4 C 2.505072 1.805165 -0.672250 0
M  V30 5 C 1.368335 2.451851 -0.506803 0
M  V30 6 N 0.852421 3.380653 -1.409634 0
M  V30 7 C -0.006787 4.479266 -0.942362 0
M  V30 8 C -1.438249 4.128128 -1.404550 0
M  V30 9 N -1.367162 2.948242 -2.240951 0
M  V30 10 C -2.648013 2.443257 -2.605000 0
M  V30 11 C -0.508560 3.151213 -3.360232 0
M  V30 12 C 0.892412 3.510440 -2.861079 0
M  V30 13 C 0.701326 2.040099 0.622068 0
M  V30 14 C 1.295193 1.036608 1.396132 0
M  V30 15 C 2.566437 0.501815 0.961517 0
M  V30 16 N 2.740590 -0.523643 2.011909 0
M  V30 17 C 1.939433 -0.890050 3.115765 0
M  V30 18 N 2.059716 -0.624867 4.415034 0
M  V30 19 C 1.061501 -1.102224 5.223197 0
M  V30 20 C -0.002373 -1.818097 4.688677 0
M  V30 21 C -0.987713 -2.278989 5.538326 0
M  V30 22 C -0.944357 -2.032677 6.999978 0
M  V30 23 C -2.037196 -2.985598 4.970426 0
M  V30 24 C -2.056347 -3.194419 3.611925 0
M  V30 25 O -3.068413 -3.843880 3.272559 0
M  V30 26 N -1.137084 -2.777091 2.738224 0
M  V30 27 C -1.193754 -2.980157 1.310521 0 CFG=1
M  V30 28 C 0.027608 -2.625847 0.578764 0
M  V30 29 C -0.058410 -2.993631 -0.878674 0
M  V30 30 C -1.356999 -3.674319 -1.263266 0 CFG=1
M  V30 31 N -1.185980 -4.045867 -2.669293 0
M  V30 32 C -2.018894 -3.369826 -3.615314 0
M  V30 33 C -1.819884 -3.765855 -5.041260 0
M  V30 34 O -2.885009 -2.491552 -3.369806 0
M  V30 35 C -1.479678 -4.861180 -0.377411 0
M  V30 36 C -1.685122 -4.359888 1.034538 0
M  V30 37 C -0.122936 -2.088727 3.344891 0
M  V30 38 N 0.897329 -1.581890 2.657769 0
M  V30 39 H 5.451631 -1.404232 -0.813724 0
M  V30 40 H 6.271604 -0.112908 0.233639 0
M  V30 41 H 5.502947 0.307784 -1.302019 0
M  V30 42 H 3.189571 2.021233 -1.554020 0
M  V30 43 H -0.019029 4.477555 0.145971 0
M  V30 44 H 0.270995 5.443285 -1.405767 0
M  V30 45 H -2.117922 3.989578 -0.538862 0
M  V30 46 H -1.804481 4.961754 -2.000006 0
M  V30 47 H -3.346925 2.588257 -1.735169 0
M  V30 48 H -3.116763 2.998773 -3.451960 0
M  V30 49 H -2.601712 1.365095 -2.881038 0
M  V30 50 H -0.847360 3.908183 -4.082835 0
M  V30 51 H -0.411085 2.146813 -3.857271 0
M  V30 52 H 1.146138 4.531049 -3.191420 0
M  V30 53 H 1.588055 2.748992 -3.286046 0
M  V30 54 H -0.220385 2.547596 0.788802 0
M  V30 55 H 0.598058 0.857438 2.249509 0
M  V30 56 H 3.511904 -1.208543 2.162299 0
M  V30 57 H 1.161349 -0.887552 6.263620 0
M  V30 58 H -0.902169 -0.932421 7.241550 0
M  V30 59 H -0.107493 -2.587101 7.461677 0
M  V30 60 H -1.865704 -2.470143 7.468341 0
M  V30 61 H -2.791922 -3.331864 5.669082 0
M  V30 62 H -1.988475 -2.224168 0.977071 0
M  V30 63 H 0.888732 -3.200757 0.977914 0
M  V30 64 H 0.205944 -1.513619 0.555467 0
M  V30 65 H 0.020959 -2.122376 -1.573259 0
M  V30 66 H 0.765899 -3.674867 -1.216114 0
M  V30 67 H -2.219818 -3.016233 -1.177771 0
M  V30 68 H -0.499381 -4.765847 -2.981079 0
M  V30 69 H -2.766466 -3.722764 -5.608962 0
M  V30 70 H -1.112794 -3.062263 -5.554175 0
M  V30 71 H -1.414138 -4.792179 -5.146681 0
M  V30 72 H -2.345475 -5.485491 -0.725707 0
M  V30 73 H -0.579686 -5.512806 -0.419059 0
M  V30 74 H -1.390308 -5.078593 1.812060 0
M  V30 75 H -2.818297 -4.303375 1.131340 0
M  V30 END ATOM
M  V30 BEGIN BOND
M  V30 1 1 1 2
M  V30 2 1 2 3
M  V30 3 2 3 4
M  V30 4 1 4 5
M  V30 5 1 5 6
M  V30 6 1 6 7
M  V30 7 1 7 8
M  V30 8 1 8 9
M  V30 9 1 9 10
M  V30 10 1 9 11
M  V30 11 1 11 12
M  V30 12 2 5 13
M  V30 13 1 13 14
M  V30 14 2 14 15
M  V30 15 1 15 16
M  V30 16 1 16 17
M  V30 17 2 17 18
M  V30 18 1 18 19
M  V30 19 2 19 20
M  V30 20 1 20 21
M  V30 21 1 21 22
M  V30 22 2 21 23
M  V30 23 1 23 24
M  V30 24 2 24 25
M  V30 25 1 24 26
M  V30 26 1 26 27
M  V30 27 1 27 28
M  V30 28 1 28 29
M  V30 29 1 29 30
M  V30 30 1 30 31
M  V30 31 1 31 32
M  V30 32 1 32 33
M  V30 33 2 32 34
M  V30 34 1 30 35
M  V30 35 1 35 36
M  V30 36 1 26 37
M  V30 37 2 37 38
M  V30 38 1 15 3
M  V30 39 1 38 17
M  V30 40 1 12 6
M  V30 41 1 37 20
M  V30 42 1 36 27
M  V30 43 1 1 39
M  V30 44 1 1 40
M  V30 45 1 1 41
M  V30 46 1 4 42
M  V30 47 1 7 43
M  V30 48 1 7 44
M  V30 49 1 8 45
M  V30 50 1 8 46
M  V30 51 1 10 47
M  V30 52 1 10 48
M  V30 53 1 10 49
M  V30 54 1 11 50
M  V30 55 1 11 51
M  V30 56 1 12 52
M  V30 57 1 12 53
M  V30 58 1 13 54
M  V30 59 1 14 55
M  V30 60 1 16 56
M  V30 61 1 19 57
M  V30 62 1 22 58
M  V30 63 1 22 59
M  V30 64 1 22 60
M  V30 65 1 23 61
M  V30 66 1 27 62 CFG=3
M  V30 67 1 28 63
M  V30 68 1 28 64
M  V30 69 1 29 65
M  V30 70 1 29 66
M  V30 71 1 30 67 CFG=3
M  V30 72 1 31 68
M  V30 73 1 33 69
M  V30 74 1 33 70
M  V30 75 1 33 71
M  V30 76 1 35 72
M  V30 77 1 35 73
M  V30 78 1 36 74
M  V30 79 1 36 75
M  V30 END BOND
M  V30 END CTAB
M  END
>  <Dataset>  (759) 
ChEMBL_Kinases

>  <Ligand_Instance>  (759) 
nan

>  <PDB_ID>  (759) 
nan

>  <Standardized_SMILES>  (759) 
COc1cc(N2CCN(C)CC2)ccc1Nc1ncc2c(C)cc(=O)n([C@H]3CC[C@@H](NC(C)=O)CC3)c2n1

>  <Name>  (759) 
nan

>  <Pocket>  (759) 
nan

>  <ATP_Site>  (759) 
nan

>  <Peripheral>  (759) 
nan

>  <Num_H_Atoms_ProtBoundConf>  (759) 
nan

>  <Num_Resolved_Atoms>  (759) 
nan

>  <Num_Not_Resolved_Atoms>  (759) 
nan

$$$$
CHEMBL4065697
     RDKit          3D

  0  0  0  0  0  0  0  0  0  0999 V3000
M  V30 BEGIN CTAB
M  V30 COUNTS 50 54 0 0 0
M  V30 BEGIN ATOM
M  V30 1 C 0.364949 -3.723653 3.294991 0
M  V30 2 C 0.305614 -4.032906 1.799801 0 CFG=2
M  V30 3 C -0.212766 -2.803176 1.041858 0
M  V30 4 N -0.257111 -3.157408 -0.354583 0
M  V30 5 C 0.205639 -2.388622 -1.449420 0
M  V30 6 C 0.798806 -1.191940 -1.153612 0
M  V30 7 C 1.252547 -0.411669 -2.144781 0
M  V30 8 C 2.015610 0.841407 -2.370243 0
M  V30 9 N 2.654158 1.890167 -2.558694 0
M  V30 10 N 2.720152 3.015371 -2.100791 0
M  V30 11 C 1.791272 2.940808 -1.149283 0
M  V30 12 C 1.447497 3.996377 -0.339173 0
M  V30 13 C 0.428293 3.743318 0.545449 0
M  V30 14 C -0.183395 2.518435 0.592260 0
M  V30 15 O -1.195796 2.241326 1.456150 0
M  V30 16 C -1.037143 1.717974 2.758033 0
M  V30 17 C -0.219026 2.547377 3.722007 0
M  V30 18 C -1.169547 0.276655 3.025875 0
M  V30 19 C -2.333099 1.178433 3.398339 0
M  V30 20 C 0.314623 1.601851 -0.305603 0
M  V30 21 C 1.359704 1.614391 -1.315627 0
M  V30 22 N 1.108728 -0.848810 -3.433810 0
M  V30 23 C 0.532903 -2.018537 -3.751976 0
M  V30 24 N 0.089010 -2.767935 -2.728565 0
M  V30 25 C -0.840145 -4.444378 -0.715030 0
M  V30 26 C -0.755858 -5.479501 0.350716 0
M  V30 27 O -0.642694 -5.012627 1.636251 0
M  V30 28 H 1.116581 -4.320855 3.818011 0
M  V30 29 H -0.667252 -3.889059 3.715547 0
M  V30 30 H 0.585558 -2.656179 3.453778 0
M  V30 31 H 1.298397 -4.266229 1.382922 0
M  V30 32 H 0.376109 -1.919893 1.288295 0
M  V30 33 H -1.269144 -2.700243 1.374627 0
M  V30 34 H 1.039891 -0.762347 -0.209602 0
M  V30 35 H 3.415071 3.684589 -2.525089 0
M  V30 36 H 1.923069 4.961031 -0.371755 0
M  V30 37 H 0.150406 4.552673 1.183075 0
M  V30 38 H -0.504611 3.621231 3.721389 0
M  V30 39 H -0.321169 2.189525 4.766410 0
M  V30 40 H 0.857404 2.419450 3.474300 0
M  V30 41 H -0.622408 -0.173418 3.872672 0
M  V30 42 H -1.417847 -0.451408 2.229771 0
M  V30 43 H -2.510916 1.349749 4.459762 0
M  V30 44 H -3.241120 1.195541 2.772918 0
M  V30 45 H -0.331130 0.708908 -0.197462 0
M  V30 46 H 0.334391 -2.520771 -4.686609 0
M  V30 47 H -1.905884 -4.326825 -1.020894 0
M  V30 48 H -0.319555 -4.866123 -1.619164 0
M  V30 49 H -1.695026 -6.105308 0.335601 0
M  V30 50 H 0.067783 -6.208207 0.200223 0
M  V30 END ATOM
M  V30 BEGIN BOND
M  V30 1 1 1 2
M  V30 2 1 2 3
M  V30 3 1 3 4
M  V30 4 1 4 5
M  V30 5 2 5 6
M  V30 6 1 6 7
M  V30 7 1 7 8
M  V30 8 2 8 9
M  V30 9 1 9 10
M  V30 10 1 10 11
M  V30 11 2 11 12
M  V30 12 1 12 13
M  V30 13 2 13 14
M  V30 14 1 14 15
M  V30 15 1 15 16
M  V30 16 1 16 17
M  V30 17 1 16 18
M  V30 18 1 18 19
M  V30 19 1 14 20
M  V30 20 2 20 21
M  V30 21 2 7 22
M  V30 22 1 22 23
M  V30 23 2 23 24
M  V30 24 1 4 25
M  V30 25 1 25 26
M  V30 26 1 26 27
M  V30 27 1 27 2
M  V30 28 1 24 5
M  V30 29 1 21 8
M  V30 30 1 21 11
M  V30 31 1 19 16
M  V30 32 1 1 28
M  V30 33 1 1 29
M  V30 34 1 1 30
M  V30 35 1 2 31 CFG=3
M  V30 36 1 3 32
M  V30 37 1 3 33
M  V30 38 1 6 34
M  V30 39 1 10 35
M  V30 40 1 12 36
M  V30 41 1 13 37
M  V30 42 1 17 38
M  V30 43 1 17 39
M  V30 44 1 17 40
M  V30 45 1 18 41
M  V30 46 1 18 42
M  V30 47 1 19 43
M  V30 48 1 19 44
M  V30 49 1 20 45
M  V30 50 1 23 46
M  V30 51 1 25 47
M  V30 52 1 25 48
M  V30 53 1 26 49
M  V30 54 1 26 50
M  V30 END BOND
M  V30 END CTAB
M  END
>  <Dataset>  (760) 
ChEMBL_Kinases

>  <Ligand_Instance>  (760) 
nan

>  <PDB_ID>  (760) 
nan

>  <Standardized_SMILES>  (760) 
C[C@@H]1CN(c2cc(-c3n[nH]c4ccc(OC5(C)CC5)cc34)ncn2)CCO1

>  <Name>  (760) 
nan

>  <Pocket>  (760) 
nan

>  <ATP_Site>  (760) 
nan

>  <Peripheral>  (760) 
nan

>  <Num_H_Atoms_ProtBoundConf>  (760) 
nan

>  <Num_Resolved_Atoms>  (760) 
nan

>  <Num_Not_Resolved_Atoms>  (760) 
nan

$$$$
CHEMBL4861351
     RDKit          3D

  0  0  0  0  0  0  0  0  0  0999 V3000
M  V30 BEGIN CTAB
M  V30 COUNTS 70 75 0 0 0
M  V30 BEGIN ATOM
M  V30 1 C 3.902758 -1.608107 4.956958 0
M  V30 2 C 4.700686 -1.915545 3.930747 0
M  V30 3 C 4.412753 -3.065777 3.018276 0
M  V30 4 N 4.259637 -2.550105 1.671095 0
M  V30 5 C 5.216116 -2.384609 0.738406 0
M  V30 6 O 6.437876 -2.643033 0.844606 0
M  V30 7 C 4.602856 -1.863872 -0.395019 0
M  V30 8 C 5.040830 -1.489660 -1.646133 0
M  V30 9 N 4.151137 -1.011445 -2.524517 0
M  V30 10 C 2.847967 -0.868235 -2.272272 0
M  V30 11 N 1.988376 -0.350428 -3.274824 0
M  V30 12 C 0.590438 -0.120574 -3.217985 0
M  V30 13 C -0.095552 0.398112 -4.303655 0
M  V30 14 C -1.438647 0.634505 -4.292257 0
M  V30 15 C -2.197072 0.369302 -3.192281 0
M  V30 16 N -3.599814 0.609715 -3.169271 0
M  V30 17 C -4.531691 0.433231 -2.073006 0
M  V30 18 C -5.501442 -0.719022 -2.354115 0
M  V30 19 N -5.713778 -0.805040 -3.806302 0
M  V30 20 C -5.728208 0.568725 -4.272261 0
M  V30 21 C -4.304690 1.095609 -4.338586 0
M  V30 22 C -1.569317 -0.146563 -2.085721 0
M  V30 23 C -0.210581 -0.373218 -2.131487 0
M  V30 24 N 2.471668 -1.244503 -1.046119 0
M  V30 25 C 3.266345 -1.733929 -0.089549 0
M  V30 26 N 3.096003 -2.161417 1.175954 0
M  V30 27 C 1.830809 -2.180641 1.858085 0
M  V30 28 C 0.961760 -3.225099 1.950162 0
M  V30 29 C -0.217901 -3.073643 2.647485 0
M  V30 30 C -0.561413 -1.873390 3.272253 0
M  V30 31 C 0.358638 -0.835202 3.150235 0
M  V30 32 N 1.520134 -0.999723 2.457994 0
M  V30 33 C -0.138584 0.361818 3.857739 0 CFG=1
M  V30 34 O 0.808973 1.022676 4.602549 0
M  V30 35 C -0.903801 1.289240 2.936210 0
M  V30 36 C -1.420976 2.517154 3.633214 0
M  V30 37 C -1.139235 -0.225174 4.838391 0
M  V30 38 C -1.707819 -1.391822 4.071114 0
M  V30 39 H 3.058182 -2.284910 5.023760 0
M  V30 40 H 4.289494 -0.730649 5.503447 0
M  V30 41 H 5.627304 -1.416306 3.610166 0
M  V30 42 H 5.245279 -3.796436 3.113954 0
M  V30 43 H 3.494922 -3.592512 3.361678 0
M  V30 44 H 6.087330 -1.582008 -1.910881 0
M  V30 45 H 2.447956 -0.097007 -4.200018 0
M  V30 46 H 0.476546 0.628564 -5.216766 0
M  V30 47 H -1.872852 1.047744 -5.209291 0
M  V30 48 H -5.182671 1.345685 -1.954459 0
M  V30 49 H -4.046100 0.310826 -1.092537 0
M  V30 50 H -5.084616 -1.640819 -1.948261 0
M  V30 51 H -6.491476 -0.534562 -1.893813 0
M  V30 52 H -6.685689 -1.186529 -3.956366 0
M  V30 53 H -6.346779 1.200959 -3.612925 0
M  V30 54 H -6.110654 0.554677 -5.314775 0
M  V30 55 H -4.375373 2.195589 -4.351557 0
M  V30 56 H -3.861473 0.672509 -5.263963 0
M  V30 57 H -2.142565 -0.373613 -1.183029 0
M  V30 58 H 0.208164 -0.773636 -1.239005 0
M  V30 59 H 1.266346 -4.133351 1.453178 0
M  V30 60 H -0.903252 -3.915380 2.713560 0
M  V30 61 H 1.593002 1.320878 4.076566 0
M  V30 62 H -1.738613 0.763381 2.444913 0
M  V30 63 H -0.247328 1.638985 2.091869 0
M  V30 64 H -1.117679 3.449941 3.113525 0
M  V30 65 H -2.527573 2.487252 3.625054 0
M  V30 66 H -1.129199 2.532422 4.709822 0
M  V30 67 H -0.650312 -0.543616 5.776427 0
M  V30 68 H -1.871976 0.567198 5.052056 0
M  V30 69 H -2.097835 -2.172756 4.765338 0
M  V30 70 H -2.513978 -1.017152 3.404728 0
M  V30 END ATOM
M  V30 BEGIN BOND
M  V30 1 2 1 2
M  V30 2 1 2 3
M  V30 3 1 3 4
M  V30 4 1 4 5
M  V30 5 2 5 6
M  V30 6 1 5 7
M  V30 7 2 7 8
M  V30 8 1 8 9
M  V30 9 2 9 10
M  V30 10 1 10 11
M  V30 11 1 11 12
M  V30 12 2 12 13
M  V30 13 1 13 14
M  V30 14 2 14 15
M  V30 15 1 15 16
M  V30 16 1 16 17
M  V30 17 1 17 18
M  V30 18 1 18 19
M  V30 19 1 19 20
M  V30 20 1 20 21
M  V30 21 1 15 22
M  V30 22 2 22 23
M  V30 23 1 10 24
M  V30 24 2 24 25
M  V30 25 1 25 26
M  V30 26 1 26 27
M  V30 27 2 27 28
M  V30 28 1 28 29
M  V30 29 2 29 30
M  V30 30 1 30 31
M  V30 31 2 31 32
M  V30 32 1 31 33
M  V30 33 1 33 34 CFG=1
M  V30 34 1 33 35
M  V30 35 1 35 36
M  V30 36 1 33 37
M  V30 37 1 37 38
M  V30 38 1 26 4
M  V30 39 1 32 27
M  V30 40 1 25 7
M  V30 41 1 38 30
M  V30 42 1 23 12
M  V30 43 1 21 16
M  V30 44 1 1 39
M  V30 45 1 1 40
M  V30 46 1 2 41
M  V30 47 1 3 42
M  V30 48 1 3 43
M  V30 49 1 8 44
M  V30 50 1 11 45
M  V30 51 1 13 46
M  V30 52 1 14 47
M  V30 53 1 17 48
M  V30 54 1 17 49
M  V30 55 1 18 50
M  V30 56 1 18 51
M  V30 57 1 19 52
M  V30 58 1 20 53
M  V30 59 1 20 54
M  V30 60 1 21 55
M  V30 61 1 21 56
M  V30 62 1 22 57
M  V30 63 1 23 58
M  V30 64 1 28 59
M  V30 65 1 29 60
M  V30 66 1 34 61
M  V30 67 1 35 62
M  V30 68 1 35 63
M  V30 69 1 36 64
M  V30 70 1 36 65
M  V30 71 1 36 66
M  V30 72 1 37 67
M  V30 73 1 37 68
M  V30 74 1 38 69
M  V30 75 1 38 70
M  V30 END BOND
M  V30 END CTAB
M  END
>  <Dataset>  (761) 
ChEMBL_Kinases

>  <Ligand_Instance>  (761) 
nan

>  <PDB_ID>  (761) 
nan

>  <Standardized_SMILES>  (761) 
C=CCn1c(=O)c2cnc(Nc3ccc(N4CCNCC4)cc3)nc2n1-c1ccc2c(n1)[C@@](O)(CC)CC2

>  <Name>  (761) 
nan

>  <Pocket>  (761) 
nan

>  <ATP_Site>  (761) 
nan

>  <Peripheral>  (761) 
nan

>  <Num_H_Atoms_ProtBoundConf>  (761) 
nan

>  <Num_Resolved_Atoms>  (761) 
nan

>  <Num_Not_Resolved_Atoms>  (761) 
nan

$$$$
CHEMBL4066023
     RDKit          3D

  0  0  0  0  0  0  0  0  0  0999 V3000
M  V30 BEGIN CTAB
M  V30 COUNTS 69 73 0 0 0
M  V30 BEGIN ATOM
M  V30 1 O -1.892428 7.071090 2.419322 0
M  V30 2 C -2.046860 5.868906 2.826962 0
M  V30 3 N -3.036409 5.538349 3.777258 0
M  V30 4 C -3.939531 6.507885 4.356410 0
M  V30 5 C -4.848672 5.770347 5.314560 0
M  V30 6 O -5.751277 6.642539 5.926787 0
M  V30 7 C -5.601796 4.646713 4.638520 0
M  V30 8 O -6.354344 3.989903 5.638114 0
M  V30 9 C -1.129776 4.893057 2.232757 0
M  V30 10 C -0.309539 5.270147 1.184207 0
M  V30 11 C 0.561782 4.317703 0.639187 0
M  V30 12 C 0.645605 3.004479 1.099521 0
M  V30 13 C -0.208054 2.728236 2.142648 0
M  V30 14 C -1.087227 3.610589 2.725863 0
M  V30 15 C -0.263916 1.394962 2.792168 0
M  V30 16 O -0.698254 1.419534 3.991586 0
M  V30 17 C 0.123830 0.096433 2.196442 0
M  V30 18 C -0.223107 -0.884540 3.131477 0
M  V30 19 C 0.081918 -2.179787 2.709672 0
M  V30 20 C 0.668598 -2.439699 1.485628 0
M  V30 21 N 0.947581 -3.770762 1.070620 0
M  V30 22 C 1.896501 -4.167056 0.119392 0
M  V30 23 C 1.623134 -4.867581 -1.054630 0
M  V30 24 C 2.544290 -5.258783 -1.976107 0
M  V30 25 N 2.154365 -5.972048 -3.140664 0
M  V30 26 C 1.759708 -5.842680 -4.486698 0
M  V30 27 O 1.690738 -4.690666 -4.955572 0
M  V30 28 C 1.467570 -7.078494 -5.205711 0
M  V30 29 C 1.486556 -8.379606 -4.737791 0
M  V30 30 C 1.174872 -9.459327 -5.559192 0
M  V30 31 C 0.859571 -9.101488 -6.835189 0
M  V30 32 C 0.799180 -7.876452 -7.434585 0
M  V30 33 C 1.126211 -6.853022 -6.537621 0
M  V30 34 C 3.897555 -4.951605 -1.766884 0
M  V30 35 F 4.765306 -5.364354 -2.711864 0
M  V30 36 C 4.252688 -4.245412 -0.602773 0
M  V30 37 C 3.243108 -3.901954 0.255658 0
M  V30 38 F 3.710140 -3.227719 1.339786 0
M  V30 39 C 0.979983 -1.406323 0.618278 0
M  V30 40 C 0.707587 -0.096120 0.965625 0
M  V30 41 C 1.096236 0.858528 -0.099212 0
M  V30 42 C 1.629309 2.169495 0.373690 0
M  V30 43 H -3.077187 4.532129 4.043258 0
M  V30 44 H -3.434849 7.350164 4.860370 0
M  V30 45 H -4.606398 6.973019 3.593158 0
M  V30 46 H -4.213478 5.339179 6.112339 0
M  V30 47 H -5.965732 6.378892 6.841495 0
M  V30 48 H -4.965474 3.880787 4.203613 0
M  V30 49 H -6.263485 5.064410 3.861333 0
M  V30 50 H -6.677000 3.107587 5.325063 0
M  V30 51 H -0.331314 6.272390 0.785310 0
M  V30 52 H 1.211728 4.598594 -0.183608 0
M  V30 53 H -1.669273 3.229678 3.520221 0
M  V30 54 H -0.676555 -0.625309 4.071788 0
M  V30 55 H -0.171538 -2.970586 3.409857 0
M  V30 56 H 0.531784 -4.679478 1.368290 0
M  V30 57 H 0.568912 -5.107749 -1.219662 0
M  V30 58 H 2.241890 -6.892993 -2.664717 0
M  V30 59 H 1.754293 -8.502102 -3.711667 0
M  V30 60 H 1.200444 -10.450689 -5.158329 0
M  V30 61 H 0.613273 -9.971581 -7.467903 0
M  V30 62 H 0.541803 -7.678949 -8.453228 0
M  V30 63 H 1.091567 -5.844034 -6.980651 0
M  V30 64 H 5.299795 -4.028442 -0.474576 0
M  V30 65 H 1.439337 -1.661917 -0.333890 0
M  V30 66 H 1.898700 0.374358 -0.698658 0
M  V30 67 H 0.240167 1.005358 -0.804693 0
M  V30 68 H 2.050696 2.739842 -0.477680 0
M  V30 69 H 2.474001 1.978243 1.069848 0
M  V30 END ATOM
M  V30 BEGIN BOND
M  V30 1 2 1 2
M  V30 2 1 2 3
M  V30 3 1 3 4
M  V30 4 1 4 5
M  V30 5 1 5 6
M  V30 6 1 5 7
M  V30 7 1 7 8
M  V30 8 1 2 9
M  V30 9 2 9 10
M  V30 10 1 10 11
M  V30 11 2 11 12
M  V30 12 1 12 13
M  V30 13 2 13 14
M  V30 14 1 13 15
M  V30 15 2 15 16
M  V30 16 1 15 17
M  V30 17 2 17 18
M  V30 18 1 18 19
M  V30 19 2 19 20
M  V30 20 1 20 21
M  V30 21 1 21 22
M  V30 22 2 22 23
M  V30 23 1 23 24
M  V30 24 1 24 25
M  V30 25 1 25 26
M  V30 26 2 26 27
M  V30 27 1 26 28
M  V30 28 2 28 29
M  V30 29 1 29 30
M  V30 30 2 30 31
M  V30 31 1 31 32
M  V30 32 2 32 33
M  V30 33 2 24 34
M  V30 34 1 34 35
M  V30 35 1 34 36
M  V30 36 2 36 37
M  V30 37 1 37 38
M  V30 38 1 20 39
M  V30 39 2 39 40
M  V30 40 1 40 41
M  V30 41 1 41 42
M  V30 42 1 14 9
M  V30 43 1 40 17
M  V30 44 1 42 12
M  V30 45 1 37 22
M  V30 46 1 33 28
M  V30 47 1 3 43
M  V30 48 1 4 44
M  V30 49 1 4 45
M  V30 50 1 5 46
M  V30 51 1 6 47
M  V30 52 1 7 48
M  V30 53 1 7 49
M  V30 54 1 8 50
M  V30 55 1 10 51
M  V30 56 1 11 52
M  V30 57 1 14 53
M  V30 58 1 18 54
M  V30 59 1 19 55
M  V30 60 1 21 56
M  V30 61 1 23 57
M  V30 62 1 25 58
M  V30 63 1 29 59
M  V30 64 1 30 60
M  V30 65 1 31 61
M  V30 66 1 32 62
M  V30 67 1 33 63
M  V30 68 1 36 64
M  V30 69 1 39 65
M  V30 70 1 41 66
M  V30 71 1 41 67
M  V30 72 1 42 68
M  V30 73 1 42 69
M  V30 END BOND
M  V30 END CTAB
M  END
>  <Dataset>  (762) 
ChEMBL_Kinases

>  <Ligand_Instance>  (762) 
nan

>  <PDB_ID>  (762) 
nan

>  <Standardized_SMILES>  (762) 
O=C(NCC(O)CO)c1ccc2c(c1)C(=O)c1ccc(Nc3cc(NC(=O)c4ccccc4)c(F)cc3F)cc1CC2

>  <Name>  (762) 
nan

>  <Pocket>  (762) 
nan

>  <ATP_Site>  (762) 
nan

>  <Peripheral>  (762) 
nan

>  <Num_H_Atoms_ProtBoundConf>  (762) 
nan

>  <Num_Resolved_Atoms>  (762) 
nan

>  <Num_Not_Resolved_Atoms>  (762) 
nan

$$$$
CHEMBL4861117
     RDKit          3D

  0  0  0  0  0  0  0  0  0  0999 V3000
M  V30 BEGIN CTAB
M  V30 COUNTS 50 54 0 0 0
M  V30 BEGIN ATOM
M  V30 1 C 4.418469 -0.853275 4.047694 0
M  V30 2 C 3.884855 -1.491607 2.777952 0
M  V30 3 C 3.894533 -3.000004 2.910352 0
M  V30 4 N 4.640711 -1.064601 1.619111 0
M  V30 5 C 5.795436 -1.657205 1.221655 0
M  V30 6 N 6.228207 -1.018722 0.123198 0
M  V30 7 N 5.353599 -0.069029 -0.128301 0
M  V30 8 C 4.350491 -0.054570 0.769052 0
M  V30 9 C 3.180846 0.808306 0.882017 0
M  V30 10 C 3.432430 2.138948 1.135070 0
M  V30 11 C 2.347696 2.992933 1.250069 0
M  V30 12 C 1.059967 2.567971 1.123274 0
M  V30 13 N -0.188496 3.074124 1.168017 0
M  V30 14 N -1.109171 2.126228 0.959229 0
M  V30 15 C -0.480961 0.952043 0.768435 0
M  V30 16 C -1.280407 -0.241186 0.519373 0
M  V30 17 C -1.074693 -1.467187 1.118499 0
M  V30 18 C -1.883033 -2.545805 0.822577 0
M  V30 19 C -2.926481 -2.457543 -0.076144 0
M  V30 20 C -3.167862 -1.250330 -0.698443 0
M  V30 21 C -4.231150 -0.999216 -1.670476 0
M  V30 22 C -4.378029 -0.155936 -2.777352 0
M  V30 23 N -5.595207 -0.364023 -3.293598 0
M  V30 24 N -6.250216 -1.276443 -2.608648 0
M  V30 25 C -7.597839 -1.789803 -2.839022 0
M  V30 26 C -5.435983 -1.692289 -1.595581 0
M  V30 27 C -2.343766 -0.174592 -0.388476 0
M  V30 28 C 0.867102 1.225498 0.870208 0
M  V30 29 C 1.886344 0.302697 0.740138 0
M  V30 30 H 5.356366 -0.268360 3.866322 0
M  V30 31 H 3.686609 -0.173883 4.501691 0
M  V30 32 H 4.700369 -1.632929 4.794979 0
M  V30 33 H 2.836446 -1.186621 2.617848 0
M  V30 34 H 4.472252 -3.334177 3.804827 0
M  V30 35 H 4.263694 -3.448454 1.965266 0
M  V30 36 H 2.868612 -3.393643 3.062122 0
M  V30 37 H 6.296667 -2.507156 1.702596 0
M  V30 38 H 4.439879 2.519181 1.242643 0
M  V30 39 H 2.478962 4.057623 1.450092 0
M  V30 40 H -0.344885 4.101076 1.350117 0
M  V30 41 H -0.260277 -1.551489 1.825600 0
M  V30 42 H -1.717226 -3.501936 1.294115 0
M  V30 43 H -3.584197 -3.266584 -0.340567 0
M  V30 44 H -3.549328 0.485080 -3.026570 0
M  V30 45 H -7.951191 -2.317850 -1.906511 0
M  V30 46 H -8.292321 -0.906009 -2.914231 0
M  V30 47 H -7.671933 -2.479305 -3.679196 0
M  V30 48 H -5.732227 -2.448027 -0.872484 0
M  V30 49 H -2.509840 0.786434 -0.862128 0
M  V30 50 H 1.717698 -0.739792 0.542856 0
M  V30 END ATOM
M  V30 BEGIN BOND
M  V30 1 1 1 2
M  V30 2 1 2 3
M  V30 3 1 2 4
M  V30 4 1 4 5
M  V30 5 2 5 6
M  V30 6 1 6 7
M  V30 7 2 7 8
M  V30 8 1 8 9
M  V30 9 2 9 10
M  V30 10 1 10 11
M  V30 11 2 11 12
M  V30 12 1 12 13
M  V30 13 1 13 14
M  V30 14 2 14 15
M  V30 15 1 15 16
M  V30 16 2 16 17
M  V30 17 1 17 18
M  V30 18 2 18 19
M  V30 19 1 19 20
M  V30 20 1 20 21
M  V30 21 1 21 22
M  V30 22 2 22 23
M  V30 23 1 23 24
M  V30 24 1 24 25
M  V30 25 1 24 26
M  V30 26 2 20 27
M  V30 27 1 15 28
M  V30 28 2 28 29
M  V30 29 1 8 4
M  V30 30 1 29 9
M  V30 31 1 28 12
M  V30 32 1 27 16
M  V30 33 2 26 21
M  V30 34 1 1 30
M  V30 35 1 1 31
M  V30 36 1 1 32
M  V30 37 1 2 33
M  V30 38 1 3 34
M  V30 39 1 3 35
M  V30 40 1 3 36
M  V30 41 1 5 37
M  V30 42 1 10 38
M  V30 43 1 11 39
M  V30 44 1 13 40
M  V30 45 1 17 41
M  V30 46 1 18 42
M  V30 47 1 19 43
M  V30 48 1 22 44
M  V30 49 1 25 45
M  V30 50 1 25 46
M  V30 51 1 25 47
M  V30 52 1 26 48
M  V30 53 1 27 49
M  V30 54 1 29 50
M  V30 END BOND
M  V30 END CTAB
M  END
>  <Dataset>  (763) 
ChEMBL_Kinases

>  <Ligand_Instance>  (763) 
nan

>  <PDB_ID>  (763) 
nan

>  <Standardized_SMILES>  (763) 
CC(C)n1cnnc1-c1ccc2[nH]nc(-c3cccc(-c4cnn(C)c4)c3)c2c1

>  <Name>  (763) 
nan

>  <Pocket>  (763) 
nan

>  <ATP_Site>  (763) 
nan

>  <Peripheral>  (763) 
nan

>  <Num_H_Atoms_ProtBoundConf>  (763) 
nan

>  <Num_Resolved_Atoms>  (763) 
nan

>  <Num_Not_Resolved_Atoms>  (763) 
nan

$$$$
CHEMBL4066990
     RDKit          3D

  0  0  0  0  0  0  0  0  0  0999 V3000
M  V30 BEGIN CTAB
M  V30 COUNTS 47 50 0 0 0
M  V30 BEGIN ATOM
M  V30 1 C 1.343421 -3.924126 1.629017 0
M  V30 2 N 0.080469 -3.261751 1.348055 0
M  V30 3 C 0.202323 -2.030170 0.768120 0
M  V30 4 N 1.437580 -1.431129 0.428185 0
M  V30 5 C 1.912713 -1.270056 -0.928579 0
M  V30 6 C 3.299236 -0.764221 -1.030216 0
M  V30 7 N 3.659957 0.193819 -0.068684 0
M  V30 8 C 3.012036 0.256931 1.180309 0
M  V30 9 C 2.200334 1.479318 1.380667 0
M  V30 10 C 1.965913 1.827927 2.708104 0
M  V30 11 C 1.211147 2.926498 3.088745 0
M  V30 12 C 0.655106 3.728024 2.117209 0
M  V30 13 C 0.874094 3.402602 0.787223 0
M  V30 14 C 1.631609 2.301055 0.456889 0
M  V30 15 F 1.860762 1.986468 -0.840014 0
M  V30 16 C 2.238824 -0.994122 1.510654 0
M  V30 17 N -0.951661 -1.404687 0.513197 0
M  V30 18 C -2.158506 -1.924894 0.795244 0
M  V30 19 C -3.301372 -1.095323 0.446282 0
M  V30 20 C -3.189346 0.142225 -0.124351 0
M  V30 21 C -4.134652 1.044141 -0.506814 0
M  V30 22 N -5.413743 0.614585 -0.268824 0
M  V30 23 C -5.649342 -0.585609 0.287796 0
M  V30 24 C -4.625033 -1.452192 0.651823 0
M  V30 25 C -2.298039 -3.153656 1.375127 0
M  V30 26 C -1.113364 -3.810245 1.643735 0
M  V30 27 O -1.109738 -4.963899 2.184539 0
M  V30 28 H 1.186507 -5.013462 1.824349 0
M  V30 29 H 1.724136 -3.528554 2.612032 0
M  V30 30 H 2.060530 -3.842179 0.802397 0
M  V30 31 H 1.206360 -0.520274 -1.401623 0
M  V30 32 H 1.741868 -2.212894 -1.503669 0
M  V30 33 H 4.003992 -1.629916 -1.108211 0
M  V30 34 H 3.379839 -0.310265 -2.074181 0
M  V30 35 H 3.936501 1.082141 -0.516224 0
M  V30 36 H 3.831632 0.290839 1.972822 0
M  V30 37 H 2.369787 1.235356 3.511258 0
M  V30 38 H 1.039363 3.175873 4.138166 0
M  V30 39 H 0.044530 4.611600 2.335545 0
M  V30 40 H 0.479124 3.968264 -0.051765 0
M  V30 41 H 1.750907 -0.916902 2.497439 0
M  V30 42 H 3.036299 -1.791815 1.666911 0
M  V30 43 H -2.162298 0.486366 -0.316279 0
M  V30 44 H -3.895187 1.997848 -0.954939 0
M  V30 45 H -6.685685 -0.870446 0.449868 0
M  V30 46 H -4.846590 -2.417523 1.101488 0
M  V30 47 H -3.252255 -3.575841 1.602771 0
M  V30 END ATOM
M  V30 BEGIN BOND
M  V30 1 1 1 2
M  V30 2 1 2 3
M  V30 3 1 3 4
M  V30 4 1 4 5
M  V30 5 1 5 6
M  V30 6 1 6 7
M  V30 7 1 7 8
M  V30 8 1 8 9
M  V30 9 2 9 10
M  V30 10 1 10 11
M  V30 11 2 11 12
M  V30 12 1 12 13
M  V30 13 2 13 14
M  V30 14 1 14 15
M  V30 15 1 8 16
M  V30 16 2 3 17
M  V30 17 1 17 18
M  V30 18 1 18 19
M  V30 19 2 19 20
M  V30 20 1 20 21
M  V30 21 2 21 22
M  V30 22 1 22 23
M  V30 23 2 23 24
M  V30 24 2 18 25
M  V30 25 1 25 26
M  V30 26 2 26 27
M  V30 27 1 26 2
M  V30 28 1 16 4
M  V30 29 1 24 19
M  V30 30 1 14 9
M  V30 31 1 1 28
M  V30 32 1 1 29
M  V30 33 1 1 30
M  V30 34 1 5 31
M  V30 35 1 5 32
M  V30 36 1 6 33
M  V30 37 1 6 34
M  V30 38 1 7 35
M  V30 39 1 8 36
M  V30 40 1 10 37
M  V30 41 1 11 38
M  V30 42 1 12 39
M  V30 43 1 13 40
M  V30 44 1 16 41
M  V30 45 1 16 42
M  V30 46 1 20 43
M  V30 47 1 21 44
M  V30 48 1 23 45
M  V30 49 1 24 46
M  V30 50 1 25 47
M  V30 END BOND
M  V30 END CTAB
M  END
>  <Dataset>  (764) 
ChEMBL_Kinases

>  <Ligand_Instance>  (764) 
nan

>  <PDB_ID>  (764) 
nan

>  <Standardized_SMILES>  (764) 
Cn1c(N2CCNC(c3ccccc3F)C2)nc(-c2ccncc2)cc1=O

>  <Name>  (764) 
nan

>  <Pocket>  (764) 
nan

>  <ATP_Site>  (764) 
nan

>  <Peripheral>  (764) 
nan

>  <Num_H_Atoms_ProtBoundConf>  (764) 
nan

>  <Num_Resolved_Atoms>  (764) 
nan

>  <Num_Not_Resolved_Atoms>  (764) 
nan

$$$$
CHEMBL4066983
     RDKit          3D

  0  0  0  0  0  0  0  0  0  0999 V3000
M  V30 BEGIN CTAB
M  V30 COUNTS 47 51 0 0 0
M  V30 BEGIN ATOM
M  V30 1 C -0.492669 -6.498452 -0.134831 0
M  V30 2 C -1.467674 -5.373520 -0.434181 0
M  V30 3 O -1.099473 -4.434835 -1.426931 0
M  V30 4 C 0.041175 -3.650526 -1.331954 0
M  V30 5 C 1.264282 -4.062323 -1.837010 0
M  V30 6 C 2.416230 -3.301186 -1.756064 0
M  V30 7 C 2.299237 -2.057249 -1.124177 0
M  V30 8 N 3.244887 -1.098710 -0.895858 0
M  V30 9 N 2.659043 -0.103070 -0.267043 0
M  V30 10 C 1.353277 -0.363687 -0.067205 0
M  V30 11 C 0.353752 0.487401 0.595454 0
M  V30 12 C 0.774743 1.725732 1.092474 0
M  V30 13 C -0.193635 2.473052 1.697684 0
M  V30 14 N 0.114351 3.747498 2.240762 0
M  V30 15 C 1.395601 4.420939 2.244753 0
M  V30 16 C 1.856135 4.515731 3.671497 0
M  V30 17 O 0.908203 5.131633 4.444542 0
M  V30 18 C -0.188218 5.623485 3.786011 0
M  V30 19 C -0.860123 4.595016 2.901616 0
M  V30 20 N -1.470811 2.069656 1.820451 0
M  V30 21 C -1.857411 0.854987 1.326323 0
M  V30 22 N -0.927298 0.075195 0.714877 0
M  V30 23 C 1.094176 -1.607068 -0.605041 0
M  V30 24 C -0.022194 -2.407873 -0.714097 0
M  V30 25 C -2.396966 -4.961589 0.661503 0
M  V30 26 C -2.915763 -5.820276 -0.448199 0
M  V30 27 H 0.548517 -6.157374 -0.033767 0
M  V30 28 H -0.540199 -7.303778 -0.910964 0
M  V30 29 H -0.784809 -6.969989 0.823215 0
M  V30 30 H 1.263602 -5.032894 -2.306973 0
M  V30 31 H 3.347338 -3.665590 -2.165192 0
M  V30 32 H 4.243619 -1.166155 -1.178011 0
M  V30 33 H 1.784011 2.020628 0.983849 0
M  V30 34 H 1.267174 5.416032 1.768540 0
M  V30 35 H 2.181677 3.897888 1.664497 0
M  V30 36 H 2.769473 5.144662 3.686677 0
M  V30 37 H 2.160693 3.503826 4.007848 0
M  V30 38 H 0.079798 6.544934 3.213280 0
M  V30 39 H -0.935997 5.936973 4.542510 0
M  V30 40 H -1.503977 3.980915 3.588162 0
M  V30 41 H -1.488374 5.152095 2.173446 0
M  V30 42 H -2.872093 0.491667 1.403092 0
M  V30 43 H -0.970043 -2.072303 -0.314777 0
M  V30 44 H -2.217587 -5.417002 1.658162 0
M  V30 45 H -2.828038 -3.948844 0.696217 0
M  V30 46 H -3.611808 -5.428762 -1.205215 0
M  V30 47 H -3.185749 -6.851163 -0.128352 0
M  V30 END ATOM
M  V30 BEGIN BOND
M  V30 1 1 1 2
M  V30 2 1 2 3
M  V30 3 1 3 4
M  V30 4 2 4 5
M  V30 5 1 5 6
M  V30 6 2 6 7
M  V30 7 1 7 8
M  V30 8 1 8 9
M  V30 9 2 9 10
M  V30 10 1 10 11
M  V30 11 2 11 12
M  V30 12 1 12 13
M  V30 13 1 13 14
M  V30 14 1 14 15
M  V30 15 1 15 16
M  V30 16 1 16 17
M  V30 17 1 17 18
M  V30 18 1 18 19
M  V30 19 2 13 20
M  V30 20 1 20 21
M  V30 21 2 21 22
M  V30 22 1 10 23
M  V30 23 2 23 24
M  V30 24 1 2 25
M  V30 25 1 25 26
M  V30 26 1 26 2
M  V30 27 1 24 4
M  V30 28 1 23 7
M  V30 29 1 22 11
M  V30 30 1 19 14
M  V30 31 1 1 27
M  V30 32 1 1 28
M  V30 33 1 1 29
M  V30 34 1 5 30
M  V30 35 1 6 31
M  V30 36 1 8 32
M  V30 37 1 12 33
M  V30 38 1 15 34
M  V30 39 1 15 35
M  V30 40 1 16 36
M  V30 41 1 16 37
M  V30 42 1 18 38
M  V30 43 1 18 39
M  V30 44 1 19 40
M  V30 45 1 19 41
M  V30 46 1 21 42
M  V30 47 1 24 43
M  V30 48 1 25 44
M  V30 49 1 25 45
M  V30 50 1 26 46
M  V30 51 1 26 47
M  V30 END BOND
M  V30 END CTAB
M  END
>  <Dataset>  (765) 
ChEMBL_Kinases

>  <Ligand_Instance>  (765) 
nan

>  <PDB_ID>  (765) 
nan

>  <Standardized_SMILES>  (765) 
CC1(Oc2ccc3[nH]nc(-c4cc(N5CCOCC5)ncn4)c3c2)CC1

>  <Name>  (765) 
nan

>  <Pocket>  (765) 
nan

>  <ATP_Site>  (765) 
nan

>  <Peripheral>  (765) 
nan

>  <Num_H_Atoms_ProtBoundConf>  (765) 
nan

>  <Num_Resolved_Atoms>  (765) 
nan

>  <Num_Not_Resolved_Atoms>  (765) 
nan

$$$$
CHEMBL4066968
     RDKit          3D

  0  0  0  0  0  0  0  0  0  0999 V3000
M  V30 BEGIN CTAB
M  V30 COUNTS 64 68 0 0 0
M  V30 BEGIN ATOM
M  V30 1 C 4.527009 -6.782567 2.796563 0
M  V30 2 N 4.980366 -5.826667 1.786735 0
M  V30 3 C 4.328623 -4.565764 1.651146 0
M  V30 4 N 4.747549 -3.476442 2.357595 0
M  V30 5 C 4.110682 -2.289940 2.210457 0
M  V30 6 C 3.039320 -2.187852 1.345445 0
M  V30 7 C 2.395506 -0.883441 1.231422 0
M  V30 8 C 2.048920 -0.330377 0.014076 0
M  V30 9 C 1.432719 0.927146 -0.025760 0
M  V30 10 C 1.148864 1.654987 1.106898 0
M  V30 11 C 0.507044 2.953536 0.976996 0
M  V30 12 O 0.257466 3.313400 -0.202940 0
M  V30 13 N 0.160238 3.799905 2.032696 0
M  V30 14 C -0.478092 5.100853 1.985530 0
M  V30 15 C -1.807314 4.936471 1.341841 0
M  V30 16 N -2.948166 4.628581 2.009815 0
M  V30 17 C -3.995206 4.550810 1.168639 0
M  V30 18 C -5.327419 4.264036 1.429577 0
M  V30 19 C -6.221393 4.246754 0.359235 0
M  V30 20 C -5.729781 4.515251 -0.892949 0
M  V30 21 C -4.401798 4.799080 -1.138545 0
M  V30 22 C -3.508469 4.819002 -0.088446 0
M  V30 23 N -2.198323 5.043423 0.062463 0
M  V30 24 C 1.515875 1.055840 2.291969 0
M  V30 25 C 2.124034 -0.178191 2.386305 0
M  V30 26 C 2.614537 -3.308404 0.623895 0
M  V30 27 O 1.540553 -3.063080 -0.196794 0
M  V30 28 C 0.932860 -4.013489 -1.015840 0
M  V30 29 C -0.219419 -3.403649 -1.784772 0
M  V30 30 C -0.925339 -4.359261 -2.687341 0
M  V30 31 C -2.156426 -4.992844 -2.089078 0
M  V30 32 N -2.980956 -3.975807 -1.465134 0
M  V30 33 C -2.284728 -3.395938 -0.332101 0
M  V30 34 C -1.100780 -2.638184 -0.848677 0
M  V30 35 N 3.271163 -4.474829 0.794171 0
M  V30 36 H 3.752005 -6.322748 3.460286 0
M  V30 37 H 5.359778 -7.072067 3.482199 0
M  V30 38 H 4.066502 -7.677945 2.356778 0
M  V30 39 H 5.791801 -6.151466 1.205489 0
M  V30 40 H 4.441580 -1.419921 2.771544 0
M  V30 41 H 2.264575 -0.889110 -0.890819 0
M  V30 42 H 1.204564 1.265320 -1.029079 0
M  V30 43 H 0.424594 3.379905 2.973128 0
M  V30 44 H -0.647733 5.442218 3.012694 0
M  V30 45 H 0.142921 5.813359 1.399433 0
M  V30 46 H -5.656702 4.061595 2.429546 0
M  V30 47 H -7.271364 4.025472 0.532208 0
M  V30 48 H -6.459071 4.493124 -1.706992 0
M  V30 49 H -4.032954 5.008603 -2.135758 0
M  V30 50 H -1.564205 5.276639 -0.729033 0
M  V30 51 H 1.318284 1.579436 3.212113 0
M  V30 52 H 2.388971 -0.595643 3.357715 0
M  V30 53 H 0.627450 -4.943546 -0.514675 0
M  V30 54 H 1.692937 -4.318705 -1.791526 0
M  V30 55 H 0.273587 -2.644556 -2.461954 0
M  V30 56 H -1.274629 -3.815374 -3.606488 0
M  V30 57 H -0.218059 -5.146086 -3.019113 0
M  V30 58 H -1.936792 -5.828128 -1.411110 0
M  V30 59 H -2.766559 -5.413167 -2.909364 0
M  V30 60 H -3.150423 -3.234572 -2.182127 0
M  V30 61 H -2.963611 -2.646973 0.132812 0
M  V30 62 H -2.057309 -4.212813 0.361572 0
M  V30 63 H -1.485361 -1.745327 -1.377704 0
M  V30 64 H -0.454029 -2.315254 0.016848 0
M  V30 END ATOM
M  V30 BEGIN BOND
M  V30 1 1 1 2
M  V30 2 1 2 3
M  V30 3 2 3 4
M  V30 4 1 4 5
M  V30 5 2 5 6
M  V30 6 1 6 7
M  V30 7 2 7 8
M  V30 8 1 8 9
M  V30 9 2 9 10
M  V30 10 1 10 11
M  V30 11 2 11 12
M  V30 12 1 11 13
M  V30 13 1 13 14
M  V30 14 1 14 15
M  V30 15 2 15 16
M  V30 16 1 16 17
M  V30 17 2 17 18
M  V30 18 1 18 19
M  V30 19 2 19 20
M  V30 20 1 20 21
M  V30 21 2 21 22
M  V30 22 1 22 23
M  V30 23 1 10 24
M  V30 24 2 24 25
M  V30 25 1 6 26
M  V30 26 1 26 27
M  V30 27 1 27 28
M  V30 28 1 28 29
M  V30 29 1 29 30
M  V30 30 1 30 31
M  V30 31 1 31 32
M  V30 32 1 32 33
M  V30 33 1 33 34
M  V30 34 2 26 35
M  V30 35 1 35 3
M  V30 36 1 25 7
M  V30 37 1 34 29
M  V30 38 1 23 15
M  V30 39 1 22 17
M  V30 40 1 1 36
M  V30 41 1 1 37
M  V30 42 1 1 38
M  V30 43 1 2 39
M  V30 44 1 5 40
M  V30 45 1 8 41
M  V30 46 1 9 42
M  V30 47 1 13 43
M  V30 48 1 14 44
M  V30 49 1 14 45
M  V30 50 1 18 46
M  V30 51 1 19 47
M  V30 52 1 20 48
M  V30 53 1 21 49
M  V30 54 1 23 50
M  V30 55 1 24 51
M  V30 56 1 25 52
M  V30 57 1 28 53
M  V30 58 1 28 54
M  V30 59 1 29 55
M  V30 60 1 30 56
M  V30 61 1 30 57
M  V30 62 1 31 58
M  V30 63 1 31 59
M  V30 64 1 32 60
M  V30 65 1 33 61
M  V30 66 1 33 62
M  V30 67 1 34 63
M  V30 68 1 34 64
M  V30 END BOND
M  V30 END CTAB
M  END
>  <Dataset>  (766) 
ChEMBL_Kinases

>  <Ligand_Instance>  (766) 
nan

>  <PDB_ID>  (766) 
nan

>  <Standardized_SMILES>  (766) 
CNc1ncc(-c2ccc(C(=O)NCc3nc4ccccc4[nH]3)cc2)c(OCC2CCNCC2)n1

>  <Name>  (766) 
nan

>  <Pocket>  (766) 
nan

>  <ATP_Site>  (766) 
nan

>  <Peripheral>  (766) 
nan

>  <Num_H_Atoms_ProtBoundConf>  (766) 
nan

>  <Num_Resolved_Atoms>  (766) 
nan

>  <Num_Not_Resolved_Atoms>  (766) 
nan

$$$$
CHEMBL4066959
     RDKit          3D

  0  0  0  0  0  0  0  0  0  0999 V3000
M  V30 BEGIN CTAB
M  V30 COUNTS 56 60 0 0 0
M  V30 BEGIN ATOM
M  V30 1 C 2.608616 -4.471248 3.712171 0
M  V30 2 N 3.645013 -3.655208 3.125376 0
M  V30 3 C 3.640669 -2.303461 3.133707 0
M  V30 4 C 4.771769 -1.846043 2.491153 0
M  V30 5 C 5.377745 -0.568172 2.144110 0
M  V30 6 C 6.732379 -0.361314 2.427979 0
M  V30 7 C 7.438447 0.794467 2.168329 0
M  V30 8 N 6.749382 1.795411 1.593681 0
M  V30 9 C 5.448763 1.641779 1.303419 0
M  V30 10 C 4.736924 0.500673 1.555592 0
M  V30 11 C 3.330389 0.360445 1.219473 0
M  V30 12 C 2.569875 1.282525 0.663954 0
M  V30 13 C 1.150110 1.085320 0.345522 0
M  V30 14 O 0.639914 -0.037615 0.625330 0
M  V30 15 N 0.404937 2.112469 -0.245300 0
M  V30 16 C -0.962514 1.720066 -0.476164 0
M  V30 17 C -1.897608 1.950631 0.515306 0
M  V30 18 C -3.221462 1.594481 0.346540 0
M  V30 19 C -3.612368 0.995957 -0.839874 0
M  V30 20 C -5.021537 0.560944 -1.148373 0
M  V30 21 N -5.148602 -0.805582 -0.693296 0
M  V30 22 C -6.468297 -1.368958 -0.926124 0
M  V30 23 C -6.223678 -2.777978 -1.440425 0
M  V30 24 C -4.844350 -3.033940 -0.806269 0
M  V30 25 C -4.278349 -1.713245 -1.363804 0
M  V30 26 C -4.705999 -1.938122 -2.803018 0
M  V30 27 O -5.881505 -2.687723 -2.768069 0
M  V30 28 C -2.672815 0.774160 -1.813345 0
M  V30 29 C -1.324921 1.123429 -1.672259 0
M  V30 30 C 5.455577 -3.002533 2.096804 0
M  V30 31 N 4.729297 -4.079986 2.505926 0
M  V30 32 H 2.622228 -5.489621 3.276259 0
M  V30 33 H 1.608659 -3.992696 3.566098 0
M  V30 34 H 2.780326 -4.570541 4.798160 0
M  V30 35 H 2.958469 -1.590741 3.529386 0
M  V30 36 H 7.267465 -1.191784 2.894866 0
M  V30 37 H 8.498933 0.820346 2.443479 0
M  V30 38 H 5.000594 2.505817 0.846783 0
M  V30 39 H 2.786926 -0.548371 1.405378 0
M  V30 40 H 3.035787 2.250686 0.430138 0
M  V30 41 H 0.816499 3.041598 -0.479755 0
M  V30 42 H -1.669148 2.413211 1.468470 0
M  V30 43 H -4.016833 1.737078 1.066573 0
M  V30 44 H -5.663266 1.247593 -0.583697 0
M  V30 45 H -5.199065 0.682784 -2.226922 0
M  V30 46 H -7.030268 -0.770514 -1.686657 0
M  V30 47 H -7.093339 -1.407032 -0.019809 0
M  V30 48 H -6.969982 -3.491965 -1.181749 0
M  V30 49 H -4.335907 -3.896832 -1.233135 0
M  V30 50 H -4.911172 -3.023969 0.290441 0
M  V30 51 H -3.224978 -1.595991 -1.209737 0
M  V30 52 H -3.927676 -2.641823 -3.218001 0
M  V30 53 H -4.802500 -1.010278 -3.381257 0
M  V30 54 H -2.867813 0.310041 -2.786518 0
M  V30 55 H -0.578369 0.950574 -2.438018 0
M  V30 56 H 6.372133 -3.185059 1.574020 0
M  V30 END ATOM
M  V30 BEGIN BOND
M  V30 1 1 1 2
M  V30 2 1 2 3
M  V30 3 2 3 4
M  V30 4 1 4 5
M  V30 5 2 5 6
M  V30 6 1 6 7
M  V30 7 2 7 8
M  V30 8 1 8 9
M  V30 9 2 9 10
M  V30 10 1 10 11
M  V30 11 2 11 12
M  V30 12 1 12 13
M  V30 13 2 13 14
M  V30 14 1 13 15
M  V30 15 1 15 16
M  V30 16 2 16 17
M  V30 17 1 17 18
M  V30 18 2 18 19
M  V30 19 1 19 20
M  V30 20 1 20 21
M  V30 21 1 21 22
M  V30 22 1 22 23
M  V30 23 1 23 24
M  V30 24 1 24 25
M  V30 25 1 25 26
M  V30 26 1 26 27
M  V30 27 1 19 28
M  V30 28 2 28 29
M  V30 29 1 4 30
M  V30 30 2 30 31
M  V30 31 1 31 2
M  V30 32 1 10 5
M  V30 33 1 29 16
M  V30 34 1 25 21
M  V30 35 1 27 23
M  V30 36 1 1 32
M  V30 37 1 1 33
M  V30 38 1 1 34
M  V30 39 1 3 35
M  V30 40 1 6 36
M  V30 41 1 7 37
M  V30 42 1 9 38
M  V30 43 1 11 39
M  V30 44 1 12 40
M  V30 45 1 15 41
M  V30 46 1 17 42
M  V30 47 1 18 43
M  V30 48 1 20 44
M  V30 49 1 20 45
M  V30 50 1 22 46
M  V30 51 1 22 47
M  V30 52 1 23 48
M  V30 53 1 24 49
M  V30 54 1 24 50
M  V30 55 1 25 51
M  V30 56 1 26 52
M  V30 57 1 26 53
M  V30 58 1 28 54
M  V30 59 1 29 55
M  V30 60 1 30 56
M  V30 END BOND
M  V30 END CTAB
M  END
>  <Dataset>  (767) 
ChEMBL_Kinases

>  <Ligand_Instance>  (767) 
nan

>  <PDB_ID>  (767) 
nan

>  <Standardized_SMILES>  (767) 
Cn1cc(-c2ccncc2/C=C/C(=O)Nc2ccc(CN3CC4CC3CO4)cc2)cn1

>  <Name>  (767) 
nan

>  <Pocket>  (767) 
nan

>  <ATP_Site>  (767) 
nan

>  <Peripheral>  (767) 
nan

>  <Num_H_Atoms_ProtBoundConf>  (767) 
nan

>  <Num_Resolved_Atoms>  (767) 
nan

>  <Num_Not_Resolved_Atoms>  (767) 
nan

$$$$
CHEMBL4066939
     RDKit          3D

  0  0  0  0  0  0  0  0  0  0999 V3000
M  V30 BEGIN CTAB
M  V30 COUNTS 75 79 0 0 0
M  V30 BEGIN ATOM
M  V30 1 C 3.425102 -6.535615 2.072881 0
M  V30 2 N 4.569008 -5.773556 2.514425 0
M  V30 3 C 5.111267 -4.642392 1.821551 0
M  V30 4 C 4.569678 -4.244468 0.618318 0
M  V30 5 C 5.195440 -3.109524 0.074202 0
M  V30 6 C 4.771775 -2.539188 -1.252898 0
M  V30 7 C 4.496297 -1.108732 -1.183234 0
M  V30 8 O 4.323618 -1.616352 -0.009820 0
M  V30 9 N 4.350864 0.251275 -1.653229 0
M  V30 10 C 3.922824 0.984278 -0.479870 0
M  V30 11 C 2.529529 0.991431 -0.422470 0
M  V30 12 C 2.011490 1.647225 0.707629 0
M  V30 13 C 0.537629 1.658076 0.771478 0
M  V30 14 O -0.132117 1.382323 -0.282045 0
M  V30 15 N -0.311415 1.926286 1.859755 0
M  V30 16 C -1.630509 1.773167 1.351377 0
M  V30 17 C -2.123993 0.460981 1.397913 0
M  V30 18 C -3.430772 0.298777 0.888630 0
M  V30 19 C -4.184058 1.377765 0.372884 0
M  V30 20 O -5.318748 0.812123 0.010395 0
M  V30 21 C -6.531510 0.971737 -0.553760 0
M  V30 22 C -6.733027 0.052831 -1.778868 0
M  V30 23 C -7.306390 -1.271979 -1.418626 0
M  V30 24 N -7.083391 -1.723218 -0.087540 0
M  V30 25 C -5.859058 -2.444300 0.093215 0
M  V30 26 C -7.411621 -0.808453 0.958023 0
M  V30 27 C -7.619143 0.604878 0.448838 0
M  V30 28 C -3.594235 2.612625 0.383513 0
M  V30 29 C -4.447442 3.677061 -0.142009 0
M  V30 30 F -5.583901 3.817806 0.613872 0
M  V30 31 F -4.675049 3.575051 -1.495887 0
M  V30 32 F -3.737252 4.873744 0.050179 0
M  V30 33 C -2.323615 2.850453 0.861482 0
M  V30 34 C 2.883369 2.199109 1.613328 0
M  V30 35 C 4.249924 2.144931 1.473630 0
M  V30 36 C 4.826261 1.521113 0.397449 0
M  V30 37 C 6.281868 1.408510 0.148052 0
M  V30 38 C 5.486946 -3.157248 -2.395548 0
M  V30 39 C 4.053483 -3.481591 -2.144082 0
M  V30 40 N 6.230697 -2.434544 0.632275 0
M  V30 41 C 6.692543 -2.896011 1.805096 0
M  V30 42 N 6.133075 -3.967185 2.360499 0
M  V30 43 H 2.857639 -6.927827 2.967111 0
M  V30 44 H 2.756925 -5.826814 1.504523 0
M  V30 45 H 3.786842 -7.354573 1.431192 0
M  V30 46 H 5.021790 -6.081883 3.405050 0
M  V30 47 H 3.760924 -4.724421 0.132297 0
M  V30 48 H 4.634294 -0.009252 -2.610236 0
M  V30 49 H 1.884708 0.542693 -1.160544 0
M  V30 50 H 0.148962 2.162019 2.765019 0
M  V30 51 H -1.491709 -0.340116 1.811749 0
M  V30 52 H -3.680040 -0.775495 0.990180 0
M  V30 53 H -6.734718 2.017753 -0.854968 0
M  V30 54 H -5.784251 0.014090 -2.320580 0
M  V30 55 H -7.486193 0.578104 -2.409807 0
M  V30 56 H -8.385600 -1.341721 -1.672872 0
M  V30 57 H -6.796765 -2.022471 -2.091866 0
M  V30 58 H -5.510295 -2.452127 1.155910 0
M  V30 59 H -6.002977 -3.509718 -0.192702 0
M  V30 60 H -5.097238 -2.014796 -0.571707 0
M  V30 61 H -8.411317 -1.128226 1.378075 0
M  V30 62 H -6.675074 -0.866932 1.783851 0
M  V30 63 H -8.633582 0.628573 -0.014059 0
M  V30 64 H -7.596552 1.276189 1.324901 0
M  V30 65 H -1.929394 3.854264 0.835820 0
M  V30 66 H 2.359014 2.672595 2.428591 0
M  V30 67 H 4.881516 2.599623 2.219886 0
M  V30 68 H 6.837320 0.918608 0.989613 0
M  V30 69 H 6.495327 0.918119 -0.816361 0
M  V30 70 H 6.665285 2.461107 0.020468 0
M  V30 71 H 5.738059 -2.503399 -3.252581 0
M  V30 72 H 6.250899 -3.950231 -2.210378 0
M  V30 73 H 3.800338 -4.513486 -1.842300 0
M  V30 74 H 3.354116 -3.106514 -2.921240 0
M  V30 75 H 7.522421 -2.394050 2.297811 0
M  V30 END ATOM
M  V30 BEGIN BOND
M  V30 1 1 1 2
M  V30 2 1 2 3
M  V30 3 2 3 4
M  V30 4 1 4 5
M  V30 5 1 5 6
M  V30 6 1 6 7
M  V30 7 2 7 8
M  V30 8 1 7 9
M  V30 9 1 9 10
M  V30 10 2 10 11
M  V30 11 1 11 12
M  V30 12 1 12 13
M  V30 13 2 13 14
M  V30 14 1 13 15
M  V30 15 1 15 16
M  V30 16 2 16 17
M  V30 17 1 17 18
M  V30 18 2 18 19
M  V30 19 1 19 20
M  V30 20 1 20 21
M  V30 21 1 21 22
M  V30 22 1 22 23
M  V30 23 1 23 24
M  V30 24 1 24 25
M  V30 25 1 24 26
M  V30 26 1 26 27
M  V30 27 1 19 28
M  V30 28 1 28 29
M  V30 29 1 29 30
M  V30 30 1 29 31
M  V30 31 1 29 32
M  V30 32 2 28 33
M  V30 33 2 12 34
M  V30 34 1 34 35
M  V30 35 2 35 36
M  V30 36 1 36 37
M  V30 37 1 6 38
M  V30 38 1 38 39
M  V30 39 2 5 40
M  V30 40 1 40 41
M  V30 41 2 41 42
M  V30 42 1 42 3
M  V30 43 1 39 6
M  V30 44 1 36 10
M  V30 45 1 33 16
M  V30 46 1 27 21
M  V30 47 1 1 43
M  V30 48 1 1 44
M  V30 49 1 1 45
M  V30 50 1 2 46
M  V30 51 1 4 47
M  V30 52 1 9 48
M  V30 53 1 11 49
M  V30 54 1 15 50
M  V30 55 1 17 51
M  V30 56 1 18 52
M  V30 57 1 21 53
M  V30 58 1 22 54
M  V30 59 1 22 55
M  V30 60 1 23 56
M  V30 61 1 23 57
M  V30 62 1 25 58
M  V30 63 1 25 59
M  V30 64 1 25 60
M  V30 65 1 26 61
M  V30 66 1 26 62
M  V30 67 1 27 63
M  V30 68 1 27 64
M  V30 69 1 33 65
M  V30 70 1 34 66
M  V30 71 1 35 67
M  V30 72 1 37 68
M  V30 73 1 37 69
M  V30 74 1 37 70
M  V30 75 1 38 71
M  V30 76 1 38 72
M  V30 77 1 39 73
M  V30 78 1 39 74
M  V30 79 1 41 75
M  V30 END BOND
M  V30 END CTAB
M  END
>  <Dataset>  (768) 
ChEMBL_Kinases

>  <Ligand_Instance>  (768) 
nan

>  <PDB_ID>  (768) 
nan

>  <Standardized_SMILES>  (768) 
CNc1cc(C2(C(=O)Nc3cc(C(=O)Nc4ccc(OC5CCN(C)CC5)c(C(F)(F)F)c4)ccc3C)CC2)ncn1

>  <Name>  (768) 
nan

>  <Pocket>  (768) 
nan

>  <ATP_Site>  (768) 
nan

>  <Peripheral>  (768) 
nan

>  <Num_H_Atoms_ProtBoundConf>  (768) 
nan

>  <Num_Resolved_Atoms>  (768) 
nan

>  <Num_Not_Resolved_Atoms>  (768) 
nan

$$$$
CHEMBL4066884
     RDKit          3D

  0  0  0  0  0  0  0  0  0  0999 V3000
M  V30 BEGIN CTAB
M  V30 COUNTS 47 50 0 0 0
M  V30 BEGIN ATOM
M  V30 1 C 1.388816 -2.787775 4.718784 0
M  V30 2 C 0.298956 -2.995510 3.723852 0
M  V30 3 C 0.274234 -3.110412 2.339188 0
M  V30 4 C -1.045114 -3.294478 1.910842 0
M  V30 5 N -1.018263 -3.409811 0.479340 0
M  V30 6 C -1.038526 -2.224682 -0.347374 0
M  V30 7 N 0.148546 -1.589579 -0.530174 0
M  V30 8 C 0.291993 -0.476658 -1.282023 0
M  V30 9 C 1.670536 -0.018136 -1.276432 0
M  V30 10 O 2.475967 -0.863505 -1.794356 0
M  V30 11 N 1.733766 1.271542 -0.677108 0
M  V30 12 C 0.698810 2.149542 -0.133135 0
M  V30 13 C 1.034887 2.367742 1.326433 0
M  V30 14 N 2.176104 1.581944 1.740717 0
M  V30 15 C 2.314676 1.699010 3.156617 0
M  V30 16 C 3.354241 1.815158 0.974574 0
M  V30 17 C 3.062275 1.888610 -0.515216 0
M  V30 18 N -0.800649 0.039055 -1.890012 0
M  V30 19 C -2.004727 -0.560980 -1.735932 0
M  V30 20 C -3.096513 -0.018381 -2.362721 0
M  V30 21 C -4.335747 -0.651360 -2.192832 0
M  V30 22 C -4.432364 -1.791045 -1.409772 0
M  V30 23 Cl -5.993385 -2.582169 -1.197980 0
M  V30 24 C -3.354588 -2.363686 -0.765152 0
M  V30 25 C -2.166630 -1.694421 -0.972804 0
M  V30 26 N -1.811832 -3.291070 3.043232 0
M  V30 27 N -1.004887 -3.115163 4.089212 0
M  V30 28 H 1.492902 -3.684126 5.352843 0
M  V30 29 H 1.168025 -1.918968 5.349191 0
M  V30 30 H 2.335541 -2.605511 4.150625 0
M  V30 31 H 1.277343 -3.027537 1.920089 0
M  V30 32 H -0.984580 -4.351656 0.018806 0
M  V30 33 H -0.292344 1.709352 -0.278361 0
M  V30 34 H 0.787221 3.118372 -0.674182 0
M  V30 35 H 0.168893 1.974771 1.912257 0
M  V30 36 H 1.145373 3.448624 1.526588 0
M  V30 37 H 1.340353 1.313615 3.590506 0
M  V30 38 H 3.148918 1.108375 3.560281 0
M  V30 39 H 2.422283 2.764282 3.471789 0
M  V30 40 H 3.875402 2.725377 1.333296 0
M  V30 41 H 4.019437 0.935692 1.126226 0
M  V30 42 H 3.811311 1.330510 -1.077966 0
M  V30 43 H 3.020692 2.932265 -0.834172 0
M  V30 44 H -2.999953 0.852781 -2.959134 0
M  V30 45 H -5.179549 -0.222566 -2.683080 0
M  V30 46 H -3.381302 -3.236423 -0.152452 0
M  V30 47 H -1.406459 -3.085282 5.048678 0
M  V30 END ATOM
M  V30 BEGIN BOND
M  V30 1 1 1 2
M  V30 2 2 2 3
M  V30 3 1 3 4
M  V30 4 1 4 5
M  V30 5 1 5 6
M  V30 6 2 6 7
M  V30 7 1 7 8
M  V30 8 1 8 9
M  V30 9 2 9 10
M  V30 10 1 9 11
M  V30 11 1 11 12
M  V30 12 1 12 13
M  V30 13 1 13 14
M  V30 14 1 14 15
M  V30 15 1 14 16
M  V30 16 1 16 17
M  V30 17 2 8 18
M  V30 18 1 18 19
M  V30 19 2 19 20
M  V30 20 1 20 21
M  V30 21 2 21 22
M  V30 22 1 22 23
M  V30 23 1 22 24
M  V30 24 2 24 25
M  V30 25 2 4 26
M  V30 26 1 26 27
M  V30 27 1 27 2
M  V30 28 1 25 6
M  V30 29 1 17 11
M  V30 30 1 25 19
M  V30 31 1 1 28
M  V30 32 1 1 29
M  V30 33 1 1 30
M  V30 34 1 3 31
M  V30 35 1 5 32
M  V30 36 1 12 33
M  V30 37 1 12 34
M  V30 38 1 13 35
M  V30 39 1 13 36
M  V30 40 1 15 37
M  V30 41 1 15 38
M  V30 42 1 15 39
M  V30 43 1 16 40
M  V30 44 1 16 41
M  V30 45 1 17 42
M  V30 46 1 17 43
M  V30 47 1 20 44
M  V30 48 1 21 45
M  V30 49 1 24 46
M  V30 50 1 27 47
M  V30 END BOND
M  V30 END CTAB
M  END
>  <Dataset>  (769) 
ChEMBL_Kinases

>  <Ligand_Instance>  (769) 
nan

>  <PDB_ID>  (769) 
nan

>  <Standardized_SMILES>  (769) 
Cc1cc(Nc2nc(C(=O)N3CCN(C)CC3)nc3ccc(Cl)cc23)n[nH]1

>  <Name>  (769) 
nan

>  <Pocket>  (769) 
nan

>  <ATP_Site>  (769) 
nan

>  <Peripheral>  (769) 
nan

>  <Num_H_Atoms_ProtBoundConf>  (769) 
nan

>  <Num_Resolved_Atoms>  (769) 
nan

>  <Num_Not_Resolved_Atoms>  (769) 
nan

$$$$
CHEMBL4861142
     RDKit          3D

  0  0  0  0  0  0  0  0  0  0999 V3000
M  V30 BEGIN CTAB
M  V30 COUNTS 41 42 0 0 0
M  V30 BEGIN ATOM
M  V30 1 N -0.323415 -7.905633 0.853642 0
M  V30 2 C 0.158885 -6.876118 0.680016 0
M  V30 3 C 0.741774 -5.589231 0.472974 0
M  V30 4 C 2.110439 -5.520915 0.381186 0
M  V30 5 C 2.730867 -4.314492 0.181470 0
M  V30 6 C 2.078372 -3.104016 0.058191 0
M  V30 7 N 2.729727 -1.872171 -0.155539 0
M  V30 8 C 2.193734 -0.568550 -0.257111 0
M  V30 9 N 3.076095 0.406369 -0.541566 0
M  V30 10 C 2.763527 1.696761 -0.682736 0
M  V30 11 C 1.436194 2.023301 -0.519714 0
M  V30 12 C 1.039972 3.442765 -0.673998 0
M  V30 13 F 0.109822 3.545667 -1.712955 0
M  V30 14 F 2.121173 4.203122 -1.082145 0
M  V30 15 F 0.537469 3.947142 0.493948 0
M  V30 16 C 0.505997 1.032381 -0.224259 0
M  V30 17 N -0.869858 1.353723 -0.065089 0
M  V30 18 C -1.904100 0.438880 0.242469 0
M  V30 19 C -1.867463 -0.263535 1.541548 0
M  V30 20 C -1.920317 0.559966 2.774840 0
M  V30 21 C -0.812413 1.534003 2.958279 0
M  V30 22 N -1.040712 2.240344 4.211928 0
M  V30 23 N 0.906734 -0.235943 -0.100699 0
M  V30 24 C 0.700474 -3.257645 0.161914 0
M  V30 25 N 0.089556 -4.435550 0.357308 0
M  V30 26 H 2.702167 -6.413519 0.464819 0
M  V30 27 H 3.831015 -4.328378 0.116565 0
M  V30 28 H 3.782999 -2.011542 -0.245219 0
M  V30 29 H 3.526249 2.445340 -0.914893 0
M  V30 30 H -1.141509 2.368145 -0.194737 0
M  V30 31 H -2.906701 0.908752 0.149855 0
M  V30 32 H -1.913611 -0.356610 -0.560873 0
M  V30 33 H -2.734947 -0.980578 1.558334 0
M  V30 34 H -0.962125 -0.897718 1.613791 0
M  V30 35 H -2.915745 1.039492 2.903659 0
M  V30 36 H -1.846741 -0.166620 3.640046 0
M  V30 37 H 0.157207 1.000675 3.054287 0
M  V30 38 H -0.731590 2.246396 2.133145 0
M  V30 39 H -0.574194 1.727989 4.983231 0
M  V30 40 H -2.062708 2.243486 4.415594 0
M  V30 41 H 0.050538 -2.401985 0.083574 0
M  V30 END ATOM
M  V30 BEGIN BOND
M  V30 1 3 1 2
M  V30 2 1 2 3
M  V30 3 2 3 4
M  V30 4 1 4 5
M  V30 5 2 5 6
M  V30 6 1 6 7
M  V30 7 1 7 8
M  V30 8 2 8 9
M  V30 9 1 9 10
M  V30 10 2 10 11
M  V30 11 1 11 12
M  V30 12 1 12 13
M  V30 13 1 12 14
M  V30 14 1 12 15
M  V30 15 1 11 16
M  V30 16 1 16 17
M  V30 17 1 17 18
M  V30 18 1 18 19
M  V30 19 1 19 20
M  V30 20 1 20 21
M  V30 21 1 21 22
M  V30 22 2 16 23
M  V30 23 1 6 24
M  V30 24 2 24 25
M  V30 25 1 25 3
M  V30 26 1 23 8
M  V30 27 1 4 26
M  V30 28 1 5 27
M  V30 29 1 7 28
M  V30 30 1 10 29
M  V30 31 1 17 30
M  V30 32 1 18 31
M  V30 33 1 18 32
M  V30 34 1 19 33
M  V30 35 1 19 34
M  V30 36 1 20 35
M  V30 37 1 20 36
M  V30 38 1 21 37
M  V30 39 1 21 38
M  V30 40 1 22 39
M  V30 41 1 22 40
M  V30 42 1 24 41
M  V30 END BOND
M  V30 END CTAB
M  END
>  <Dataset>  (770) 
ChEMBL_Kinases

>  <Ligand_Instance>  (770) 
nan

>  <PDB_ID>  (770) 
nan

>  <Standardized_SMILES>  (770) 
N#Cc1ccc(Nc2ncc(C(F)(F)F)c(NCCCCN)n2)cn1

>  <Name>  (770) 
nan

>  <Pocket>  (770) 
nan

>  <ATP_Site>  (770) 
nan

>  <Peripheral>  (770) 
nan

>  <Num_H_Atoms_ProtBoundConf>  (770) 
nan

>  <Num_Resolved_Atoms>  (770) 
nan

>  <Num_Not_Resolved_Atoms>  (770) 
nan

$$$$
CHEMBL4861168
     RDKit          3D

  0  0  0  0  0  0  0  0  0  0999 V3000
M  V30 BEGIN CTAB
M  V30 COUNTS 68 73 0 0 0
M  V30 BEGIN ATOM
M  V30 1 C 6.659530 1.837655 1.150316 0
M  V30 2 C 6.335623 0.972402 0.200143 0
M  V30 3 C 5.500998 -0.199581 0.558579 0
M  V30 4 N 4.255555 -0.221727 -0.187490 0
M  V30 5 C 4.086597 -0.840966 -1.392017 0
M  V30 6 O 4.999042 -1.470312 -1.995597 0
M  V30 7 C 2.787268 -0.674221 -1.837501 0
M  V30 8 C 2.110398 -1.084225 -2.956718 0
M  V30 9 N 0.824483 -0.715064 -3.032101 0
M  V30 10 C 0.206144 0.021352 -2.070259 0
M  V30 11 N -1.160193 0.301248 -2.345707 0
M  V30 12 C -2.106527 -0.599454 -1.778377 0
M  V30 13 C -1.694400 -1.642521 -0.976487 0
M  V30 14 C -2.551263 -2.550377 -0.390960 0
M  V30 15 C -3.910170 -2.437560 -0.599092 0
M  V30 16 N -4.890562 -3.305247 -0.043027 0
M  V30 17 C -6.324549 -3.313363 -0.323796 0
M  V30 18 C -6.702208 -4.721756 -0.719033 0
M  V30 19 N -5.514986 -5.506093 -1.000201 0
M  V30 20 C -5.888646 -6.797803 -1.562823 0
M  V30 21 C -4.716654 -5.691548 0.199372 0
M  V30 22 C -4.623837 -4.348515 0.925680 0
M  V30 23 C -4.351627 -1.403841 -1.397240 0
M  V30 24 C -3.482661 -0.493347 -1.983666 0
M  V30 25 N 0.909323 0.409793 -0.974213 0
M  V30 26 C 2.215111 0.073329 -0.828318 0
M  V30 27 N 3.088435 0.345191 0.158512 0
M  V30 28 C 2.865057 1.077535 1.351380 0
M  V30 29 C 2.751717 0.223245 2.433308 0
M  V30 30 C 2.527600 0.688524 3.729235 0
M  V30 31 C 2.418915 2.071450 3.904861 0
M  V30 32 C 2.536722 2.903730 2.802581 0
M  V30 33 N 2.753121 2.415627 1.566622 0
M  V30 34 C 2.381086 4.296017 3.280658 0 CFG=1
M  V30 35 C 3.330614 5.239515 2.592303 0
M  V30 36 O 1.089170 4.778438 3.043049 0
M  V30 37 C 2.645645 4.163206 4.748549 0
M  V30 38 O 2.202487 2.847439 5.027343 0
M  V30 39 H 6.459409 1.923130 2.209677 0
M  V30 40 H 7.245148 2.744616 1.099826 0
M  V30 41 H 6.734754 1.232950 -0.769265 0
M  V30 42 H 5.358518 -0.252248 1.635364 0
M  V30 43 H 6.058992 -1.138847 0.281337 0
M  V30 44 H 2.591731 -1.675163 -3.736557 0
M  V30 45 H -1.560298 1.086336 -2.914161 0
M  V30 46 H -0.625209 -1.786383 -0.772234 0
M  V30 47 H -2.180503 -3.352869 0.229316 0
M  V30 48 H -6.634974 -2.616133 -1.100021 0
M  V30 49 H -6.838576 -3.108524 0.659140 0
M  V30 50 H -7.349196 -5.206396 0.035248 0
M  V30 51 H -7.298346 -4.695590 -1.656408 0
M  V30 52 H -6.606593 -7.345475 -0.913682 0
M  V30 53 H -6.328890 -6.676433 -2.554669 0
M  V30 54 H -4.996555 -7.444640 -1.655516 0
M  V30 55 H -3.693023 -6.021686 -0.059506 0
M  V30 56 H -5.152545 -6.460480 0.862006 0
M  V30 57 H -3.595433 -4.251602 1.337254 0
M  V30 58 H -5.359176 -4.350468 1.763324 0
M  V30 59 H -5.357721 -1.167455 -1.662829 0
M  V30 60 H -3.764571 0.335997 -2.617923 0
M  V30 61 H 2.817889 -0.868678 2.425348 0
M  V30 62 H 2.432383 0.067209 4.600906 0
M  V30 63 H 3.240929 6.239249 3.063386 0
M  V30 64 H 4.364059 4.891113 2.522291 0
M  V30 65 H 2.950691 5.353700 1.546926 0
M  V30 66 H 0.859584 4.517903 2.112815 0
M  V30 67 H 2.111296 4.918174 5.358390 0
M  V30 68 H 3.736644 4.279656 4.927118 0
M  V30 END ATOM
M  V30 BEGIN BOND
M  V30 1 2 1 2
M  V30 2 1 2 3
M  V30 3 1 3 4
M  V30 4 1 4 5
M  V30 5 2 5 6
M  V30 6 1 5 7
M  V30 7 2 7 8
M  V30 8 1 8 9
M  V30 9 2 9 10
M  V30 10 1 10 11
M  V30 11 1 11 12
M  V30 12 2 12 13
M  V30 13 1 13 14
M  V30 14 2 14 15
M  V30 15 1 15 16
M  V30 16 1 16 17
M  V30 17 1 17 18
M  V30 18 1 18 19
M  V30 19 1 19 20
M  V30 20 1 19 21
M  V30 21 1 21 22
M  V30 22 1 15 23
M  V30 23 2 23 24
M  V30 24 1 10 25
M  V30 25 2 25 26
M  V30 26 1 26 27
M  V30 27 1 27 28
M  V30 28 2 28 29
M  V30 29 1 29 30
M  V30 30 2 30 31
M  V30 31 1 31 32
M  V30 32 2 32 33
M  V30 33 1 32 34
M  V30 34 1 34 35
M  V30 35 1 34 36 CFG=1
M  V30 36 1 34 37
M  V30 37 1 37 38
M  V30 38 1 27 4
M  V30 39 1 33 28
M  V30 40 1 26 7
M  V30 41 1 38 31
M  V30 42 1 24 12
M  V30 43 1 22 16
M  V30 44 1 1 39
M  V30 45 1 1 40
M  V30 46 1 2 41
M  V30 47 1 3 42
M  V30 48 1 3 43
M  V30 49 1 8 44
M  V30 50 1 11 45
M  V30 51 1 13 46
M  V30 52 1 14 47
M  V30 53 1 17 48
M  V30 54 1 17 49
M  V30 55 1 18 50
M  V30 56 1 18 51
M  V30 57 1 20 52
M  V30 58 1 20 53
M  V30 59 1 20 54
M  V30 60 1 21 55
M  V30 61 1 21 56
M  V30 62 1 22 57
M  V30 63 1 22 58
M  V30 64 1 23 59
M  V30 65 1 24 60
M  V30 66 1 29 61
M  V30 67 1 30 62
M  V30 68 1 35 63
M  V30 69 1 35 64
M  V30 70 1 35 65
M  V30 71 1 36 66
M  V30 72 1 37 67
M  V30 73 1 37 68
M  V30 END BOND
M  V30 END CTAB
M  END
>  <Dataset>  (771) 
ChEMBL_Kinases

>  <Ligand_Instance>  (771) 
nan

>  <PDB_ID>  (771) 
nan

>  <Standardized_SMILES>  (771) 
C=CCn1c(=O)c2cnc(Nc3ccc(N4CCN(C)CC4)cc3)nc2n1-c1ccc2c(n1)[C@@](C)(O)CO2

>  <Name>  (771) 
nan

>  <Pocket>  (771) 
nan

>  <ATP_Site>  (771) 
nan

>  <Peripheral>  (771) 
nan

>  <Num_H_Atoms_ProtBoundConf>  (771) 
nan

>  <Num_Resolved_Atoms>  (771) 
nan

>  <Num_Not_Resolved_Atoms>  (771) 
nan

$$$$
CHEMBL4066777
     RDKit          3D

  0  0  0  0  0  0  0  0  0  0999 V3000
M  V30 BEGIN CTAB
M  V30 COUNTS 43 45 0 0 0
M  V30 BEGIN ATOM
M  V30 1 C -0.574692 -3.560260 5.076643 0
M  V30 2 O -0.811643 -2.139730 5.152382 0
M  V30 3 C -0.596323 -1.365246 3.986303 0
M  V30 4 C -0.910154 -0.052337 4.414135 0
M  V30 5 C -0.760429 0.875061 3.409946 0
M  V30 6 C -0.356534 0.419385 2.218795 0
M  V30 7 O -0.122273 1.244095 1.026592 0
M  V30 8 C -0.348180 2.610342 1.148675 0
M  V30 9 C -0.019053 3.318964 -0.091741 0
M  V30 10 C -0.735180 3.678077 -1.206400 0
M  V30 11 C -0.136318 4.395826 -2.225190 0
M  V30 12 C 1.176206 4.785584 -2.191770 0
M  V30 13 C 1.925971 4.448841 -1.101303 0
M  V30 14 C 1.328631 3.730041 -0.078970 0
M  V30 15 C 0.007652 -0.593337 1.450329 0
M  V30 16 C 0.382276 -1.635092 0.659877 0
M  V30 17 O 0.138464 -1.060210 -0.445035 0
M  V30 18 N 0.849754 -2.902438 0.499906 0
M  V30 19 C 1.173906 -3.863769 -0.401585 0
M  V30 20 C 1.570512 -5.113240 -0.042022 0
M  V30 21 C 1.886554 -5.973608 -1.101554 0
M  V30 22 C 1.786534 -5.533326 -2.428225 0
M  V30 23 N 1.379989 -4.261800 -2.724285 0
M  V30 24 C 1.068765 -3.414423 -1.689500 0
M  V30 25 C -0.190896 -1.525006 2.631483 0
M  V30 26 H -1.289591 -4.074718 4.418057 0
M  V30 27 H 0.454830 -3.742689 4.679375 0
M  V30 28 H -0.661089 -3.945368 6.111923 0
M  V30 29 H -1.230942 0.487021 5.277069 0
M  V30 30 H -0.896853 1.969831 3.361263 0
M  V30 31 H 0.187352 3.026651 2.031508 0
M  V30 32 H -1.450302 2.807097 1.384754 0
M  V30 33 H -1.748586 3.321823 -1.128065 0
M  V30 34 H -0.814710 4.612381 -3.043791 0
M  V30 35 H 1.598068 5.342896 -3.007296 0
M  V30 36 H 2.943112 4.765971 -1.105201 0
M  V30 37 H 2.052171 3.531399 0.734371 0
M  V30 38 H 1.154539 -3.188842 1.535889 0
M  V30 39 H 1.635284 -5.415377 0.989939 0
M  V30 40 H 2.205052 -6.965987 -0.830482 0
M  V30 41 H 2.058790 -6.280643 -3.159855 0
M  V30 42 H 0.781294 -2.490980 -2.148734 0
M  V30 43 H -0.116994 -2.652243 2.840581 0
M  V30 END ATOM
M  V30 BEGIN BOND
M  V30 1 1 1 2
M  V30 2 1 2 3
M  V30 3 2 3 4
M  V30 4 1 4 5
M  V30 5 2 5 6
M  V30 6 1 6 7
M  V30 7 1 7 8
M  V30 8 1 8 9
M  V30 9 2 9 10
M  V30 10 1 10 11
M  V30 11 2 11 12
M  V30 12 1 12 13
M  V30 13 2 13 14
M  V30 14 1 6 15
M  V30 15 1 15 16
M  V30 16 2 16 17
M  V30 17 1 16 18
M  V30 18 1 18 19
M  V30 19 2 19 20
M  V30 20 1 20 21
M  V30 21 2 21 22
M  V30 22 1 22 23
M  V30 23 2 23 24
M  V30 24 2 15 25
M  V30 25 1 25 3
M  V30 26 1 14 9
M  V30 27 1 24 19
M  V30 28 1 1 26
M  V30 29 1 1 27
M  V30 30 1 1 28
M  V30 31 1 4 29
M  V30 32 1 5 30
M  V30 33 1 8 31
M  V30 34 1 8 32
M  V30 35 1 10 33
M  V30 36 1 11 34
M  V30 37 1 12 35
M  V30 38 1 13 36
M  V30 39 1 14 37
M  V30 40 1 18 38
M  V30 41 1 20 39
M  V30 42 1 21 40
M  V30 43 1 22 41
M  V30 44 1 24 42
M  V30 45 1 25 43
M  V30 END BOND
M  V30 END CTAB
M  END
>  <Dataset>  (772) 
ChEMBL_Kinases

>  <Ligand_Instance>  (772) 
nan

>  <PDB_ID>  (772) 
nan

>  <Standardized_SMILES>  (772) 
COc1ccc(OCc2ccccc2)c(C(=O)Nc2cccnc2)c1

>  <Name>  (772) 
nan

>  <Pocket>  (772) 
nan

>  <ATP_Site>  (772) 
nan

>  <Peripheral>  (772) 
nan

>  <Num_H_Atoms_ProtBoundConf>  (772) 
nan

>  <Num_Resolved_Atoms>  (772) 
nan

>  <Num_Not_Resolved_Atoms>  (772) 
nan

$$$$
CHEMBL4861173
     RDKit          3D

  0  0  0  0  0  0  0  0  0  0999 V3000
M  V30 BEGIN CTAB
M  V30 COUNTS 56 60 0 0 0
M  V30 BEGIN ATOM
M  V30 1 C 7.362512 -6.542245 0.524671 0
M  V30 2 O 6.409672 -6.122062 -0.433748 0
M  V30 3 C 5.466621 -5.163375 -0.087030 0
M  V30 4 C 5.321145 -4.526934 1.132227 0
M  V30 5 C 4.318281 -3.589328 1.305550 0
M  V30 6 C 3.465936 -3.292629 0.259348 0
M  V30 7 C 2.414372 -2.298036 0.468534 0
M  V30 8 C 2.169993 -1.320570 -0.474734 0
M  V30 9 C 1.165335 -0.413548 -0.217478 0
M  V30 10 C 0.372684 -0.390164 0.905515 0
M  V30 11 C -0.624600 0.506629 1.164753 0
M  V30 12 N -0.911067 1.509522 0.213215 0
M  V30 13 C -1.894630 2.529686 0.136465 0
M  V30 14 C -1.674819 3.837485 -0.310751 0
M  V30 15 C -2.697882 4.748770 -0.367170 0
M  V30 16 N -3.938835 4.417528 0.003115 0
M  V30 17 C -4.257270 3.200967 0.443349 0
M  V30 18 C -5.627954 2.976895 0.808874 0
M  V30 19 C -6.534250 4.016530 0.685259 0
M  V30 20 C -7.868439 3.927497 1.001621 0
M  V30 21 F -8.716461 4.965071 0.866020 0
M  V30 22 C -8.379609 2.744261 1.476430 0
M  V30 23 C -7.535828 1.672091 1.623603 0
M  V30 24 C -6.216894 1.831928 1.288760 0
M  V30 25 F -5.450065 0.738331 1.459585 0
M  V30 26 C -3.216547 2.307742 0.490137 0
M  V30 27 C -1.276048 0.320958 2.360296 0
M  V30 28 C -1.002018 -0.670107 3.277943 0
M  V30 29 N -0.013998 -1.535366 2.989673 0
M  V30 30 C 0.643436 -1.379289 1.825849 0
M  V30 31 C 1.639862 -2.309039 1.610774 0
M  V30 32 C 3.581420 -3.910124 -0.976427 0
M  V30 33 O 2.710967 -3.599858 -2.027524 0
M  V30 34 C 2.838447 -4.241337 -3.295835 0
M  V30 35 C 4.601844 -4.855960 -1.133252 0
M  V30 36 H 8.104856 -5.711535 0.636817 0
M  V30 37 H 6.871888 -6.653040 1.513255 0
M  V30 38 H 7.873357 -7.469305 0.191536 0
M  V30 39 H 6.035789 -4.827156 1.886639 0
M  V30 40 H 4.233489 -3.110635 2.273267 0
M  V30 41 H 2.761220 -1.286636 -1.380604 0
M  V30 42 H 1.018971 0.325111 -0.986922 0
M  V30 43 H -0.368060 1.624025 -0.643653 0
M  V30 44 H -0.648400 4.081044 -0.607863 0
M  V30 45 H -2.476530 5.740546 -0.718048 0
M  V30 46 H -6.234496 5.007576 0.315386 0
M  V30 47 H -9.422001 2.659734 1.728203 0
M  V30 48 H -7.933847 0.746832 1.994518 0
M  V30 49 H -3.429224 1.315392 0.820780 0
M  V30 50 H -2.069474 0.985163 2.661284 0
M  V30 51 H -1.542661 -0.775209 4.204147 0
M  V30 52 H 1.872933 -3.094991 2.315943 0
M  V30 53 H 3.897974 -4.206458 -3.662974 0
M  V30 54 H 2.259620 -3.654066 -4.031276 0
M  V30 55 H 2.530138 -5.293374 -3.274476 0
M  V30 56 H 4.642651 -5.300802 -2.110732 0
M  V30 END ATOM
M  V30 BEGIN BOND
M  V30 1 1 1 2
M  V30 2 1 2 3
M  V30 3 2 3 4
M  V30 4 1 4 5
M  V30 5 2 5 6
M  V30 6 1 6 7
M  V30 7 2 7 8
M  V30 8 1 8 9
M  V30 9 2 9 10
M  V30 10 1 10 11
M  V30 11 1 11 12
M  V30 12 1 12 13
M  V30 13 2 13 14
M  V30 14 1 14 15
M  V30 15 2 15 16
M  V30 16 1 16 17
M  V30 17 1 17 18
M  V30 18 2 18 19
M  V30 19 1 19 20
M  V30 20 1 20 21
M  V30 21 2 20 22
M  V30 22 1 22 23
M  V30 23 2 23 24
M  V30 24 1 24 25
M  V30 25 2 17 26
M  V30 26 2 11 27
M  V30 27 1 27 28
M  V30 28 2 28 29
M  V30 29 1 29 30
M  V30 30 2 30 31
M  V30 31 1 6 32
M  V30 32 1 32 33
M  V30 33 1 33 34
M  V30 34 2 32 35
M  V30 35 1 35 3
M  V30 36 1 31 7
M  V30 37 1 30 10
M  V30 38 1 26 13
M  V30 39 1 24 18
M  V30 40 1 1 36
M  V30 41 1 1 37
M  V30 42 1 1 38
M  V30 43 1 4 39
M  V30 44 1 5 40
M  V30 45 1 8 41
M  V30 46 1 9 42
M  V30 47 1 12 43
M  V30 48 1 14 44
M  V30 49 1 15 45
M  V30 50 1 19 46
M  V30 51 1 22 47
M  V30 52 1 23 48
M  V30 53 1 26 49
M  V30 54 1 27 50
M  V30 55 1 28 51
M  V30 56 1 31 52
M  V30 57 1 34 53
M  V30 58 1 34 54
M  V30 59 1 34 55
M  V30 60 1 35 56
M  V30 END BOND
M  V30 END CTAB
M  END
>  <Dataset>  (773) 
ChEMBL_Kinases

>  <Ligand_Instance>  (773) 
nan

>  <PDB_ID>  (773) 
nan

>  <Standardized_SMILES>  (773) 
COc1ccc(-c2ccc3c(Nc4ccnc(-c5cc(F)ccc5F)c4)ccnc3c2)c(OC)c1

>  <Name>  (773) 
nan

>  <Pocket>  (773) 
nan

>  <ATP_Site>  (773) 
nan

>  <Peripheral>  (773) 
nan

>  <Num_H_Atoms_ProtBoundConf>  (773) 
nan

>  <Num_Resolved_Atoms>  (773) 
nan

>  <Num_Not_Resolved_Atoms>  (773) 
nan

$$$$
CHEMBL4066399
     RDKit          3D

  0  0  0  0  0  0  0  0  0  0999 V3000
M  V30 BEGIN CTAB
M  V30 COUNTS 52 55 0 0 0
M  V30 BEGIN ATOM
M  V30 1 N 2.436532 -3.981781 4.429676 0
M  V30 2 C 3.143139 -2.751818 4.387029 0
M  V30 3 O 4.067164 -2.506608 5.201549 0
M  V30 4 C 2.833410 -1.735539 3.412728 0
M  V30 5 C 3.483384 -0.540274 3.332751 0
M  V30 6 N 3.053151 0.255149 2.372679 0
M  V30 7 C 2.085216 0.060188 1.479769 0
M  V30 8 N 1.836405 1.099151 0.555158 0
M  V30 9 C 1.070886 1.546180 -0.539261 0 CFG=1
M  V30 10 C 1.131017 0.711673 -1.795192 0
M  V30 11 C -0.236788 0.756235 -2.422547 0
M  V30 12 C -0.791368 2.163205 -2.457135 0
M  V30 13 N -0.929440 2.775724 -1.170527 0
M  V30 14 C -0.383693 1.844532 -0.164694 0 CFG=2
M  V30 15 C -0.335434 2.562086 1.158376 0
M  V30 16 C -1.713703 2.926302 1.662901 0
M  V30 17 O -2.487572 1.784427 1.834982 0
M  V30 18 C 1.380829 -1.120258 1.493205 0
M  V30 19 C 0.360690 -1.619971 0.740954 0
M  V30 20 C -0.172283 -2.836664 0.958286 0
M  V30 21 C -1.236366 -3.611447 0.335485 0
M  V30 22 C -1.505458 -4.860949 0.850878 0
M  V30 23 C -2.542411 -5.526887 0.187055 0
M  V30 24 C -3.252360 -5.020032 -0.882347 0
M  V30 25 C -2.912948 -3.767218 -1.325999 0
M  V30 26 C -1.899386 -3.057096 -0.714961 0
M  V30 27 S 0.749792 -3.476669 2.335561 0
M  V30 28 C 1.820202 -1.969587 2.497268 0
M  V30 29 H 1.625561 -4.152980 5.091653 0
M  V30 30 H 2.875713 -4.624575 3.707692 0
M  V30 31 H 4.280179 -0.300650 4.017254 0
M  V30 32 H 2.481987 1.943022 0.705967 0
M  V30 33 H 1.422327 2.574247 -0.901197 0
M  V30 34 H 1.822136 1.159323 -2.567259 0
M  V30 35 H 1.461882 -0.313088 -1.663476 0
M  V30 36 H -0.108188 0.473158 -3.507908 0
M  V30 37 H -0.938848 0.019714 -2.021588 0
M  V30 38 H -1.733516 2.120689 -3.038027 0
M  V30 39 H -0.099010 2.775764 -3.090684 0
M  V30 40 H -1.974273 2.790752 -0.968130 0
M  V30 41 H -1.043788 0.991289 -0.187262 0
M  V30 42 H 0.179220 1.983281 1.924531 0
M  V30 43 H 0.191881 3.522451 0.966836 0
M  V30 44 H -2.200303 3.709082 1.070879 0
M  V30 45 H -1.560465 3.368581 2.681393 0
M  V30 46 H -3.273790 2.083493 2.393143 0
M  V30 47 H -0.114317 -1.116947 -0.078237 0
M  V30 48 H -1.000863 -5.333540 1.682717 0
M  V30 49 H -2.778485 -6.528896 0.579077 0
M  V30 50 H -4.027277 -5.668688 -1.281990 0
M  V30 51 H -3.499223 -3.397855 -2.177687 0
M  V30 52 H -1.676805 -2.076226 -1.107636 0
M  V30 END ATOM
M  V30 BEGIN BOND
M  V30 1 1 1 2
M  V30 2 2 2 3
M  V30 3 1 2 4
M  V30 4 2 4 5
M  V30 5 1 5 6
M  V30 6 2 6 7
M  V30 7 1 7 8
M  V30 8 1 8 9
M  V30 9 1 9 10
M  V30 10 1 10 11
M  V30 11 1 11 12
M  V30 12 1 12 13
M  V30 13 1 13 14
M  V30 14 1 14 15
M  V30 15 1 15 16
M  V30 16 1 16 17
M  V30 17 1 7 18
M  V30 18 1 18 19
M  V30 19 2 19 20
M  V30 20 1 20 21
M  V30 21 2 21 22
M  V30 22 1 22 23
M  V30 23 2 23 24
M  V30 24 1 24 25
M  V30 25 2 25 26
M  V30 26 1 20 27
M  V30 27 1 27 28
M  V30 28 1 28 4
M  V30 29 1 14 9
M  V30 30 2 28 18
M  V30 31 1 26 21
M  V30 32 1 1 29
M  V30 33 1 1 30
M  V30 34 1 5 31
M  V30 35 1 8 32
M  V30 36 1 9 33 CFG=3
M  V30 37 1 10 34
M  V30 38 1 10 35
M  V30 39 1 11 36
M  V30 40 1 11 37
M  V30 41 1 12 38
M  V30 42 1 12 39
M  V30 43 1 13 40
M  V30 44 1 14 41 CFG=1
M  V30 45 1 15 42
M  V30 46 1 15 43
M  V30 47 1 16 44
M  V30 48 1 16 45
M  V30 49 1 17 46
M  V30 50 1 19 47
M  V30 51 1 22 48
M  V30 52 1 23 49
M  V30 53 1 24 50
M  V30 54 1 25 51
M  V30 55 1 26 52
M  V30 END BOND
M  V30 END CTAB
M  END
>  <Dataset>  (774) 
ChEMBL_Kinases

>  <Ligand_Instance>  (774) 
nan

>  <PDB_ID>  (774) 
nan

>  <Standardized_SMILES>  (774) 
NC(=O)c1cnc(N[C@H]2CCCN[C@@H]2CCO)c2cc(-c3ccccc3)sc12

>  <Name>  (774) 
nan

>  <Pocket>  (774) 
nan

>  <ATP_Site>  (774) 
nan

>  <Peripheral>  (774) 
nan

>  <Num_H_Atoms_ProtBoundConf>  (774) 
nan

>  <Num_Resolved_Atoms>  (774) 
nan

>  <Num_Not_Resolved_Atoms>  (774) 
nan

$$$$
CHEMBL4066735
     RDKit          3D

  0  0  0  0  0  0  0  0  0  0999 V3000
M  V30 BEGIN CTAB
M  V30 COUNTS 48 51 0 0 0
M  V30 BEGIN ATOM
M  V30 1 C -0.131955 0.154770 -2.789572 0
M  V30 2 C 0.776269 -0.868407 -2.108747 0
M  V30 3 C 1.308364 -0.360248 -0.839727 0
M  V30 4 C 2.627486 0.122335 -0.817224 0
M  V30 5 N 3.232169 0.662813 0.269172 0
M  V30 6 C 2.602830 0.784318 1.444661 0
M  V30 7 C 3.305086 1.373183 2.554124 0
M  V30 8 C 4.604016 1.795957 2.318581 0
M  V30 9 C 5.385974 2.379375 3.302351 0
M  V30 10 Cl 7.007282 2.902358 2.981793 0
M  V30 11 C 4.884193 2.559792 4.570728 0
M  V30 12 C 3.600674 2.155243 4.849137 0
M  V30 13 C 2.874323 1.583711 3.833485 0
M  V30 14 F 1.620850 1.202004 4.152522 0
M  V30 15 C 1.313250 0.313951 1.431557 0
M  V30 16 C 0.618080 -0.252662 0.371012 0
M  V30 17 N -0.729044 -0.672525 0.456081 0
M  V30 18 C -1.110408 -2.016888 0.395509 0
M  V30 19 C -0.111285 -2.955714 0.341165 0
M  V30 20 C -0.382694 -4.294839 0.277967 0
M  V30 21 N -1.665630 -4.693616 0.269279 0
M  V30 22 C -2.688651 -3.828560 0.319839 0
M  V30 23 C -3.972893 -4.331535 0.302896 0
M  V30 24 C -5.049223 -3.466047 0.351002 0
M  V30 25 C -4.731138 -2.116529 0.414508 0
M  V30 26 C -3.447486 -1.616253 0.431137 0
M  V30 27 O -3.258621 -0.264626 0.495154 0
M  V30 28 C -4.367720 0.610303 0.543933 0
M  V30 29 C -2.401563 -2.482190 0.383238 0
M  V30 30 H 0.005387 1.167872 -2.335980 0
M  V30 31 H -1.183959 -0.201354 -2.726243 0
M  V30 32 H 0.094914 0.268220 -3.868948 0
M  V30 33 H 1.651493 -0.954200 -2.817547 0
M  V30 34 H 0.307993 -1.839718 -2.124897 0
M  V30 35 H 3.269296 0.089559 -1.708854 0
M  V30 36 H 5.099684 1.698562 1.343041 0
M  V30 37 H 5.488725 3.014362 5.343818 0
M  V30 38 H 3.190252 2.288052 5.837257 0
M  V30 39 H 0.725993 0.367391 2.322542 0
M  V30 40 H -1.129128 0.280205 0.550193 0
M  V30 41 H 0.926925 -2.660078 0.347064 0
M  V30 42 H 0.407440 -5.032540 0.234821 0
M  V30 43 H -4.181198 -5.401025 0.252799 0
M  V30 44 H -6.062785 -3.845691 0.338602 0
M  V30 45 H -5.624025 -1.475022 0.449961 0
M  V30 46 H -5.121772 0.316635 1.282264 0
M  V30 47 H -4.806824 0.705948 -0.492820 0
M  V30 48 H -4.026924 1.666133 0.762091 0
M  V30 END ATOM
M  V30 BEGIN BOND
M  V30 1 1 1 2
M  V30 2 1 2 3
M  V30 3 2 3 4
M  V30 4 1 4 5
M  V30 5 2 5 6
M  V30 6 1 6 7
M  V30 7 2 7 8
M  V30 8 1 8 9
M  V30 9 1 9 10
M  V30 10 2 9 11
M  V30 11 1 11 12
M  V30 12 2 12 13
M  V30 13 1 13 14
M  V30 14 1 6 15
M  V30 15 2 15 16
M  V30 16 1 16 17
M  V30 17 1 17 18
M  V30 18 2 18 19
M  V30 19 1 19 20
M  V30 20 2 20 21
M  V30 21 1 21 22
M  V30 22 2 22 23
M  V30 23 1 23 24
M  V30 24 2 24 25
M  V30 25 1 25 26
M  V30 26 1 26 27
M  V30 27 1 27 28
M  V30 28 2 26 29
M  V30 29 1 16 3
M  V30 30 1 29 18
M  V30 31 1 13 7
M  V30 32 1 29 22
M  V30 33 1 1 30
M  V30 34 1 1 31
M  V30 35 1 1 32
M  V30 36 1 2 33
M  V30 37 1 2 34
M  V30 38 1 4 35
M  V30 39 1 8 36
M  V30 40 1 11 37
M  V30 41 1 12 38
M  V30 42 1 15 39
M  V30 43 1 17 40
M  V30 44 1 19 41
M  V30 45 1 20 42
M  V30 46 1 23 43
M  V30 47 1 24 44
M  V30 48 1 25 45
M  V30 49 1 28 46
M  V30 50 1 28 47
M  V30 51 1 28 48
M  V30 END BOND
M  V30 END CTAB
M  END
>  <Dataset>  (775) 
ChEMBL_Kinases

>  <Ligand_Instance>  (775) 
nan

>  <PDB_ID>  (775) 
nan

>  <Standardized_SMILES>  (775) 
CCc1cnc(-c2cc(Cl)ccc2F)cc1Nc1ccnc2cccc(OC)c12

>  <Name>  (775) 
nan

>  <Pocket>  (775) 
nan

>  <ATP_Site>  (775) 
nan

>  <Peripheral>  (775) 
nan

>  <Num_H_Atoms_ProtBoundConf>  (775) 
nan

>  <Num_Resolved_Atoms>  (775) 
nan

>  <Num_Not_Resolved_Atoms>  (775) 
nan

$$$$
CHEMBL4861217
     RDKit          3D

  0  0  0  0  0  0  0  0  0  0999 V3000
M  V30 BEGIN CTAB
M  V30 COUNTS 61 65 0 0 0
M  V30 BEGIN ATOM
M  V30 1 C 6.210908 0.553074 -0.428201 0
M  V30 2 O 5.270621 1.123263 0.427172 0
M  V30 3 C 5.041143 0.750432 1.739082 0
M  V30 4 C 5.698172 -0.246477 2.431491 0
M  V30 5 C 5.378246 -0.529049 3.749333 0
M  V30 6 C 4.385028 0.177310 4.428161 0
M  V30 7 F 4.085410 -0.110427 5.712412 0
M  V30 8 C 3.751697 1.168302 3.696034 0
M  V30 9 C 4.052895 1.466745 2.385342 0
M  V30 10 C 3.246850 2.550687 1.835251 0
M  V30 11 C 3.629961 3.881652 1.912816 0
M  V30 12 C 2.791683 4.827171 1.358601 0
M  V30 13 N 1.615468 4.520655 0.743725 0
M  V30 14 C 1.218584 3.217179 0.655822 0
M  V30 15 N 0.126499 2.653777 0.112331 0
M  V30 16 C 0.275478 1.334442 0.325315 0
M  V30 17 C -0.716831 0.365440 -0.124037 0
M  V30 18 C -1.812906 0.709779 -0.761621 0
M  V30 19 C -2.849537 -0.241684 -1.237220 0
M  V30 20 N -2.422447 -1.592619 -1.359834 0
M  V30 21 C -3.243852 -2.529226 -0.679322 0 CFG=1
M  V30 22 C -4.675784 -2.526495 -1.182483 0
M  V30 23 C -5.579422 -3.297656 -0.272165 0
M  V30 24 C -5.062284 -4.686491 0.024031 0 CFG=1
M  V30 25 C -5.312950 -5.616381 -1.109738 0
M  V30 26 O -5.880955 -5.338230 -2.206516 0
M  V30 27 O -4.871678 -6.928066 -0.934058 0
M  V30 28 C -3.597783 -4.708247 0.327633 0
M  V30 29 C -2.792331 -3.943703 -0.733248 0
M  V30 30 C -1.018044 -1.731497 -1.220628 0
M  V30 31 C -0.589522 -1.102485 0.092065 0
M  V30 32 C 1.436044 1.008559 0.994865 0
M  V30 33 C 2.039074 2.252478 1.202223 0
M  V30 34 H 5.793077 0.364996 -1.457017 0
M  V30 35 H 7.046664 1.287834 -0.569463 0
M  V30 36 H 6.600482 -0.436128 -0.112502 0
M  V30 37 H 6.465926 -0.786242 1.893531 0
M  V30 38 H 5.898065 -1.313997 4.288892 0
M  V30 39 H 2.980721 1.687925 4.284897 0
M  V30 40 H 4.559848 4.148079 2.396542 0
M  V30 41 H 3.034277 5.876543 1.387019 0
M  V30 42 H -0.631007 3.162980 -0.354238 0
M  V30 43 H -1.988321 1.768143 -0.963682 0
M  V30 44 H -3.755023 -0.205468 -0.570743 0
M  V30 45 H -3.193325 0.134086 -2.235935 0
M  V30 46 H -3.273885 -2.214130 0.404021 0
M  V30 47 H -4.627068 -3.074852 -2.168199 0
M  V30 48 H -5.100317 -1.532902 -1.334227 0
M  V30 49 H -6.539016 -3.443303 -0.850472 0
M  V30 50 H -5.737947 -2.753511 0.677418 0
M  V30 51 H -5.602934 -5.040137 0.925546 0
M  V30 52 H -4.985091 -7.586047 -1.697191 0
M  V30 53 H -3.398669 -4.324698 1.345829 0
M  V30 54 H -3.289841 -5.790597 0.310058 0
M  V30 55 H -1.751635 -4.151415 -0.509025 0
M  V30 56 H -3.057403 -4.448128 -1.697012 0
M  V30 57 H -0.558622 -1.086955 -2.028940 0
M  V30 58 H -0.603536 -2.721221 -1.381337 0
M  V30 59 H -1.325564 -1.319769 0.912280 0
M  V30 60 H 0.441865 -1.312898 0.372834 0
M  V30 61 H 1.743031 0.018981 1.261914 0
M  V30 END ATOM
M  V30 BEGIN BOND
M  V30 1 1 1 2
M  V30 2 1 2 3
M  V30 3 2 3 4
M  V30 4 1 4 5
M  V30 5 2 5 6
M  V30 6 1 6 7
M  V30 7 1 6 8
M  V30 8 2 8 9
M  V30 9 1 9 10
M  V30 10 2 10 11
M  V30 11 1 11 12
M  V30 12 2 12 13
M  V30 13 1 13 14
M  V30 14 1 14 15
M  V30 15 1 15 16
M  V30 16 1 16 17
M  V30 17 2 17 18
M  V30 18 1 18 19
M  V30 19 1 19 20
M  V30 20 1 20 21
M  V30 21 1 21 22
M  V30 22 1 22 23
M  V30 23 1 23 24
M  V30 24 1 24 25
M  V30 25 2 25 26
M  V30 26 1 25 27
M  V30 27 1 24 28
M  V30 28 1 28 29
M  V30 29 1 20 30
M  V30 30 1 30 31
M  V30 31 2 16 32
M  V30 32 1 32 33
M  V30 33 1 9 3
M  V30 34 1 33 10
M  V30 35 2 33 14
M  V30 36 1 31 17
M  V30 37 1 29 21
M  V30 38 1 1 34
M  V30 39 1 1 35
M  V30 40 1 1 36
M  V30 41 1 4 37
M  V30 42 1 5 38
M  V30 43 1 8 39
M  V30 44 1 11 40
M  V30 45 1 12 41
M  V30 46 1 15 42
M  V30 47 1 18 43
M  V30 48 1 19 44
M  V30 49 1 19 45
M  V30 50 1 21 46 CFG=1
M  V30 51 1 22 47
M  V30 52 1 22 48
M  V30 53 1 23 49
M  V30 54 1 23 50
M  V30 55 1 24 51 CFG=1
M  V30 56 1 27 52
M  V30 57 1 28 53
M  V30 58 1 28 54
M  V30 59 1 29 55
M  V30 60 1 29 56
M  V30 61 1 30 57
M  V30 62 1 30 58
M  V30 63 1 31 59
M  V30 64 1 31 60
M  V30 65 1 32 61
M  V30 END BOND
M  V30 END CTAB
M  END
>  <Dataset>  (776) 
ChEMBL_Kinases

>  <Ligand_Instance>  (776) 
nan

>  <PDB_ID>  (776) 
nan

>  <Standardized_SMILES>  (776) 
COc1ccc(F)cc1-c1ccnc2[nH]c(C3=CCN([C@H]4CC[C@@H](C(=O)O)CC4)CC3)cc12

>  <Name>  (776) 
nan

>  <Pocket>  (776) 
nan

>  <ATP_Site>  (776) 
nan

>  <Peripheral>  (776) 
nan

>  <Num_H_Atoms_ProtBoundConf>  (776) 
nan

>  <Num_Resolved_Atoms>  (776) 
nan

>  <Num_Not_Resolved_Atoms>  (776) 
nan

$$$$
CHEMBL4066679
     RDKit          3D

  0  0  0  0  0  0  0  0  0  0999 V3000
M  V30 BEGIN CTAB
M  V30 COUNTS 54 55 0 0 0
M  V30 BEGIN ATOM
M  V30 1 C 1.273885 0.924355 5.541452 0
M  V30 2 C 2.234779 0.150517 6.388982 0
M  V30 3 C 3.681989 0.310558 6.071616 0
M  V30 4 C 4.174941 -0.129564 4.754159 0
M  V30 5 C 3.593607 0.510246 3.528751 0
M  V30 6 C 4.344608 -0.114665 2.346490 0
M  V30 7 C 3.841196 0.457347 1.036968 0
M  V30 8 C 2.390958 0.191355 0.850249 0
M  V30 9 O 1.396254 -0.367661 1.427864 0
M  V30 10 N 1.865151 0.712501 -0.374783 0
M  V30 11 N 0.499530 0.509802 -0.639659 0
M  V30 12 C 0.044726 -0.621822 -1.324231 0
M  V30 13 O 1.059373 -1.346554 -1.617909 0
M  V30 14 C -1.307333 -0.999011 -1.685372 0
M  V30 15 C -2.507242 -0.361700 -1.463527 0
M  V30 16 O -2.407721 0.834659 -0.785432 0
M  V30 17 C -3.727372 -0.849751 -1.871351 0
M  V30 18 C -4.832189 -0.095535 -1.575646 0
M  V30 19 C -6.077120 -0.553858 -1.971906 0
M  V30 20 Cl -7.472140 0.419592 -1.586710 0
M  V30 21 C -6.136990 -1.751844 -2.646756 0
M  V30 22 C -5.003205 -2.483149 -2.926363 0
M  V30 23 C -3.758267 -2.052527 -2.545303 0
M  V30 24 N -2.600534 -2.696059 -2.775110 0
M  V30 25 C -2.658623 -3.962528 -3.480329 0
M  V30 26 C -2.553233 -3.641831 -4.968003 0
M  V30 27 C -1.434692 -2.210620 -2.374935 0
M  V30 28 O -0.396996 -2.907207 -2.647942 0
M  V30 29 H 0.468659 1.393475 6.196251 0
M  V30 30 H 1.822343 1.714720 5.004651 0
M  V30 31 H 0.723596 0.284267 4.826600 0
M  V30 32 H 1.986549 -0.951850 6.325736 0
M  V30 33 H 2.016524 0.424233 7.463990 0
M  V30 34 H 3.928123 1.397728 6.249841 0
M  V30 35 H 4.243960 -0.245955 6.877720 0
M  V30 36 H 4.063088 -1.254655 4.712912 0
M  V30 37 H 5.297732 -0.002755 4.703956 0
M  V30 38 H 2.529176 0.217450 3.385421 0
M  V30 39 H 3.787965 1.577543 3.527117 0
M  V30 40 H 4.082186 -1.192230 2.360101 0
M  V30 41 H 5.421996 -0.023632 2.465849 0
M  V30 42 H 4.415215 -0.039626 0.237515 0
M  V30 43 H 3.969659 1.567280 1.015620 0
M  V30 44 H 2.345060 1.250161 -1.155857 0
M  V30 45 H -0.218536 1.200150 -0.332091 0
M  V30 46 H -2.747791 1.689879 -1.222782 0
M  V30 47 H -4.740544 0.825620 -1.051637 0
M  V30 48 H -7.117869 -2.115457 -2.960491 0
M  V30 49 H -5.086680 -3.406476 -3.453394 0
M  V30 50 H -1.715270 -4.525187 -3.220151 0
M  V30 51 H -3.496382 -4.602186 -3.219100 0
M  V30 52 H -3.040413 -4.415630 -5.577150 0
M  V30 53 H -3.088980 -2.688575 -5.203226 0
M  V30 54 H -1.485747 -3.476788 -5.233964 0
M  V30 END ATOM
M  V30 BEGIN BOND
M  V30 1 1 1 2
M  V30 2 1 2 3
M  V30 3 1 3 4
M  V30 4 1 4 5
M  V30 5 1 5 6
M  V30 6 1 6 7
M  V30 7 1 7 8
M  V30 8 2 8 9
M  V30 9 1 8 10
M  V30 10 1 10 11
M  V30 11 1 11 12
M  V30 12 2 12 13
M  V30 13 1 12 14
M  V30 14 2 14 15
M  V30 15 1 15 16
M  V30 16 1 15 17
M  V30 17 2 17 18
M  V30 18 1 18 19
M  V30 19 1 19 20
M  V30 20 2 19 21
M  V30 21 1 21 22
M  V30 22 2 22 23
M  V30 23 1 23 24
M  V30 24 1 24 25
M  V30 25 1 25 26
M  V30 26 1 24 27
M  V30 27 2 27 28
M  V30 28 1 27 14
M  V30 29 1 23 17
M  V30 30 1 1 29
M  V30 31 1 1 30
M  V30 32 1 1 31
M  V30 33 1 2 32
M  V30 34 1 2 33
M  V30 35 1 3 34
M  V30 36 1 3 35
M  V30 37 1 4 36
M  V30 38 1 4 37
M  V30 39 1 5 38
M  V30 40 1 5 39
M  V30 41 1 6 40
M  V30 42 1 6 41
M  V30 43 1 7 42
M  V30 44 1 7 43
M  V30 45 1 10 44
M  V30 46 1 11 45
M  V30 47 1 16 46
M  V30 48 1 18 47
M  V30 49 1 21 48
M  V30 50 1 22 49
M  V30 51 1 25 50
M  V30 52 1 25 51
M  V30 53 1 26 52
M  V30 54 1 26 53
M  V30 55 1 26 54
M  V30 END BOND
M  V30 END CTAB
M  END
>  <Dataset>  (777) 
ChEMBL_Kinases

>  <Ligand_Instance>  (777) 
nan

>  <PDB_ID>  (777) 
nan

>  <Standardized_SMILES>  (777) 
CCCCCCCC(=O)NNC(=O)c1c(O)c2cc(Cl)ccc2n(CC)c1=O

>  <Name>  (777) 
nan

>  <Pocket>  (777) 
nan

>  <ATP_Site>  (777) 
nan

>  <Peripheral>  (777) 
nan

>  <Num_H_Atoms_ProtBoundConf>  (777) 
nan

>  <Num_Resolved_Atoms>  (777) 
nan

>  <Num_Not_Resolved_Atoms>  (777) 
nan

$$$$
CHEMBL4861235
     RDKit          3D

  0  0  0  0  0  0  0  0  0  0999 V3000
M  V30 BEGIN CTAB
M  V30 COUNTS 37 40 0 0 0
M  V30 BEGIN ATOM
M  V30 1 O 0.556118 -5.578331 1.778559 0
M  V30 2 C 1.431926 -4.505569 1.683028 0
M  V30 3 C 2.316316 -4.225703 2.713960 0
M  V30 4 C 3.177836 -3.155556 2.598947 0
M  V30 5 C 3.201801 -2.339191 1.491461 0
M  V30 6 C 2.335221 -2.589201 0.447588 0
M  V30 7 N 2.191754 -1.894298 -0.781541 0
M  V30 8 C 2.697314 -2.447850 -1.896186 0
M  V30 9 N 2.444288 -1.612440 -2.927079 0
M  V30 10 C 1.782558 -0.548316 -2.435678 0
M  V30 11 C 1.253539 0.618773 -2.942764 0
M  V30 12 N 0.628720 1.509000 -2.150806 0
M  V30 13 C 0.477437 1.319851 -0.806752 0
M  V30 14 N -0.205795 2.376690 -0.157843 0
M  V30 15 C -1.342177 2.210424 0.675757 0
M  V30 16 C -1.921483 1.006926 1.001221 0
M  V30 17 C -3.030210 0.855445 1.805683 0
M  V30 18 F -3.521427 -0.401878 2.061758 0
M  V30 19 C -3.608703 2.009468 2.329509 0
M  V30 20 O -4.727640 1.892239 3.143519 0
M  V30 21 C -3.050436 3.231721 2.021491 0
M  V30 22 F -3.640733 4.336249 2.550564 0
M  V30 23 C -1.944376 3.339339 1.215537 0
M  V30 24 N 0.986520 0.180549 -0.273505 0
M  V30 25 C 1.618310 -0.719011 -1.077265 0
M  V30 26 C 1.477354 -3.673350 0.588149 0
M  V30 27 H 0.747855 -6.302654 2.460191 0
M  V30 28 H 2.311390 -4.856216 3.589091 0
M  V30 29 H 3.878065 -2.917942 3.392227 0
M  V30 30 H 3.841066 -1.482949 1.319548 0
M  V30 31 H 3.228520 -3.375140 -2.079631 0
M  V30 32 H 1.346641 0.813249 -3.994441 0
M  V30 33 H 0.180085 3.325148 -0.325990 0
M  V30 34 H -1.398812 0.158165 0.543996 0
M  V30 35 H -5.360797 1.112193 3.084811 0
M  V30 36 H -1.513547 4.323958 0.982545 0
M  V30 37 H 0.753151 -3.950217 -0.186688 0
M  V30 END ATOM
M  V30 BEGIN BOND
M  V30 1 1 1 2
M  V30 2 2 2 3
M  V30 3 1 3 4
M  V30 4 2 4 5
M  V30 5 1 5 6
M  V30 6 1 6 7
M  V30 7 1 7 8
M  V30 8 2 8 9
M  V30 9 1 9 10
M  V30 10 2 10 11
M  V30 11 1 11 12
M  V30 12 2 12 13
M  V30 13 1 13 14
M  V30 14 1 14 15
M  V30 15 2 15 16
M  V30 16 1 16 17
M  V30 17 1 17 18
M  V30 18 2 17 19
M  V30 19 1 19 20
M  V30 20 1 19 21
M  V30 21 1 21 22
M  V30 22 2 21 23
M  V30 23 1 13 24
M  V30 24 2 24 25
M  V30 25 2 6 26
M  V30 26 1 26 2
M  V30 27 1 25 7
M  V30 28 1 25 10
M  V30 29 1 23 15
M  V30 30 1 1 27
M  V30 31 1 3 28
M  V30 32 1 4 29
M  V30 33 1 5 30
M  V30 34 1 8 31
M  V30 35 1 11 32
M  V30 36 1 14 33
M  V30 37 1 16 34
M  V30 38 1 20 35
M  V30 39 1 23 36
M  V30 40 1 26 37
M  V30 END BOND
M  V30 END CTAB
M  END
>  <Dataset>  (778) 
ChEMBL_Kinases

>  <Ligand_Instance>  (778) 
nan

>  <PDB_ID>  (778) 
nan

>  <Standardized_SMILES>  (778) 
Oc1cccc(-n2cnc3cnc(Nc4cc(F)c(O)c(F)c4)nc32)c1

>  <Name>  (778) 
nan

>  <Pocket>  (778) 
nan

>  <ATP_Site>  (778) 
nan

>  <Peripheral>  (778) 
nan

>  <Num_H_Atoms_ProtBoundConf>  (778) 
nan

>  <Num_Resolved_Atoms>  (778) 
nan

>  <Num_Not_Resolved_Atoms>  (778) 
nan

$$$$
CHEMBL4066610
     RDKit          3D

  0  0  0  0  0  0  0  0  0  0999 V3000
M  V30 BEGIN CTAB
M  V30 COUNTS 64 68 0 0 0
M  V30 BEGIN ATOM
M  V30 1 O 4.933510 4.284979 3.847048 0
M  V30 2 C 4.324534 3.239781 3.567481 0
M  V30 3 N 4.587448 2.048027 4.297789 0
M  V30 4 C 5.502346 1.843161 5.375849 0
M  V30 5 C 6.477523 0.712618 5.103156 0
M  V30 6 O 5.845627 -0.498302 4.900230 0
M  V30 7 C 4.695385 1.406829 6.606278 0
M  V30 8 O 5.530011 1.188098 7.701260 0
M  V30 9 C 3.350125 3.288488 2.481413 0
M  V30 10 C 3.164372 4.489691 1.831113 0
M  V30 11 C 2.260470 4.647596 0.781301 0
M  V30 12 C 1.505095 3.571543 0.353130 0
M  V30 13 C 1.710675 2.381133 1.021173 0
M  V30 14 C 2.600447 2.210542 2.060256 0
M  V30 15 C 1.063930 1.087808 0.793001 0
M  V30 16 O 1.376036 0.147978 1.555324 0
M  V30 17 C 0.071750 0.827207 -0.275806 0
M  V30 18 C -0.125269 -0.533554 -0.398032 0
M  V30 19 C -1.022587 -0.974134 -1.350155 0
M  V30 20 C -1.714629 -0.103964 -2.167642 0
M  V30 21 N -2.617171 -0.580196 -3.128856 0
M  V30 22 C -2.808224 -1.958168 -3.369625 0
M  V30 23 C -3.968352 -2.675585 -3.237682 0
M  V30 24 C -3.970525 -4.023898 -3.522100 0
M  V30 25 N -5.181087 -4.774254 -3.384758 0
M  V30 26 C -5.295502 -5.296491 -2.091455 0
M  V30 27 O -4.383226 -5.059772 -1.261013 0
M  V30 28 C -6.541671 -6.119361 -1.809101 0
M  V30 29 C -6.815672 -6.692323 -0.635696 0
M  V30 30 C -7.937586 -7.409633 -0.449312 0
M  V30 31 C -8.791195 -7.480994 -1.652728 0
M  V30 32 S -7.806594 -6.464095 -2.914707 0
M  V30 33 C -2.825293 -4.691978 -3.943167 0
M  V30 34 F -2.887233 -6.018578 -4.208295 0
M  V30 35 C -1.652921 -3.947059 -4.072244 0
M  V30 36 C -1.628910 -2.577529 -3.788723 0
M  V30 37 F -0.403555 -2.075762 -3.984656 0
M  V30 38 C -1.519035 1.256598 -2.046795 0
M  V30 39 C -0.625648 1.720478 -1.100614 0
M  V30 40 O -0.449473 3.093984 -1.002283 0
M  V30 41 C 0.620890 3.943907 -0.756527 0
M  V30 42 H 4.085715 1.160290 4.077465 0
M  V30 43 H 6.083502 2.711887 5.692580 0
M  V30 44 H 7.193961 0.611333 5.926666 0
M  V30 45 H 7.073830 0.932682 4.178105 0
M  V30 46 H 6.390764 -1.095257 4.313247 0
M  V30 47 H 3.928845 2.169371 6.876770 0
M  V30 48 H 4.147786 0.459555 6.400824 0
M  V30 49 H 5.364005 0.305482 8.102712 0
M  V30 50 H 3.725754 5.392087 2.111233 0
M  V30 51 H 2.141219 5.605949 0.294248 0
M  V30 52 H 2.732987 1.260788 2.558471 0
M  V30 53 H 0.431153 -1.208816 0.257883 0
M  V30 54 H -1.132500 -2.044971 -1.394846 0
M  V30 55 H -3.192500 0.059955 -3.713729 0
M  V30 56 H -4.832512 -2.127879 -2.910704 0
M  V30 57 H -5.933170 -4.955530 -4.108266 0
M  V30 58 H -6.144933 -6.609370 0.233648 0
M  V30 59 H -8.315032 -7.933407 0.414699 0
M  V30 60 H -9.818988 -8.083725 -1.636621 0
M  V30 61 H -0.815267 -4.552335 -4.404979 0
M  V30 62 H -2.016557 2.007966 -2.642895 0
M  V30 63 H 1.263864 3.965727 -1.676554 0
M  V30 64 H 0.199724 4.948026 -0.540072 0
M  V30 END ATOM
M  V30 BEGIN BOND
M  V30 1 2 1 2
M  V30 2 1 2 3
M  V30 3 1 3 4
M  V30 4 1 4 5
M  V30 5 1 5 6
M  V30 6 1 4 7
M  V30 7 1 7 8
M  V30 8 1 2 9
M  V30 9 2 9 10
M  V30 10 1 10 11
M  V30 11 2 11 12
M  V30 12 1 12 13
M  V30 13 2 13 14
M  V30 14 1 13 15
M  V30 15 2 15 16
M  V30 16 1 15 17
M  V30 17 2 17 18
M  V30 18 1 18 19
M  V30 19 2 19 20
M  V30 20 1 20 21
M  V30 21 1 21 22
M  V30 22 2 22 23
M  V30 23 1 23 24
M  V30 24 1 24 25
M  V30 25 1 25 26
M  V30 26 2 26 27
M  V30 27 1 26 28
M  V30 28 2 28 29
M  V30 29 1 29 30
M  V30 30 2 30 31
M  V30 31 1 31 32
M  V30 32 2 24 33
M  V30 33 1 33 34
M  V30 34 1 33 35
M  V30 35 2 35 36
M  V30 36 1 36 37
M  V30 37 1 20 38
M  V30 38 2 38 39
M  V30 39 1 39 40
M  V30 40 1 40 41
M  V30 41 1 14 9
M  V30 42 1 39 17
M  V30 43 1 41 12
M  V30 44 1 36 22
M  V30 45 1 32 28
M  V30 46 1 3 42
M  V30 47 1 4 43
M  V30 48 1 5 44
M  V30 49 1 5 45
M  V30 50 1 6 46
M  V30 51 1 7 47
M  V30 52 1 7 48
M  V30 53 1 8 49
M  V30 54 1 10 50
M  V30 55 1 11 51
M  V30 56 1 14 52
M  V30 57 1 18 53
M  V30 58 1 19 54
M  V30 59 1 21 55
M  V30 60 1 23 56
M  V30 61 1 25 57
M  V30 62 1 29 58
M  V30 63 1 30 59
M  V30 64 1 31 60
M  V30 65 1 35 61
M  V30 66 1 38 62
M  V30 67 1 41 63
M  V30 68 1 41 64
M  V30 END BOND
M  V30 END CTAB
M  END
>  <Dataset>  (779) 
ChEMBL_Kinases

>  <Ligand_Instance>  (779) 
nan

>  <PDB_ID>  (779) 
nan

>  <Standardized_SMILES>  (779) 
O=C(NC(CO)CO)c1ccc2c(c1)C(=O)c1ccc(Nc3cc(NC(=O)c4cccs4)c(F)cc3F)cc1OC2

>  <Name>  (779) 
nan

>  <Pocket>  (779) 
nan

>  <ATP_Site>  (779) 
nan

>  <Peripheral>  (779) 
nan

>  <Num_H_Atoms_ProtBoundConf>  (779) 
nan

>  <Num_Resolved_Atoms>  (779) 
nan

>  <Num_Not_Resolved_Atoms>  (779) 
nan

$$$$
CHEMBL4066607
     RDKit          3D

  0  0  0  0  0  0  0  0  0  0999 V3000
M  V30 BEGIN CTAB
M  V30 COUNTS 30 33 0 0 0
M  V30 BEGIN ATOM
M  V30 1 C -2.888918 -2.116306 2.771548 0
M  V30 2 C -2.033943 -2.726956 1.873146 0
M  V30 3 C -0.893342 -2.037171 1.490511 0
M  V30 4 C -0.649314 -0.787091 2.006568 0
M  V30 5 C 0.463646 -0.056172 1.664576 0
M  V30 6 C 1.423529 -0.632909 0.714967 0
M  V30 7 C 2.528546 -1.413307 0.965065 0
M  V30 8 N 3.126196 -1.720621 -0.223277 0
M  V30 9 C 2.401702 -1.137168 -1.215205 0
M  V30 10 C 2.539241 -1.112520 -2.588611 0
M  V30 11 N 1.673377 -0.449729 -3.376149 0
M  V30 12 C 0.613386 0.234992 -2.879378 0
M  V30 13 C 0.491837 0.199309 -1.505303 0
M  V30 14 C 1.331742 -0.451565 -0.649644 0
M  V30 15 C 0.771226 1.201038 2.142331 0
M  V30 16 C -0.140461 1.746118 3.042797 0
M  V30 17 N -1.258647 1.069848 3.417895 0
M  V30 18 C -1.492222 -0.145896 2.913529 0
M  V30 19 C -2.642351 -0.843926 3.298013 0
M  V30 20 H -3.792755 -2.641397 3.086418 0
M  V30 21 H -2.194743 -3.697767 1.453327 0
M  V30 22 H -0.167844 -2.432951 0.794528 0
M  V30 23 H 2.846835 -1.718793 1.967731 0
M  V30 24 H 4.001691 -2.311508 -0.341257 0
M  V30 25 H 3.361015 -1.634374 -3.077545 0
M  V30 26 H -0.098638 0.776895 -3.490929 0
M  V30 27 H -0.346108 0.737062 -1.071957 0
M  V30 28 H 1.629436 1.770660 1.881880 0
M  V30 29 H -0.035929 2.734109 3.509248 0
M  V30 30 H -3.365314 -0.419041 4.008081 0
M  V30 END ATOM
M  V30 BEGIN BOND
M  V30 1 2 1 2
M  V30 2 1 2 3
M  V30 3 2 3 4
M  V30 4 1 4 5
M  V30 5 1 5 6
M  V30 6 2 6 7
M  V30 7 1 7 8
M  V30 8 1 8 9
M  V30 9 2 9 10
M  V30 10 1 10 11
M  V30 11 2 11 12
M  V30 12 1 12 13
M  V30 13 2 13 14
M  V30 14 2 5 15
M  V30 15 1 15 16
M  V30 16 2 16 17
M  V30 17 1 17 18
M  V30 18 2 18 19
M  V30 19 1 19 1
M  V30 20 1 18 4
M  V30 21 1 14 6
M  V30 22 1 14 9
M  V30 23 1 1 20
M  V30 24 1 2 21
M  V30 25 1 3 22
M  V30 26 1 7 23
M  V30 27 1 8 24
M  V30 28 1 10 25
M  V30 29 1 12 26
M  V30 30 1 13 27
M  V30 31 1 15 28
M  V30 32 1 16 29
M  V30 33 1 19 30
M  V30 END BOND
M  V30 END CTAB
M  END
>  <Dataset>  (780) 
ChEMBL_Kinases

>  <Ligand_Instance>  (780) 
nan

>  <PDB_ID>  (780) 
nan

>  <Standardized_SMILES>  (780) 
c1ccc2c(-c3c[nH]c4cnccc34)ccnc2c1

>  <Name>  (780) 
nan

>  <Pocket>  (780) 
nan

>  <ATP_Site>  (780) 
nan

>  <Peripheral>  (780) 
nan

>  <Num_H_Atoms_ProtBoundConf>  (780) 
nan

>  <Num_Resolved_Atoms>  (780) 
nan

>  <Num_Not_Resolved_Atoms>  (780) 
nan

$$$$
CHEMBL4066605
     RDKit          3D

  0  0  0  0  0  0  0  0  0  0999 V3000
M  V30 BEGIN CTAB
M  V30 COUNTS 27 29 0 0 0
M  V30 BEGIN ATOM
M  V30 1 N -1.256790 -2.423348 3.090965 0
M  V30 2 C -0.231407 -1.972533 2.777139 0
M  V30 3 C 1.059130 -1.434034 2.385737 0
M  V30 4 C 2.261036 -1.554964 3.080306 0
M  V30 5 N 3.251135 -0.924368 2.377119 0
M  V30 6 C 2.704322 -0.400078 1.239623 0
M  V30 7 N 3.238516 0.296077 0.221374 0
M  V30 8 C 2.493671 0.711148 -0.818004 0
M  V30 9 N 2.990901 1.455512 -1.921444 0
M  V30 10 N 1.162316 0.420361 -0.843997 0
M  V30 11 C 0.594552 -0.281016 0.170119 0
M  V30 12 C -0.832247 -0.591832 0.073161 0
M  V30 13 C -1.510840 0.086849 1.089093 0
M  V30 14 C -2.884889 -0.005629 1.205108 0
M  V30 15 C -3.584605 -0.783023 0.298173 0
M  V30 16 C -2.919264 -1.453842 -0.701956 0
M  V30 17 C -1.546122 -1.356613 -0.812386 0
M  V30 18 F -0.724654 -1.945165 -1.728035 0
M  V30 19 C 1.349575 -0.713918 1.245920 0
M  V30 20 H 2.385752 -2.068757 4.029138 0
M  V30 21 H 4.264327 -0.863115 2.660892 0
M  V30 22 H 3.291340 0.996676 -2.805463 0
M  V30 23 H 2.928466 2.447439 -1.526703 0
M  V30 24 H -1.120121 0.736334 1.878765 0
M  V30 25 H -3.504477 0.488840 1.967694 0
M  V30 26 H -4.671064 -0.915844 0.315019 0
M  V30 27 H -3.342899 -2.095519 -1.469121 0
M  V30 END ATOM
M  V30 BEGIN BOND
M  V30 1 3 1 2
M  V30 2 1 2 3
M  V30 3 2 3 4
M  V30 4 1 4 5
M  V30 5 1 5 6
M  V30 6 2 6 7
M  V30 7 1 7 8
M  V30 8 1 8 9
M  V30 9 2 8 10
M  V30 10 1 10 11
M  V30 11 1 11 12
M  V30 12 2 12 13
M  V30 13 1 13 14
M  V30 14 2 14 15
M  V30 15 1 15 16
M  V30 16 2 16 17
M  V30 17 1 17 18
M  V30 18 2 11 19
M  V30 19 1 19 3
M  V30 20 1 19 6
M  V30 21 1 17 12
M  V30 22 1 4 20
M  V30 23 1 5 21
M  V30 24 1 9 22
M  V30 25 1 9 23
M  V30 26 1 13 24
M  V30 27 1 14 25
M  V30 28 1 15 26
M  V30 29 1 16 27
M  V30 END BOND
M  V30 END CTAB
M  END
>  <Dataset>  (781) 
ChEMBL_Kinases

>  <Ligand_Instance>  (781) 
nan

>  <PDB_ID>  (781) 
nan

>  <Standardized_SMILES>  (781) 
N#Cc1c[nH]c2nc(N)nc(-c3ccccc3F)c12

>  <Name>  (781) 
nan

>  <Pocket>  (781) 
nan

>  <ATP_Site>  (781) 
nan

>  <Peripheral>  (781) 
nan

>  <Num_H_Atoms_ProtBoundConf>  (781) 
nan

>  <Num_Resolved_Atoms>  (781) 
nan

>  <Num_Not_Resolved_Atoms>  (781) 
nan

$$$$
CHEMBL4066528
     RDKit          3D

  0  0  0  0  0  0  0  0  0  0999 V3000
M  V30 BEGIN CTAB
M  V30 COUNTS 47 50 0 0 0
M  V30 BEGIN ATOM
M  V30 1 O -0.704975 -6.154026 1.594960 0
M  V30 2 C -0.310159 -5.117377 1.010420 0
M  V30 3 N -0.176193 -4.996603 -0.395216 0
M  V30 4 C 0.291250 -3.678387 -0.650647 0
M  V30 5 C 0.592439 -3.026736 -1.847778 0
M  V30 6 C 1.034226 -1.727347 -1.811656 0
M  V30 7 Cl 1.406200 -0.931385 -3.336626 0
M  V30 8 C 1.207512 -0.997818 -0.648425 0
M  V30 9 C 1.675677 0.381448 -0.606583 0
M  V30 10 O 2.756784 0.886354 -1.002008 0
M  V30 11 N 0.840455 1.408087 -0.040106 0
M  V30 12 C 1.168282 2.803634 0.068202 0 CFG=2
M  V30 13 C 1.342518 3.263506 1.492887 0
M  V30 14 O 0.218087 3.102694 2.280571 0
M  V30 15 C 0.242806 3.628569 -0.716980 0
M  V30 16 C -0.330961 4.756445 -0.173313 0
M  V30 17 C -1.193986 5.545389 -0.879285 0
M  V30 18 C -1.551046 5.258718 -2.200094 0
M  V30 19 C -0.943059 4.103487 -2.709565 0
M  V30 20 C -0.066108 3.288413 -2.014712 0
M  V30 21 C 0.895289 -1.687346 0.517781 0
M  V30 22 C 0.448816 -2.989348 0.537514 0
M  V30 23 C 0.079180 -3.862228 1.621844 0
M  V30 24 C 0.074077 -3.662129 2.916609 0
M  V30 25 C -0.285938 -4.561134 3.998595 0
M  V30 26 C -1.147887 -4.064516 4.986188 0
M  V30 27 C -1.375226 -5.014090 5.949343 0
M  V30 28 C -0.648218 -6.109314 5.556509 0
M  V30 29 N -0.030314 -5.792115 4.411477 0
M  V30 30 H -0.389933 -5.753068 -1.076975 0
M  V30 31 H 0.472966 -3.558773 -2.801879 0
M  V30 32 H -0.106810 1.213792 0.352891 0
M  V30 33 H 2.187322 2.936596 -0.403311 0
M  V30 34 H 1.595700 4.343242 1.490606 0
M  V30 35 H 2.240388 2.741703 1.907553 0
M  V30 36 H 0.125790 3.847949 2.956513 0
M  V30 37 H -0.158003 5.104430 0.822322 0
M  V30 38 H -1.671587 6.445198 -0.493424 0
M  V30 39 H -2.223854 5.827853 -2.825819 0
M  V30 40 H -1.193844 3.845866 -3.731946 0
M  V30 41 H 0.341882 2.418349 -2.514569 0
M  V30 42 H 1.016042 -1.151597 1.470132 0
M  V30 43 H 0.402634 -2.642454 3.172771 0
M  V30 44 H -1.656597 -3.097232 5.130511 0
M  V30 45 H -1.957228 -5.032823 6.846578 0
M  V30 46 H -0.547169 -7.074535 6.029914 0
M  V30 47 H 0.602858 -6.413610 3.879826 0
M  V30 END ATOM
M  V30 BEGIN BOND
M  V30 1 2 1 2
M  V30 2 1 2 3
M  V30 3 1 3 4
M  V30 4 2 4 5
M  V30 5 1 5 6
M  V30 6 1 6 7
M  V30 7 2 6 8
M  V30 8 1 8 9
M  V30 9 2 9 10
M  V30 10 1 9 11
M  V30 11 1 11 12
M  V30 12 1 12 13
M  V30 13 1 13 14
M  V30 14 1 12 15
M  V30 15 2 15 16
M  V30 16 1 16 17
M  V30 17 2 17 18
M  V30 18 1 18 19
M  V30 19 2 19 20
M  V30 20 1 8 21
M  V30 21 2 21 22
M  V30 22 1 22 23
M  V30 23 2 23 24
M  V30 24 1 24 25
M  V30 25 2 25 26
M  V30 26 1 26 27
M  V30 27 2 27 28
M  V30 28 1 28 29
M  V30 29 1 23 2
M  V30 30 1 29 25
M  V30 31 1 22 4
M  V30 32 1 20 15
M  V30 33 1 3 30
M  V30 34 1 5 31
M  V30 35 1 11 32
M  V30 36 1 12 33 CFG=3
M  V30 37 1 13 34
M  V30 38 1 13 35
M  V30 39 1 14 36
M  V30 40 1 16 37
M  V30 41 1 17 38
M  V30 42 1 18 39
M  V30 43 1 19 40
M  V30 44 1 20 41
M  V30 45 1 21 42
M  V30 46 1 24 43
M  V30 47 1 26 44
M  V30 48 1 27 45
M  V30 49 1 28 46
M  V30 50 1 29 47
M  V30 END BOND
M  V30 END CTAB
M  END
>  <Dataset>  (782) 
ChEMBL_Kinases

>  <Ligand_Instance>  (782) 
nan

>  <PDB_ID>  (782) 
nan

>  <Standardized_SMILES>  (782) 
O=C1Nc2cc(Cl)c(C(=O)N[C@H](CO)c3ccccc3)cc2/C1=C/c1ccc[nH]1

>  <Name>  (782) 
nan

>  <Pocket>  (782) 
nan

>  <ATP_Site>  (782) 
nan

>  <Peripheral>  (782) 
nan

>  <Num_H_Atoms_ProtBoundConf>  (782) 
nan

>  <Num_Resolved_Atoms>  (782) 
nan

>  <Num_Not_Resolved_Atoms>  (782) 
nan

$$$$
CHEMBL406652
     RDKit          3D

  0  0  0  0  0  0  0  0  0  0999 V3000
M  V30 BEGIN CTAB
M  V30 COUNTS 39 42 0 0 0
M  V30 BEGIN ATOM
M  V30 1 O 0.787612 -4.070774 3.672675 0
M  V30 2 C 1.824873 -4.131237 2.964327 0
M  V30 3 O 2.645890 -5.197398 3.317514 0
M  V30 4 C 2.155594 -3.204541 1.889555 0
M  V30 5 C 3.332239 -3.416084 1.214240 0
M  V30 6 C 3.696178 -2.562394 0.180559 0
M  V30 7 C 2.834296 -1.516120 -0.124620 0
M  V30 8 C 1.665086 -1.349114 0.585209 0
M  V30 9 C 0.687285 -0.382079 0.436338 0
M  V30 10 C 0.628474 0.708427 -0.499080 0
M  V30 11 C 0.608774 0.261578 -1.822159 0
M  V30 12 C 0.552798 1.156765 -2.889359 0
M  V30 13 C 0.516824 2.515815 -2.600397 0
M  V30 14 C 0.535837 2.973113 -1.290556 0
M  V30 15 C 0.591514 2.068227 -0.247558 0
M  V30 16 C -0.255801 -0.656066 1.375647 0
M  V30 17 C -1.513704 0.023937 1.690389 0
M  V30 18 C -2.550792 0.118852 0.792936 0
M  V30 19 C -3.735136 0.746012 1.056838 0
M  V30 20 C -3.891366 1.318203 2.307626 0
M  V30 21 C -2.874975 1.248292 3.244568 0
M  V30 22 C -1.691599 0.603141 2.934926 0
M  V30 23 N 0.093058 -1.753934 2.104361 0
M  V30 24 C 1.274464 -2.185147 1.622671 0
M  V30 25 H 2.263664 -6.053935 3.737358 0
M  V30 26 H 3.980974 -4.245258 1.481492 0
M  V30 27 H 4.621750 -2.772621 -0.311326 0
M  V30 28 H 3.115692 -0.849452 -0.929792 0
M  V30 29 H 0.634164 -0.787761 -2.141710 0
M  V30 30 H 0.536630 0.836858 -3.915499 0
M  V30 31 H 0.472907 3.235769 -3.416416 0
M  V30 32 H 0.508823 4.031150 -1.025889 0
M  V30 33 H 0.610936 2.316999 0.819420 0
M  V30 34 H -2.450272 -0.317942 -0.182348 0
M  V30 35 H -4.535367 0.812761 0.348267 0
M  V30 36 H -4.818466 1.840709 2.592526 0
M  V30 37 H -2.977897 1.691043 4.232320 0
M  V30 38 H -0.873496 0.526368 3.638173 0
M  V30 39 H -0.420502 -2.222966 2.902888 0
M  V30 END ATOM
M  V30 BEGIN BOND
M  V30 1 2 1 2
M  V30 2 1 2 3
M  V30 3 1 2 4
M  V30 4 2 4 5
M  V30 5 1 5 6
M  V30 6 2 6 7
M  V30 7 1 7 8
M  V30 8 1 8 9
M  V30 9 1 9 10
M  V30 10 2 10 11
M  V30 11 1 11 12
M  V30 12 2 12 13
M  V30 13 1 13 14
M  V30 14 2 14 15
M  V30 15 2 9 16
M  V30 16 1 16 17
M  V30 17 2 17 18
M  V30 18 1 18 19
M  V30 19 2 19 20
M  V30 20 1 20 21
M  V30 21 2 21 22
M  V30 22 1 16 23
M  V30 23 1 23 24
M  V30 24 1 24 4
M  V30 25 2 24 8
M  V30 26 1 15 10
M  V30 27 1 22 17
M  V30 28 1 3 25
M  V30 29 1 5 26
M  V30 30 1 6 27
M  V30 31 1 7 28
M  V30 32 1 11 29
M  V30 33 1 12 30
M  V30 34 1 13 31
M  V30 35 1 14 32
M  V30 36 1 15 33
M  V30 37 1 18 34
M  V30 38 1 19 35
M  V30 39 1 20 36
M  V30 40 1 21 37
M  V30 41 1 22 38
M  V30 42 1 23 39
M  V30 END BOND
M  V30 END CTAB
M  END
>  <Dataset>  (783) 
ChEMBL_Kinases

>  <Ligand_Instance>  (783) 
nan

>  <PDB_ID>  (783) 
nan

>  <Standardized_SMILES>  (783) 
O=C(O)c1cccc2c(-c3ccccc3)c(-c3ccccc3)[nH]c12

>  <Name>  (783) 
nan

>  <Pocket>  (783) 
nan

>  <ATP_Site>  (783) 
nan

>  <Peripheral>  (783) 
nan

>  <Num_H_Atoms_ProtBoundConf>  (783) 
nan

>  <Num_Resolved_Atoms>  (783) 
nan

>  <Num_Not_Resolved_Atoms>  (783) 
nan

$$$$
CHEMBL4066450
     RDKit          3D

  0  0  0  0  0  0  0  0  0  0999 V3000
M  V30 BEGIN CTAB
M  V30 COUNTS 29 31 0 0 0
M  V30 BEGIN ATOM
M  V30 1 C -0.915566 -5.422217 1.651790 0
M  V30 2 O -0.239514 -4.496584 2.472488 0
M  V30 3 C 0.016760 -3.179634 2.134483 0
M  V30 4 C 0.704711 -2.463786 3.122372 0
M  V30 5 C 1.047099 -1.129553 2.957770 0
M  V30 6 C 0.725950 -0.434361 1.806095 0
M  V30 7 C 0.050161 -1.170635 0.856629 0
M  V30 8 C -0.304114 -2.494807 0.989091 0
M  V30 9 N -0.178246 -0.337009 -0.187903 0
M  V30 10 C 0.314252 0.893169 0.041407 0
M  V30 11 C 0.348937 2.073881 -0.671080 0
M  V30 12 C -0.298304 2.015582 -2.017133 0
M  V30 13 O 0.464760 1.369517 -2.963404 0
M  V30 14 N 0.940278 3.169417 -0.139285 0
M  V30 15 C 1.489892 3.099804 1.079411 0
M  V30 16 C 1.483275 1.935465 1.840762 0
M  V30 17 C 0.885637 0.839902 1.295764 0
M  V30 18 H -0.258941 -6.248258 1.302803 0
M  V30 19 H -1.299561 -4.950665 0.726984 0
M  V30 20 H -1.832671 -5.835118 2.160395 0
M  V30 21 H 1.005158 -2.920564 4.067778 0
M  V30 22 H 1.582154 -0.570630 3.724478 0
M  V30 23 H -0.824446 -3.048888 0.250907 0
M  V30 24 H -0.676072 -0.607573 -1.068960 0
M  V30 25 H -0.541951 3.055625 -2.360752 0
M  V30 26 H -1.287082 1.474983 -1.951311 0
M  V30 27 H 1.432456 1.466320 -2.792571 0
M  V30 28 H 1.961523 3.972262 1.505104 0
M  V30 29 H 1.926363 1.891956 2.814581 0
M  V30 END ATOM
M  V30 BEGIN BOND
M  V30 1 1 1 2
M  V30 2 1 2 3
M  V30 3 2 3 4
M  V30 4 1 4 5
M  V30 5 2 5 6
M  V30 6 1 6 7
M  V30 7 2 7 8
M  V30 8 1 7 9
M  V30 9 1 9 10
M  V30 10 2 10 11
M  V30 11 1 11 12
M  V30 12 1 12 13
M  V30 13 1 11 14
M  V30 14 2 14 15
M  V30 15 1 15 16
M  V30 16 2 16 17
M  V30 17 1 8 3
M  V30 18 1 17 10
M  V30 19 1 17 6
M  V30 20 1 1 18
M  V30 21 1 1 19
M  V30 22 1 1 20
M  V30 23 1 4 21
M  V30 24 1 5 22
M  V30 25 1 8 23
M  V30 26 1 9 24
M  V30 27 1 12 25
M  V30 28 1 12 26
M  V30 29 1 13 27
M  V30 30 1 15 28
M  V30 31 1 16 29
M  V30 END BOND
M  V30 END CTAB
M  END
>  <Dataset>  (784) 
ChEMBL_Kinases

>  <Ligand_Instance>  (784) 
nan

>  <PDB_ID>  (784) 
nan

>  <Standardized_SMILES>  (784) 
COc1ccc2c(c1)[nH]c1c(CO)nccc12

>  <Name>  (784) 
nan

>  <Pocket>  (784) 
nan

>  <ATP_Site>  (784) 
nan

>  <Peripheral>  (784) 
nan

>  <Num_H_Atoms_ProtBoundConf>  (784) 
nan

>  <Num_Resolved_Atoms>  (784) 
nan

>  <Num_Not_Resolved_Atoms>  (784) 
nan

$$$$
CHEMBL4066428
     RDKit          3D

  0  0  0  0  0  0  0  0  0  0999 V3000
M  V30 BEGIN CTAB
M  V30 COUNTS 45 47 0 0 0
M  V30 BEGIN ATOM
M  V30 1 C 1.189824 -6.038125 3.641684 0
M  V30 2 N 0.024768 -6.324308 2.820912 0
M  V30 3 C -0.426666 -5.414288 1.827849 0
M  V30 4 C 0.138338 -4.210529 1.512561 0
M  V30 5 C -0.317383 -3.309302 0.538601 0
M  V30 6 O 0.568868 -2.237120 0.587146 0
M  V30 7 C 0.455961 -1.124105 -0.212602 0
M  V30 8 C -0.526208 -0.892709 -1.132023 0
M  V30 9 C -0.400159 0.296792 -1.791239 0
M  V30 10 C 0.538702 1.264230 -1.671653 0
M  V30 11 N 0.752648 2.521524 -2.271479 0
M  V30 12 C 0.675762 3.873643 -1.853987 0
M  V30 13 S 1.058203 4.868449 -3.048425 0
M  V30 14 N 0.310914 4.297239 -0.559377 0
M  V30 15 C -0.081035 3.677416 0.651311 0
M  V30 16 C 0.815744 3.521625 1.661167 0
M  V30 17 C 0.460696 2.907489 2.881001 0
M  V30 18 C -0.853208 2.496867 2.925474 0
M  V30 19 C -1.772329 2.649218 1.901669 0
M  V30 20 C -1.389434 3.254784 0.727920 0
M  V30 21 C 1.518927 0.947296 -0.698214 0
M  V30 22 C 1.483506 -0.251251 0.038440 0
M  V30 23 C 2.599226 -0.454124 1.031974 0
M  V30 24 N -1.394149 -3.749635 -0.079268 0
M  V30 25 C -2.016828 -4.910667 0.157388 0
M  V30 26 N -1.516468 -5.714761 1.107016 0
M  V30 27 H 2.075152 -6.073239 2.954877 0
M  V30 28 H 1.283617 -6.751449 4.454250 0
M  V30 29 H 1.135445 -5.006171 4.051408 0
M  V30 30 H -0.481945 -7.218281 2.981923 0
M  V30 31 H 1.021006 -4.086738 2.165880 0
M  V30 32 H -1.307169 -1.609892 -1.285450 0
M  V30 33 H -1.137218 0.564765 -2.556875 0
M  V30 34 H 0.979709 2.098217 -3.166868 0
M  V30 35 H 0.262195 5.287027 -0.241227 0
M  V30 36 H 1.821940 3.882942 1.514982 0
M  V30 37 H 1.210012 2.815897 3.624582 0
M  V30 38 H -1.154812 2.023497 3.852574 0
M  V30 39 H -2.795365 2.313682 1.970838 0
M  V30 40 H -2.083730 3.379351 -0.085368 0
M  V30 41 H 2.346566 1.651430 -0.497737 0
M  V30 42 H 2.392734 0.152332 1.915677 0
M  V30 43 H 2.658924 -1.507082 1.323446 0
M  V30 44 H 3.571351 -0.197877 0.523893 0
M  V30 45 H -2.867802 -5.037062 -0.474504 0
M  V30 END ATOM
M  V30 BEGIN BOND
M  V30 1 1 1 2
M  V30 2 1 2 3
M  V30 3 2 3 4
M  V30 4 1 4 5
M  V30 5 1 5 6
M  V30 6 1 6 7
M  V30 7 2 7 8
M  V30 8 1 8 9
M  V30 9 2 9 10
M  V30 10 1 10 11
M  V30 11 1 11 12
M  V30 12 2 12 13
M  V30 13 1 12 14
M  V30 14 1 14 15
M  V30 15 2 15 16
M  V30 16 1 16 17
M  V30 17 2 17 18
M  V30 18 1 18 19
M  V30 19 2 19 20
M  V30 20 1 10 21
M  V30 21 2 21 22
M  V30 22 1 22 23
M  V30 23 2 5 24
M  V30 24 1 24 25
M  V30 25 2 25 26
M  V30 26 1 26 3
M  V30 27 1 22 7
M  V30 28 1 20 15
M  V30 29 1 1 27
M  V30 30 1 1 28
M  V30 31 1 1 29
M  V30 32 1 2 30
M  V30 33 1 4 31
M  V30 34 1 8 32
M  V30 35 1 9 33
M  V30 36 1 11 34
M  V30 37 1 14 35
M  V30 38 1 16 36
M  V30 39 1 17 37
M  V30 40 1 18 38
M  V30 41 1 19 39
M  V30 42 1 20 40
M  V30 43 1 21 41
M  V30 44 1 23 42
M  V30 45 1 23 43
M  V30 46 1 23 44
M  V30 47 1 25 45
M  V30 END BOND
M  V30 END CTAB
M  END
>  <Dataset>  (785) 
ChEMBL_Kinases

>  <Ligand_Instance>  (785) 
nan

>  <PDB_ID>  (785) 
nan

>  <Standardized_SMILES>  (785) 
CNc1cc(Oc2ccc(NC(=S)Nc3ccccc3)cc2C)ncn1

>  <Name>  (785) 
nan

>  <Pocket>  (785) 
nan

>  <ATP_Site>  (785) 
nan

>  <Peripheral>  (785) 
nan

>  <Num_H_Atoms_ProtBoundConf>  (785) 
nan

>  <Num_Resolved_Atoms>  (785) 
nan

>  <Num_Not_Resolved_Atoms>  (785) 
nan

$$$$
CHEMBL4066402
     RDKit          3D

  0  0  0  0  0  0  0  0  0  0999 V3000
M  V30 BEGIN CTAB
M  V30 COUNTS 51 54 0 0 0
M  V30 BEGIN ATOM
M  V30 1 C 1.230558 -2.775381 5.438549 0
M  V30 2 C 1.524878 -3.491347 4.164284 0
M  V30 3 C 1.902810 -4.832991 4.163164 0
M  V30 4 C 2.157412 -5.421579 2.941480 0
M  V30 5 C 2.039575 -4.701146 1.771762 0
M  V30 6 F 2.318173 -5.402137 0.655416 0
M  V30 7 C 1.665334 -3.367703 1.753931 0
M  V30 8 C 1.569697 -2.695362 0.465511 0
M  V30 9 C 1.208633 -1.383509 0.352681 0
M  V30 10 C 1.097476 -0.677302 -0.852933 0
M  V30 11 N 0.715547 0.691322 -0.904381 0
M  V30 12 C 0.322963 1.727147 -0.034615 0
M  V30 13 C 1.315345 2.724845 0.038469 0
M  V30 14 C 1.206525 3.877030 0.825068 0
M  V30 15 N 0.069570 3.985181 1.528467 0
M  V30 16 C -0.909190 3.073609 1.499159 0
M  V30 17 C -2.147368 2.937837 2.074644 0
M  V30 18 N -2.672212 1.804016 1.632878 0
M  V30 19 N -1.846514 1.167079 0.786313 0
M  V30 20 C -2.228878 -0.047703 0.163435 0
M  V30 21 C -2.994256 0.208380 -1.129566 0 CFG=1
M  V30 22 C -4.228982 1.011866 -0.736412 0
M  V30 23 O -2.207614 0.899550 -2.027849 0
M  V30 24 C -0.784057 1.958993 0.726483 0
M  V30 25 C 1.375456 -1.366951 -2.006494 0
M  V30 26 C 1.281196 -0.691031 -3.325801 0
M  V30 27 C 1.733780 -2.681266 -1.846487 0
M  V30 28 N 1.832602 -3.332556 -0.683946 0
M  V30 29 C 1.417576 -2.806624 2.988022 0
M  V30 30 H 1.637474 -3.305447 6.318201 0
M  V30 31 H 0.134594 -2.643427 5.560171 0
M  V30 32 H 1.659154 -1.735998 5.394127 0
M  V30 33 H 1.980731 -5.353454 5.107365 0
M  V30 34 H 2.447632 -6.466423 2.996978 0
M  V30 35 H 0.975116 -0.779145 1.224905 0
M  V30 36 H 0.696058 1.110706 -1.887152 0
M  V30 37 H 2.271187 2.698954 -0.512705 0
M  V30 38 H 1.980667 4.627719 0.865403 0
M  V30 39 H -2.614067 3.639683 2.771321 0
M  V30 40 H -2.969023 -0.571209 0.851234 0
M  V30 41 H -1.499401 -0.799721 -0.051746 0
M  V30 42 H -3.296235 -0.747260 -1.579783 0
M  V30 43 H -4.713283 0.508410 0.125147 0
M  V30 44 H -3.948170 2.046220 -0.517734 0
M  V30 45 H -4.939394 0.933950 -1.584440 0
M  V30 46 H -2.387597 1.870848 -2.047856 0
M  V30 47 H 0.229904 -0.422403 -3.558753 0
M  V30 48 H 1.920803 0.219229 -3.252625 0
M  V30 49 H 1.633549 -1.343519 -4.149243 0
M  V30 50 H 1.957004 -3.236386 -2.767706 0
M  V30 51 H 1.124965 -1.770301 2.998318 0
M  V30 END ATOM
M  V30 BEGIN BOND
M  V30 1 1 1 2
M  V30 2 2 2 3
M  V30 3 1 3 4
M  V30 4 2 4 5
M  V30 5 1 5 6
M  V30 6 1 5 7
M  V30 7 1 7 8
M  V30 8 2 8 9
M  V30 9 1 9 10
M  V30 10 1 10 11
M  V30 11 1 11 12
M  V30 12 2 12 13
M  V30 13 1 13 14
M  V30 14 2 14 15
M  V30 15 1 15 16
M  V30 16 1 16 17
M  V30 17 2 17 18
M  V30 18 1 18 19
M  V30 19 1 19 20
M  V30 20 1 20 21
M  V30 21 1 21 22
M  V30 22 1 21 23
M  V30 23 1 19 24
M  V30 24 2 10 25
M  V30 25 1 25 26
M  V30 26 1 25 27
M  V30 27 2 27 28
M  V30 28 2 7 29
M  V30 29 1 29 2
M  V30 30 1 28 8
M  V30 31 1 24 12
M  V30 32 2 24 16
M  V30 33 1 1 30
M  V30 34 1 1 31
M  V30 35 1 1 32
M  V30 36 1 3 33
M  V30 37 1 4 34
M  V30 38 1 9 35
M  V30 39 1 11 36
M  V30 40 1 13 37
M  V30 41 1 14 38
M  V30 42 1 17 39
M  V30 43 1 20 40
M  V30 44 1 20 41
M  V30 45 1 21 42 CFG=3
M  V30 46 1 22 43
M  V30 47 1 22 44
M  V30 48 1 22 45
M  V30 49 1 23 46
M  V30 50 1 26 47
M  V30 51 1 26 48
M  V30 52 1 26 49
M  V30 53 1 27 50
M  V30 54 1 29 51
M  V30 END BOND
M  V30 END CTAB
M  END
>  <Dataset>  (786) 
ChEMBL_Kinases

>  <Ligand_Instance>  (786) 
nan

>  <PDB_ID>  (786) 
nan

>  <Standardized_SMILES>  (786) 
Cc1ccc(F)c(-c2cc(Nc3ccnc4cnn(C[C@@H](C)O)c34)c(C)cn2)c1

>  <Name>  (786) 
nan

>  <Pocket>  (786) 
nan

>  <ATP_Site>  (786) 
nan

>  <Peripheral>  (786) 
nan

>  <Num_H_Atoms_ProtBoundConf>  (786) 
nan

>  <Num_Resolved_Atoms>  (786) 
nan

>  <Num_Not_Resolved_Atoms>  (786) 
nan

$$$$
CHEMBL4066751
     RDKit          3D

  0  0  0  0  0  0  0  0  0  0999 V3000
M  V30 BEGIN CTAB
M  V30 COUNTS 45 48 0 0 0
M  V30 BEGIN ATOM
M  V30 1 C -0.593763 -5.608256 5.248862 0
M  V30 2 N -0.917456 -5.334622 3.868400 0
M  V30 3 C -0.480448 -4.194507 3.302169 0
M  V30 4 C -0.912228 -4.170656 2.009889 0
M  V30 5 C -0.704562 -3.163701 0.991945 0
M  V30 6 C -0.020877 -1.974504 1.063454 0
M  V30 7 C 0.039205 -1.179878 -0.041400 0
M  V30 8 C 0.647958 0.041873 -0.240077 0
M  V30 9 N 1.363301 0.676566 0.816256 0
M  V30 10 C 2.006430 1.979435 0.586717 0 CFG=1
M  V30 11 C 0.929991 2.934208 0.202437 0
M  V30 12 C 1.165104 4.348030 0.653504 0
M  V30 13 C 1.641791 4.335744 2.094061 0
M  V30 14 N 2.946693 3.698641 2.079160 0
M  V30 15 C 2.753521 2.297315 1.819428 0
M  V30 16 N 0.572507 0.635643 -1.415337 0
M  V30 17 C -0.028776 0.236125 -2.518893 0
M  V30 18 C -0.664297 -0.977504 -2.411067 0
M  V30 19 C -1.412578 -1.665935 -3.476624 0
M  V30 20 N -1.436819 -0.947832 -4.703912 0
M  V30 21 O -1.996819 -2.781660 -3.377109 0
M  V30 22 C -0.612585 -1.646493 -1.183641 0
M  V30 23 S -1.330336 -3.248961 -0.688705 0
M  V30 24 C -1.625484 -5.334270 1.811741 0
M  V30 25 N -1.612883 -6.028756 2.966276 0
M  V30 26 H -1.040291 -4.817718 5.868776 0
M  V30 27 H 0.503546 -5.590836 5.412696 0
M  V30 28 H -0.989853 -6.620345 5.489013 0
M  V30 29 H 0.112210 -3.382404 3.715970 0
M  V30 30 H 0.444994 -1.720318 2.007627 0
M  V30 31 H 1.407408 0.174074 1.754190 0
M  V30 32 H 2.715093 1.799265 -0.272521 0
M  V30 33 H 0.838878 2.947164 -0.903688 0
M  V30 34 H -0.073970 2.626144 0.589654 0
M  V30 35 H 0.207130 4.908341 0.637051 0
M  V30 36 H 1.887672 4.888767 0.031989 0
M  V30 37 H 0.932607 3.813173 2.745245 0
M  V30 38 H 1.712504 5.398454 2.452395 0
M  V30 39 H 3.309027 3.760630 3.075996 0
M  V30 40 H 2.250184 1.890817 2.745618 0
M  V30 41 H 3.751409 1.810329 1.796724 0
M  V30 42 H -0.085461 0.718698 -3.460605 0
M  V30 43 H -2.371991 -0.657376 -5.098078 0
M  V30 44 H -2.280388 -0.592569 -5.219200 0
M  V30 45 H -2.118467 -5.653339 0.893756 0
M  V30 END ATOM
M  V30 BEGIN BOND
M  V30 1 1 1 2
M  V30 2 1 2 3
M  V30 3 2 3 4
M  V30 4 1 4 5
M  V30 5 2 5 6
M  V30 6 1 6 7
M  V30 7 2 7 8
M  V30 8 1 8 9
M  V30 9 1 9 10
M  V30 10 1 10 11
M  V30 11 1 11 12
M  V30 12 1 12 13
M  V30 13 1 13 14
M  V30 14 1 14 15
M  V30 15 1 8 16
M  V30 16 2 16 17
M  V30 17 1 17 18
M  V30 18 1 18 19
M  V30 19 1 19 20
M  V30 20 2 19 21
M  V30 21 2 18 22
M  V30 22 1 22 23
M  V30 23 1 4 24
M  V30 24 2 24 25
M  V30 25 1 25 2
M  V30 26 1 23 5
M  V30 27 1 22 7
M  V30 28 1 15 10
M  V30 29 1 1 26
M  V30 30 1 1 27
M  V30 31 1 1 28
M  V30 32 1 3 29
M  V30 33 1 6 30
M  V30 34 1 9 31
M  V30 35 1 10 32 CFG=3
M  V30 36 1 11 33
M  V30 37 1 11 34
M  V30 38 1 12 35
M  V30 39 1 12 36
M  V30 40 1 13 37
M  V30 41 1 13 38
M  V30 42 1 14 39
M  V30 43 1 15 40
M  V30 44 1 15 41
M  V30 45 1 17 42
M  V30 46 1 20 43
M  V30 47 1 20 44
M  V30 48 1 24 45
M  V30 END BOND
M  V30 END CTAB
M  END
>  <Dataset>  (787) 
ChEMBL_Kinases

>  <Ligand_Instance>  (787) 
nan

>  <PDB_ID>  (787) 
nan

>  <Standardized_SMILES>  (787) 
Cn1cc(-c2cc3c(N[C@H]4CCCNC4)ncc(C(N)=O)c3s2)cn1

>  <Name>  (787) 
nan

>  <Pocket>  (787) 
nan

>  <ATP_Site>  (787) 
nan

>  <Peripheral>  (787) 
nan

>  <Num_H_Atoms_ProtBoundConf>  (787) 
nan

>  <Num_Resolved_Atoms>  (787) 
nan

>  <Num_Not_Resolved_Atoms>  (787) 
nan

$$$$
CHEMBL4064860
     RDKit          3D

  0  0  0  0  0  0  0  0  0  0999 V3000
M  V30 BEGIN CTAB
M  V30 COUNTS 31 33 0 0 0
M  V30 BEGIN ATOM
M  V30 1 N 3.499742 -4.879459 2.619695 0
M  V30 2 C 3.065879 -5.416879 1.557803 0
M  V30 3 N 2.569198 -6.124626 0.432854 0
M  V30 4 C 1.988598 -5.316015 -0.585347 0
M  V30 5 O 1.564417 -5.986119 -1.560629 0
M  V30 6 C 1.990940 -3.875075 -0.315515 0
M  V30 7 C 1.174410 -3.044289 -0.892705 0
M  V30 8 C 1.364590 -1.665090 -0.467257 0
M  V30 9 C 2.630535 -1.041617 -0.301186 0
M  V30 10 S 2.151593 0.688648 0.295983 0
M  V30 11 C 0.352422 0.198139 0.192409 0
M  V30 12 C -0.630421 1.292413 0.610040 0
M  V30 13 C -0.214309 2.512306 1.029342 0
M  V30 14 C -1.199969 3.428901 1.409998 0
M  V30 15 C -2.520098 3.026751 1.332185 0
M  V30 16 C -3.628057 3.952089 1.739276 0
M  V30 17 F -3.323386 5.275209 1.530319 0
M  V30 18 F -4.812325 3.664185 1.079027 0
M  V30 19 F -3.913499 3.799363 3.090758 0
M  V30 20 C -2.916006 1.749340 0.890697 0
M  V30 21 C -1.921306 0.839231 0.511184 0
M  V30 22 N 0.367316 -0.870754 -0.167206 0
M  V30 23 S 3.308966 -3.716635 0.926993 0
M  V30 24 H 3.602374 -5.396991 3.510628 0
M  V30 25 H 2.818420 -7.082155 0.766672 0
M  V30 26 H 0.446469 -3.378933 -1.607877 0
M  V30 27 H 3.640594 -1.720405 -0.566864 0
M  V30 28 H 0.829349 2.783969 1.074757 0
M  V30 29 H -0.927718 4.417059 1.752731 0
M  V30 30 H -3.980875 1.508155 0.858041 0
M  V30 31 H -2.223207 -0.145030 0.168655 0
M  V30 END ATOM
M  V30 BEGIN BOND
M  V30 1 2 1 2 CFG=2
M  V30 2 1 2 3
M  V30 3 1 3 4
M  V30 4 2 4 5
M  V30 5 1 4 6
M  V30 6 2 6 7
M  V30 7 1 7 8
M  V30 8 2 8 9
M  V30 9 1 9 10
M  V30 10 1 10 11
M  V30 11 1 11 12
M  V30 12 2 12 13
M  V30 13 1 13 14
M  V30 14 2 14 15
M  V30 15 1 15 16
M  V30 16 1 16 17
M  V30 17 1 16 18
M  V30 18 1 16 19
M  V30 19 1 15 20
M  V30 20 2 20 21
M  V30 21 2 11 22
M  V30 22 1 6 23
M  V30 23 1 23 2
M  V30 24 1 22 8
M  V30 25 1 21 12
M  V30 26 1 1 24
M  V30 27 1 3 25
M  V30 28 1 7 26
M  V30 29 1 9 27
M  V30 30 1 13 28
M  V30 31 1 14 29
M  V30 32 1 20 30
M  V30 33 1 21 31
M  V30 END BOND
M  V30 END CTAB
M  END
>  <Dataset>  (788) 
ChEMBL_Kinases

>  <Ligand_Instance>  (788) 
nan

>  <PDB_ID>  (788) 
nan

>  <Standardized_SMILES>  (788) 
N=C1NC(=O)/C(=C/c2csc(-c3ccc(C(F)(F)F)cc3)n2)S1

>  <Name>  (788) 
nan

>  <Pocket>  (788) 
nan

>  <ATP_Site>  (788) 
nan

>  <Peripheral>  (788) 
nan

>  <Num_H_Atoms_ProtBoundConf>  (788) 
nan

>  <Num_Resolved_Atoms>  (788) 
nan

>  <Num_Not_Resolved_Atoms>  (788) 
nan

$$$$
CHEMBL4064820
     RDKit          3D

  0  0  0  0  0  0  0  0  0  0999 V3000
M  V30 BEGIN CTAB
M  V30 COUNTS 35 38 0 0 0
M  V30 BEGIN ATOM
M  V30 1 F 2.671447 -5.202038 4.511228 0
M  V30 2 C 2.381820 -4.837638 3.246081 0
M  V30 3 C 2.595270 -5.764203 2.249050 0
M  V30 4 C 2.299939 -5.394005 0.955000 0
M  V30 5 C 1.810632 -4.131137 0.715505 0
M  V30 6 F 1.548200 -3.847033 -0.566075 0
M  V30 7 C 1.581415 -3.174516 1.673630 0
M  V30 8 C 1.069443 -1.833418 1.480754 0
M  V30 9 C 0.702635 -1.221267 0.321930 0
M  V30 10 C 0.222613 0.063987 0.223368 0
M  V30 11 N -0.122159 0.590333 -1.035002 0
M  V30 12 C -0.682171 1.884685 -1.202003 0
M  V30 13 C -0.070015 2.890992 -1.953798 0
M  V30 14 C -0.691248 4.102397 -2.056981 0
M  V30 15 N -1.874115 4.382120 -1.467174 0
M  V30 16 C -2.476679 3.426268 -0.740709 0
M  V30 17 C -3.676696 3.482303 -0.055661 0
M  V30 18 N -3.798871 2.259801 0.489618 0
M  V30 19 N -2.782740 1.496035 0.186930 0
M  V30 20 C -1.904713 2.176107 -0.593401 0
M  V30 21 C 0.087364 0.825134 1.363502 0
M  V30 22 C 0.462898 0.190506 2.527040 0
M  V30 23 N 0.927491 -1.069398 2.575999 0
M  V30 24 C 1.889196 -3.583563 2.954067 0
M  V30 25 H 2.979756 -6.756146 2.438336 0
M  V30 26 H 2.460526 -6.105240 0.163326 0
M  V30 27 H 0.791024 -1.777350 -0.595415 0
M  V30 28 H 0.014469 0.059704 -1.911929 0
M  V30 29 H 0.874623 2.679383 -2.429413 0
M  V30 30 H -0.206545 4.872619 -2.641911 0
M  V30 31 H -4.390189 4.280049 0.055674 0
M  V30 32 H -2.660606 0.517429 0.493698 0
M  V30 33 H -0.278638 1.837245 1.369782 0
M  V30 34 H 0.379264 0.738647 3.459435 0
M  V30 35 H 1.759523 -2.930246 3.824809 0
M  V30 END ATOM
M  V30 BEGIN BOND
M  V30 1 1 1 2
M  V30 2 2 2 3
M  V30 3 1 3 4
M  V30 4 2 4 5
M  V30 5 1 5 6
M  V30 6 1 5 7
M  V30 7 1 7 8
M  V30 8 2 8 9
M  V30 9 1 9 10
M  V30 10 1 10 11
M  V30 11 1 11 12
M  V30 12 2 12 13
M  V30 13 1 13 14
M  V30 14 2 14 15
M  V30 15 1 15 16
M  V30 16 1 16 17
M  V30 17 2 17 18
M  V30 18 1 18 19
M  V30 19 1 19 20
M  V30 20 2 10 21
M  V30 21 1 21 22
M  V30 22 2 22 23
M  V30 23 2 7 24
M  V30 24 1 24 2
M  V30 25 1 23 8
M  V30 26 1 20 12
M  V30 27 2 20 16
M  V30 28 1 3 25
M  V30 29 1 4 26
M  V30 30 1 9 27
M  V30 31 1 11 28
M  V30 32 1 13 29
M  V30 33 1 14 30
M  V30 34 1 17 31
M  V30 35 1 19 32
M  V30 36 1 21 33
M  V30 37 1 22 34
M  V30 38 1 24 35
M  V30 END BOND
M  V30 END CTAB
M  END
>  <Dataset>  (789) 
ChEMBL_Kinases

>  <Ligand_Instance>  (789) 
nan

>  <PDB_ID>  (789) 
nan

>  <Standardized_SMILES>  (789) 
Fc1ccc(F)c(-c2cc(Nc3ccnc4cn[nH]c34)ccn2)c1

>  <Name>  (789) 
nan

>  <Pocket>  (789) 
nan

>  <ATP_Site>  (789) 
nan

>  <Peripheral>  (789) 
nan

>  <Num_H_Atoms_ProtBoundConf>  (789) 
nan

>  <Num_Resolved_Atoms>  (789) 
nan

>  <Num_Not_Resolved_Atoms>  (789) 
nan

$$$$
CHEMBL4064740
     RDKit          3D

  0  0  0  0  0  0  0  0  0  0999 V3000
M  V30 BEGIN CTAB
M  V30 COUNTS 43 45 0 0 0
M  V30 BEGIN ATOM
M  V30 1 C 0.224414 -0.770824 -1.200719 0
M  V30 2 C 1.417986 -0.210316 -1.856216 0
M  V30 3 C 2.102377 -1.061546 -2.702252 0
M  V30 4 C 3.233888 -0.630584 -3.363938 0
M  V30 5 C 3.623490 0.667973 -3.130604 0
M  V30 6 N 4.787856 1.144266 -3.798368 0 CHG=1 VAL=4
M  V30 7 O 5.465450 0.449168 -4.576789 0
M  V30 8 O 5.251389 2.432543 -3.623726 0 CHG=-1 VAL=1
M  V30 9 C 2.960166 1.521041 -2.299370 0
M  V30 10 C 1.811054 1.101496 -1.620128 0
M  V30 11 S 0.929883 2.140578 -0.553600 0
M  V30 12 O -0.410989 2.542347 -1.036274 0
M  V30 13 O 1.720865 3.437787 -0.433240 0
M  V30 14 N 0.859796 1.510244 1.073209 0
M  V30 15 C 2.069452 1.305488 1.831111 0
M  V30 16 N -0.167092 1.109243 1.925216 0
M  V30 17 C -0.345229 -0.143272 2.172961 0
M  V30 18 C -1.411790 -0.586530 3.060150 0
M  V30 19 C -2.302181 0.147688 3.707608 0
M  V30 20 C -3.202544 -0.706454 4.513661 0
M  V30 21 C -2.823807 -1.961449 4.322300 0
M  V30 22 C -3.288996 -3.238357 4.845263 0
M  V30 23 C -2.501008 -4.286083 4.547911 0
M  V30 24 C -1.307342 -4.200679 3.732370 0
M  V30 25 Br -0.189966 -5.743461 3.438444 0
M  V30 26 C -0.902498 -3.077474 3.140088 0
M  V30 27 C -1.772592 -1.948256 3.324755 0
M  V30 28 H 0.511302 -1.612802 -0.565364 0
M  V30 29 H -0.416044 -0.017366 -0.723632 0
M  V30 30 H -0.415825 -1.201634 -2.025685 0
M  V30 31 H 1.774001 -2.079827 -2.868352 0
M  V30 32 H 3.764700 -1.289253 -4.019502 0
M  V30 33 H 3.301537 2.548317 -2.139240 0
M  V30 34 H 2.931589 1.631781 1.214128 0
M  V30 35 H 2.225348 0.256391 2.134656 0
M  V30 36 H 2.076101 1.997712 2.710881 0
M  V30 37 H 0.323158 -0.842134 1.699605 0
M  V30 38 H -2.393502 1.238684 3.677768 0
M  V30 39 H -4.021474 -0.385661 5.146385 0
M  V30 40 H -4.195609 -3.312700 5.421632 0
M  V30 41 H -2.796946 -5.260876 4.958281 0
M  V30 42 H -0.023937 -2.908405 2.552390 0
M  V30 43 H -2.501468 -2.086184 2.275017 0
M  V30 END ATOM
M  V30 BEGIN BOND
M  V30 1 1 1 2
M  V30 2 2 2 3
M  V30 3 1 3 4
M  V30 4 2 4 5
M  V30 5 1 5 6
M  V30 6 2 6 7
M  V30 7 1 6 8
M  V30 8 1 5 9
M  V30 9 2 9 10
M  V30 10 1 10 11
M  V30 11 2 11 12
M  V30 12 2 11 13
M  V30 13 1 11 14
M  V30 14 1 14 15
M  V30 15 1 14 16
M  V30 16 2 16 17
M  V30 17 1 17 18
M  V30 18 2 18 19
M  V30 19 1 19 20
M  V30 20 2 20 21
M  V30 21 1 21 22
M  V30 22 2 22 23
M  V30 23 1 23 24
M  V30 24 1 24 25
M  V30 25 2 24 26
M  V30 26 1 26 27
M  V30 27 1 10 2
M  V30 28 1 27 18
M  V30 29 1 27 21
M  V30 30 1 1 28
M  V30 31 1 1 29
M  V30 32 1 1 30
M  V30 33 1 3 31
M  V30 34 1 4 32
M  V30 35 1 9 33
M  V30 36 1 15 34
M  V30 37 1 15 35
M  V30 38 1 15 36
M  V30 39 1 17 37
M  V30 40 1 19 38
M  V30 41 1 20 39
M  V30 42 1 22 40
M  V30 43 1 23 41
M  V30 44 1 26 42
M  V30 45 1 27 43
M  V30 END BOND
M  V30 END CTAB
M  END
>  <Dataset>  (790) 
ChEMBL_Kinases

>  <Ligand_Instance>  (790) 
nan

>  <PDB_ID>  (790) 
nan

>  <Standardized_SMILES>  (790) 
Cc1ccc([N+](=O)[O-])cc1S(=O)(=O)N(C)/N=C/C1=CC=C2C=CC(Br)=CC21

>  <Name>  (790) 
nan

>  <Pocket>  (790) 
nan

>  <ATP_Site>  (790) 
nan

>  <Peripheral>  (790) 
nan

>  <Num_H_Atoms_ProtBoundConf>  (790) 
nan

>  <Num_Resolved_Atoms>  (790) 
nan

>  <Num_Not_Resolved_Atoms>  (790) 
nan

$$$$
CHEMBL4064695
     RDKit          3D

  0  0  0  0  0  0  0  0  0  0999 V3000
M  V30 BEGIN CTAB
M  V30 COUNTS 55 59 0 0 0
M  V30 BEGIN ATOM
M  V30 1 C 6.539261 1.989851 6.313890 0
M  V30 2 O 5.599753 1.857597 5.267497 0
M  V30 3 C 5.870038 1.235290 4.065500 0
M  V30 4 O 7.015682 0.773283 3.922848 0
M  V30 5 C 4.903246 1.094736 2.978619 0
M  V30 6 C 5.335194 0.443166 1.839277 0
M  V30 7 C 4.463106 0.271215 0.756421 0
M  V30 8 C 3.169284 0.768675 0.861462 0
M  V30 9 C 2.755831 1.419321 2.013434 0
M  V30 10 C 3.617926 1.592044 3.090167 0
M  V30 11 C 1.456364 2.013058 2.333683 0
M  V30 12 O 1.380777 2.851441 3.268809 0
M  V30 13 C 0.230234 1.671627 1.607845 0
M  V30 14 C -0.876992 2.253154 2.188098 0
M  V30 15 C -2.153252 2.087620 1.697466 0
M  V30 16 C -2.356519 1.309321 0.576343 0
M  V30 17 N -3.655433 1.131542 0.034010 0
M  V30 18 C -4.247275 0.141776 -0.792620 0
M  V30 19 C -5.367524 0.404706 -1.553315 0
M  V30 20 C -5.926374 -0.579956 -2.330596 0
M  V30 21 C -5.430773 -1.841993 -2.402479 0
M  V30 22 F -6.011497 -2.786417 -3.182265 0
M  V30 23 C -4.311565 -2.142341 -1.655542 0
M  V30 24 N -3.790510 -3.463587 -1.728382 0
M  V30 25 C -2.826287 -3.854834 -2.662429 0
M  V30 26 O -2.257919 -3.204159 -3.555829 0
M  V30 27 C -2.448141 -5.246900 -2.546989 0
M  V30 28 C -2.828199 -6.306964 -1.706281 0
M  V30 29 C -2.218307 -7.514676 -1.923522 0
M  V30 30 C -1.292851 -7.683600 -2.900572 0
M  V30 31 S -1.173837 -5.993296 -3.692399 0
M  V30 32 C -3.759337 -1.145372 -0.878665 0
M  V30 33 C -1.247081 0.729603 -0.001664 0
M  V30 34 C 0.036166 0.889936 0.483469 0
M  V30 35 O 1.052321 0.241825 -0.207980 0
M  V30 36 C 2.432855 0.481068 -0.377306 0
M  V30 37 H 6.327448 1.326877 7.169610 0
M  V30 38 H 7.578180 1.841806 5.978502 0
M  V30 39 H 6.453233 3.032861 6.686049 0
M  V30 40 H 6.337687 0.040783 1.719140 0
M  V30 41 H 4.758702 -0.232848 -0.155540 0
M  V30 42 H 3.283310 2.102194 3.984863 0
M  V30 43 H -0.758629 2.880049 3.081969 0
M  V30 44 H -3.012688 2.556449 2.171965 0
M  V30 45 H -4.338886 1.906477 0.302262 0
M  V30 46 H -5.772795 1.412092 -1.503291 0
M  V30 47 H -6.812015 -0.258913 -2.891716 0
M  V30 48 H -4.217906 -4.076620 -1.008630 0
M  V30 49 H -3.569836 -6.062305 -0.965870 0
M  V30 50 H -2.475559 -8.363676 -1.303546 0
M  V30 51 H -0.742651 -8.486318 -3.208182 0
M  V30 52 H -2.894688 -1.481426 -0.324423 0
M  V30 53 H -1.284317 0.116748 -0.877454 0
M  V30 54 H 2.847119 -0.416821 -0.864726 0
M  V30 55 H 2.561005 1.333897 -1.083736 0
M  V30 END ATOM
M  V30 BEGIN BOND
M  V30 1 1 1 2
M  V30 2 1 2 3
M  V30 3 2 3 4
M  V30 4 1 3 5
M  V30 5 2 5 6
M  V30 6 1 6 7
M  V30 7 2 7 8
M  V30 8 1 8 9
M  V30 9 2 9 10
M  V30 10 1 9 11
M  V30 11 2 11 12
M  V30 12 1 11 13
M  V30 13 2 13 14
M  V30 14 1 14 15
M  V30 15 2 15 16
M  V30 16 1 16 17
M  V30 17 1 17 18
M  V30 18 2 18 19
M  V30 19 1 19 20
M  V30 20 2 20 21
M  V30 21 1 21 22
M  V30 22 1 21 23
M  V30 23 1 23 24
M  V30 24 1 24 25
M  V30 25 2 25 26
M  V30 26 1 25 27
M  V30 27 2 27 28
M  V30 28 1 28 29
M  V30 29 2 29 30
M  V30 30 1 30 31
M  V30 31 2 23 32
M  V30 32 1 16 33
M  V30 33 2 33 34
M  V30 34 1 34 35
M  V30 35 1 35 36
M  V30 36 1 10 5
M  V30 37 1 34 13
M  V30 38 1 36 8
M  V30 39 1 32 18
M  V30 40 1 31 27
M  V30 41 1 1 37
M  V30 42 1 1 38
M  V30 43 1 1 39
M  V30 44 1 6 40
M  V30 45 1 7 41
M  V30 46 1 10 42
M  V30 47 1 14 43
M  V30 48 1 15 44
M  V30 49 1 17 45
M  V30 50 1 19 46
M  V30 51 1 20 47
M  V30 52 1 24 48
M  V30 53 1 28 49
M  V30 54 1 29 50
M  V30 55 1 30 51
M  V30 56 1 32 52
M  V30 57 1 33 53
M  V30 58 1 36 54
M  V30 59 1 36 55
M  V30 END BOND
M  V30 END CTAB
M  END
>  <Dataset>  (791) 
ChEMBL_Kinases

>  <Ligand_Instance>  (791) 
nan

>  <PDB_ID>  (791) 
nan

>  <Standardized_SMILES>  (791) 
COC(=O)c1ccc2c(c1)C(=O)c1ccc(Nc3ccc(F)c(NC(=O)c4cccs4)c3)cc1OC2

>  <Name>  (791) 
nan

>  <Pocket>  (791) 
nan

>  <ATP_Site>  (791) 
nan

>  <Peripheral>  (791) 
nan

>  <Num_H_Atoms_ProtBoundConf>  (791) 
nan

>  <Num_Resolved_Atoms>  (791) 
nan

>  <Num_Not_Resolved_Atoms>  (791) 
nan

$$$$
CHEMBL4861671
     RDKit          3D

  0  0  0  0  0  0  0  0  0  0999 V3000
M  V30 BEGIN CTAB
M  V30 COUNTS 56 58 0 0 0
M  V30 BEGIN ATOM
M  V30 1 C 0.802181 -3.171659 3.440229 0
M  V30 2 C 0.601039 -2.104533 2.431099 0
M  V30 3 C 1.333302 -0.953149 2.588108 0
M  V30 4 C 1.271878 0.081606 1.706399 0
M  V30 5 N 1.981319 1.306702 1.774759 0
M  V30 6 C 2.895064 1.735135 2.744974 0
M  V30 7 O 3.200087 1.034258 3.716549 0
M  V30 8 C 3.597578 3.018348 2.758821 0 CFG=2
M  V30 9 O 4.442998 3.166978 3.846623 0
M  V30 10 C 2.686468 4.193059 2.622717 0
M  V30 11 C 2.476496 4.773557 1.370973 0
M  V30 12 C 1.657930 5.855188 1.145417 0
M  V30 13 F 1.515108 6.352978 -0.111539 0
M  V30 14 C 1.003167 6.396797 2.239776 0
M  V30 15 C 1.176102 5.857099 3.513394 0
M  V30 16 F 0.538005 6.378993 4.603344 0
M  V30 17 C 2.016487 4.764392 3.675002 0
M  V30 18 C 0.432436 -0.103205 0.654685 0
M  V30 19 C -0.290640 -1.241020 0.501683 0
M  V30 20 C -0.248429 -2.303262 1.379350 0
M  V30 21 C -1.059453 -3.454519 1.067942 0
M  V30 22 C -1.494150 -4.480518 1.849476 0
M  V30 23 N -2.279101 -5.475754 1.431102 0
M  V30 24 C -2.714962 -5.540754 0.163038 0
M  V30 25 N -3.548592 -6.597133 -0.283707 0
M  V30 26 C -2.304624 -4.527924 -0.663801 0
M  V30 27 C -2.714070 -4.491592 -2.063597 0
M  V30 28 O -3.460024 -5.438269 -2.461538 0
M  V30 29 N -2.285670 -3.438347 -2.917872 0
M  V30 30 C -2.616778 -3.280547 -4.322734 0
M  V30 31 C -1.325832 -3.353208 -5.112507 0
M  V30 32 C -3.337019 -1.994577 -4.593373 0
M  V30 33 N -1.521419 -3.564546 -0.185214 0
M  V30 34 H 0.963752 -4.150782 2.983374 0
M  V30 35 H 0.006407 -3.166898 4.205175 0
M  V30 36 H 1.804799 -2.978831 3.976720 0
M  V30 37 H 1.986487 -0.859952 3.445959 0
M  V30 38 H 1.857344 2.039620 1.036031 0
M  V30 39 H 4.270167 3.020517 1.857954 0
M  V30 40 H 3.886041 3.150394 4.682603 0
M  V30 41 H 3.018543 4.305364 0.543081 0
M  V30 42 H 0.343286 7.259334 2.095009 0
M  V30 43 H 2.166019 4.324112 4.672313 0
M  V30 44 H 0.327443 0.682288 -0.097646 0
M  V30 45 H -0.941766 -1.287473 -0.386424 0
M  V30 46 H -1.235692 -4.518390 2.876253 0
M  V30 47 H -4.579660 -6.531975 -0.397062 0
M  V30 48 H -3.150328 -7.544610 -0.535221 0
M  V30 49 H -1.663725 -2.677475 -2.525689 0
M  V30 50 H -3.268619 -4.098486 -4.690748 0
M  V30 51 H -0.643372 -2.507591 -4.861395 0
M  V30 52 H -1.549642 -3.309209 -6.204113 0
M  V30 53 H -0.789424 -4.306880 -4.937236 0
M  V30 54 H -4.444004 -2.177722 -4.578489 0
M  V30 55 H -3.114437 -1.693729 -5.647261 0
M  V30 56 H -3.052996 -1.178061 -3.899916 0
M  V30 END ATOM
M  V30 BEGIN BOND
M  V30 1 1 1 2
M  V30 2 2 2 3
M  V30 3 1 3 4
M  V30 4 1 4 5
M  V30 5 1 5 6
M  V30 6 2 6 7
M  V30 7 1 6 8
M  V30 8 1 8 9
M  V30 9 1 8 10
M  V30 10 2 10 11
M  V30 11 1 11 12
M  V30 12 1 12 13
M  V30 13 2 12 14
M  V30 14 1 14 15
M  V30 15 1 15 16
M  V30 16 2 15 17
M  V30 17 2 4 18
M  V30 18 1 18 19
M  V30 19 2 19 20
M  V30 20 1 20 21
M  V30 21 2 21 22
M  V30 22 1 22 23
M  V30 23 2 23 24
M  V30 24 1 24 25
M  V30 25 1 24 26
M  V30 26 1 26 27
M  V30 27 2 27 28
M  V30 28 1 27 29
M  V30 29 1 29 30
M  V30 30 1 30 31
M  V30 31 1 30 32
M  V30 32 2 26 33
M  V30 33 1 20 2
M  V30 34 1 33 21
M  V30 35 1 17 10
M  V30 36 1 1 34
M  V30 37 1 1 35
M  V30 38 1 1 36
M  V30 39 1 3 37
M  V30 40 1 5 38
M  V30 41 1 8 39 CFG=3
M  V30 42 1 9 40
M  V30 43 1 11 41
M  V30 44 1 14 42
M  V30 45 1 17 43
M  V30 46 1 18 44
M  V30 47 1 19 45
M  V30 48 1 22 46
M  V30 49 1 25 47
M  V30 50 1 25 48
M  V30 51 1 29 49
M  V30 52 1 30 50
M  V30 53 1 31 51
M  V30 54 1 31 52
M  V30 55 1 31 53
M  V30 56 1 32 54
M  V30 57 1 32 55
M  V30 58 1 32 56
M  V30 END BOND
M  V30 END CTAB
M  END
>  <Dataset>  (792) 
ChEMBL_Kinases

>  <Ligand_Instance>  (792) 
nan

>  <PDB_ID>  (792) 
nan

>  <Standardized_SMILES>  (792) 
Cc1cc(NC(=O)[C@H](O)c2cc(F)cc(F)c2)ccc1-c1cnc(N)c(C(=O)NC(C)C)n1

>  <Name>  (792) 
nan

>  <Pocket>  (792) 
nan

>  <ATP_Site>  (792) 
nan

>  <Peripheral>  (792) 
nan

>  <Num_H_Atoms_ProtBoundConf>  (792) 
nan

>  <Num_Resolved_Atoms>  (792) 
nan

>  <Num_Not_Resolved_Atoms>  (792) 
nan

$$$$
CHEMBL406464
     RDKit          3D

  0  0  0  0  0  0  0  0  0  0999 V3000
M  V30 BEGIN CTAB
M  V30 COUNTS 32 34 0 0 0
M  V30 BEGIN ATOM
M  V30 1 C -2.504899 -1.934558 2.523187 0
M  V30 2 C -1.163078 -1.331698 2.897354 0
M  V30 3 O -0.424797 -1.146955 1.742473 0
M  V30 4 C -0.009770 -2.064289 0.831672 0
M  V30 5 C -0.305710 -3.411265 0.970206 0
M  V30 6 C 0.095911 -4.379152 0.068487 0
M  V30 7 N 0.813357 -3.986267 -1.000605 0
M  V30 8 C 1.098057 -2.678029 -1.130656 0
M  V30 9 N 1.788598 -2.041145 -2.093597 0
M  V30 10 C 1.882424 -0.715432 -1.908089 0
M  V30 11 C 1.193349 -0.450693 -0.717359 0
M  V30 12 C 1.017297 0.855280 -0.097038 0
M  V30 13 C 1.584503 1.957455 -0.740572 0
M  V30 14 C 1.504148 3.253653 -0.278827 0
M  V30 15 N 0.836172 3.493670 0.871473 0
M  V30 16 C 0.288681 2.451228 1.498112 0
M  V30 17 N -0.447041 2.535318 2.719088 0
M  V30 18 N 0.398773 1.237175 1.008841 0
M  V30 19 C 0.726111 -1.667676 -0.266483 0
M  V30 20 H -3.339950 -1.220088 2.735277 0
M  V30 21 H -2.577403 -2.150060 1.437117 0
M  V30 22 H -2.703409 -2.888369 3.056585 0
M  V30 23 H -1.359337 -0.409725 3.441889 0
M  V30 24 H -0.615360 -2.021022 3.572471 0
M  V30 25 H -0.875135 -3.798656 1.800666 0
M  V30 26 H -0.145708 -5.427466 0.194670 0
M  V30 27 H 2.227223 -2.519693 -2.930684 0
M  V30 28 H 2.369138 0.011174 -2.515892 0
M  V30 29 H 2.139689 1.867325 -1.668752 0
M  V30 30 H 1.952216 4.088892 -0.796227 0
M  V30 31 H -0.288587 2.558650 3.761922 0
M  V30 32 H -1.457578 2.588117 2.420666 0
M  V30 END ATOM
M  V30 BEGIN BOND
M  V30 1 1 1 2
M  V30 2 1 2 3
M  V30 3 1 3 4
M  V30 4 2 4 5
M  V30 5 1 5 6
M  V30 6 2 6 7
M  V30 7 1 7 8
M  V30 8 1 8 9
M  V30 9 1 9 10
M  V30 10 2 10 11
M  V30 11 1 11 12
M  V30 12 2 12 13
M  V30 13 1 13 14
M  V30 14 2 14 15
M  V30 15 1 15 16
M  V30 16 1 16 17
M  V30 17 2 16 18
M  V30 18 1 11 19
M  V30 19 1 19 4
M  V30 20 2 19 8
M  V30 21 1 18 12
M  V30 22 1 1 20
M  V30 23 1 1 21
M  V30 24 1 1 22
M  V30 25 1 2 23
M  V30 26 1 2 24
M  V30 27 1 5 25
M  V30 28 1 6 26
M  V30 29 1 9 27
M  V30 30 1 10 28
M  V30 31 1 13 29
M  V30 32 1 14 30
M  V30 33 1 17 31
M  V30 34 1 17 32
M  V30 END BOND
M  V30 END CTAB
M  END
>  <Dataset>  (793) 
ChEMBL_Kinases

>  <Ligand_Instance>  (793) 
nan

>  <PDB_ID>  (793) 
nan

>  <Standardized_SMILES>  (793) 
CCOc1ccnc2[nH]cc(-c3ccnc(N)n3)c12

>  <Name>  (793) 
MERIOLIN 4

>  <Pocket>  (793) 
nan

>  <ATP_Site>  (793) 
nan

>  <Peripheral>  (793) 
nan

>  <Num_H_Atoms_ProtBoundConf>  (793) 
nan

>  <Num_Resolved_Atoms>  (793) 
nan

>  <Num_Not_Resolved_Atoms>  (793) 
nan

$$$$
CHEMBL406463
     RDKit          3D

  0  0  0  0  0  0  0  0  0  0999 V3000
M  V30 BEGIN CTAB
M  V30 COUNTS 35 37 0 0 0
M  V30 BEGIN ATOM
M  V30 1 C 0.583253 -1.675073 3.358087 0
M  V30 2 C 0.350506 -2.376173 2.012540 0
M  V30 3 C -1.060535 -2.956149 2.091391 0
M  V30 4 O 0.472125 -1.408633 1.021249 0
M  V30 5 C 1.364483 -1.343611 -0.004250 0
M  V30 6 C 2.330061 -2.313987 -0.188285 0
M  V30 7 C 3.255518 -2.285765 -1.216759 0
M  V30 8 N 3.205950 -1.245078 -2.088380 0
M  V30 9 C 2.260084 -0.307466 -1.896617 0
M  V30 10 N 2.006416 0.803099 -2.609145 0
M  V30 11 C 0.977070 1.521829 -2.132339 0
M  V30 12 C 0.511121 0.826843 -1.009236 0
M  V30 13 C -0.599934 1.218361 -0.153675 0
M  V30 14 C -1.271953 2.404537 -0.477784 0
M  V30 15 C -2.342148 2.929242 0.215265 0
M  V30 16 N -2.778321 2.245347 1.293410 0
M  V30 17 C -2.150363 1.085233 1.642101 0
M  V30 18 N -2.561259 0.317024 2.767170 0
M  V30 19 N -1.134042 0.663420 0.916176 0
M  V30 20 C 1.312462 -0.289071 -0.885600 0
M  V30 21 H 0.800426 -2.447881 4.125434 0
M  V30 22 H 1.383701 -0.915122 3.275571 0
M  V30 23 H -0.389261 -1.219457 3.633620 0
M  V30 24 H 1.066245 -3.194978 1.953041 0
M  V30 25 H -1.239145 -3.253349 3.145520 0
M  V30 26 H -1.813810 -2.204915 1.803598 0
M  V30 27 H -1.126730 -3.877247 1.473607 0
M  V30 28 H 2.436173 -3.164314 0.452771 0
M  V30 29 H 4.013598 -3.043524 -1.364884 0
M  V30 30 H 2.541572 1.115140 -3.466767 0
M  V30 31 H 0.589144 2.444313 -2.532070 0
M  V30 32 H -0.978342 3.013508 -1.335261 0
M  V30 33 H -2.830113 3.830756 -0.055719 0
M  V30 34 H -3.323833 -0.398447 2.690416 0
M  V30 35 H -1.965955 0.630133 3.575094 0
M  V30 END ATOM
M  V30 BEGIN BOND
M  V30 1 1 1 2
M  V30 2 1 2 3
M  V30 3 1 2 4
M  V30 4 1 4 5
M  V30 5 2 5 6
M  V30 6 1 6 7
M  V30 7 2 7 8
M  V30 8 1 8 9
M  V30 9 1 9 10
M  V30 10 1 10 11
M  V30 11 2 11 12
M  V30 12 1 12 13
M  V30 13 2 13 14
M  V30 14 1 14 15
M  V30 15 2 15 16
M  V30 16 1 16 17
M  V30 17 1 17 18
M  V30 18 2 17 19
M  V30 19 1 12 20
M  V30 20 1 20 5
M  V30 21 2 20 9
M  V30 22 1 19 13
M  V30 23 1 1 21
M  V30 24 1 1 22
M  V30 25 1 1 23
M  V30 26 1 2 24
M  V30 27 1 3 25
M  V30 28 1 3 26
M  V30 29 1 3 27
M  V30 30 1 6 28
M  V30 31 1 7 29
M  V30 32 1 10 30
M  V30 33 1 11 31
M  V30 34 1 14 32
M  V30 35 1 15 33
M  V30 36 1 18 34
M  V30 37 1 18 35
M  V30 END BOND
M  V30 END CTAB
M  END
>  <Dataset>  (794) 
ChEMBL_Kinases

>  <Ligand_Instance>  (794) 
nan

>  <PDB_ID>  (794) 
nan

>  <Standardized_SMILES>  (794) 
CC(C)Oc1ccnc2[nH]cc(-c3ccnc(N)n3)c12

>  <Name>  (794) 
MERIOLIN 6

>  <Pocket>  (794) 
nan

>  <ATP_Site>  (794) 
nan

>  <Peripheral>  (794) 
nan

>  <Num_H_Atoms_ProtBoundConf>  (794) 
nan

>  <Num_Resolved_Atoms>  (794) 
nan

>  <Num_Not_Resolved_Atoms>  (794) 
nan

$$$$
CHEMBL4064613
     RDKit          3D

  0  0  0  0  0  0  0  0  0  0999 V3000
M  V30 BEGIN CTAB
M  V30 COUNTS 47 49 0 0 0
M  V30 BEGIN ATOM
M  V30 1 C 3.108784 -2.192006 4.893012 0
M  V30 2 O 2.412053 -1.541250 5.860743 0
M  V30 3 C 1.928095 -0.297441 5.600611 0
M  V30 4 C 2.897708 0.764185 5.236575 0
M  V30 5 O 3.669919 0.590922 4.111795 0
M  V30 6 C 3.346093 0.451096 2.802558 0
M  V30 7 C 4.530945 0.296708 2.064948 0
M  V30 8 C 4.511598 0.130510 0.673687 0
M  V30 9 N 3.326404 0.119818 0.037799 0
M  V30 10 C 2.164278 0.265946 0.716575 0
M  V30 11 N 0.855753 0.272476 0.167469 0
M  V30 12 C 0.374183 1.552738 -0.218351 0
M  V30 13 O 1.199220 2.450414 -0.001851 0
M  V30 14 C -0.943530 1.778825 -0.802847 0
M  V30 15 C -1.367120 3.064235 -1.166239 0
M  V30 16 S -3.084604 2.726719 -1.836869 0
M  V30 17 C -2.895764 0.931570 -1.498084 0
M  V30 18 C -4.009024 0.001655 -1.829972 0
M  V30 19 N -5.304931 0.308817 -1.961652 0
M  V30 20 N -5.898376 -0.844244 -2.259160 0
M  V30 21 C -4.956354 -1.819602 -2.301333 0
M  V30 22 N -3.736088 -1.300309 -2.029106 0
M  V30 23 C -2.492044 -2.006176 -1.977970 0
M  V30 24 C -2.294961 -2.485140 -0.537974 0
M  V30 25 C -2.469185 -3.227188 -2.861571 0
M  V30 26 N -1.801330 0.815557 -1.022831 0
M  V30 27 C 2.195590 0.428704 2.084067 0
M  V30 28 H 4.033015 -1.692749 4.557237 0
M  V30 29 H 3.470290 -3.156089 5.359035 0
M  V30 30 H 2.489393 -2.532796 4.035352 0
M  V30 31 H 1.076580 -0.277637 4.889738 0
M  V30 32 H 1.448318 0.045707 6.574802 0
M  V30 33 H 2.283268 1.701851 5.064573 0
M  V30 34 H 3.550161 1.056428 6.102156 0
M  V30 35 H 5.572837 0.281991 2.422892 0
M  V30 36 H 5.378163 0.007539 0.050171 0
M  V30 37 H 0.231617 -0.578745 0.028425 0
M  V30 38 H -0.700578 4.030635 -1.026834 0
M  V30 39 H -5.143501 -2.878141 -2.522564 0
M  V30 40 H -1.634685 -1.380298 -2.279193 0
M  V30 41 H -2.780916 -3.471570 -0.385954 0
M  V30 42 H -1.208324 -2.658039 -0.407637 0
M  V30 43 H -2.704517 -1.713295 0.150699 0
M  V30 44 H -2.983418 -2.968515 -3.808746 0
M  V30 45 H -2.987457 -4.046418 -2.321285 0
M  V30 46 H -1.398052 -3.506247 -3.002686 0
M  V30 47 H 1.330584 0.554579 2.697388 0
M  V30 END ATOM
M  V30 BEGIN BOND
M  V30 1 1 1 2
M  V30 2 1 2 3
M  V30 3 1 3 4
M  V30 4 1 4 5
M  V30 5 1 5 6
M  V30 6 2 6 7
M  V30 7 1 7 8
M  V30 8 2 8 9
M  V30 9 1 9 10
M  V30 10 1 10 11
M  V30 11 1 11 12
M  V30 12 2 12 13
M  V30 13 1 12 14
M  V30 14 2 14 15
M  V30 15 1 15 16
M  V30 16 1 16 17
M  V30 17 1 17 18
M  V30 18 2 18 19
M  V30 19 1 19 20
M  V30 20 2 20 21
M  V30 21 1 21 22
M  V30 22 1 22 23
M  V30 23 1 23 24
M  V30 24 1 23 25
M  V30 25 2 17 26
M  V30 26 2 10 27
M  V30 27 1 27 6
M  V30 28 1 26 14
M  V30 29 1 22 18
M  V30 30 1 1 28
M  V30 31 1 1 29
M  V30 32 1 1 30
M  V30 33 1 3 31
M  V30 34 1 3 32
M  V30 35 1 4 33
M  V30 36 1 4 34
M  V30 37 1 7 35
M  V30 38 1 8 36
M  V30 39 1 11 37
M  V30 40 1 15 38
M  V30 41 1 21 39
M  V30 42 1 23 40
M  V30 43 1 24 41
M  V30 44 1 24 42
M  V30 45 1 24 43
M  V30 46 1 25 44
M  V30 47 1 25 45
M  V30 48 1 25 46
M  V30 49 1 27 47
M  V30 END BOND
M  V30 END CTAB
M  END
>  <Dataset>  (795) 
ChEMBL_Kinases

>  <Ligand_Instance>  (795) 
nan

>  <PDB_ID>  (795) 
nan

>  <Standardized_SMILES>  (795) 
COCCOc1ccnc(NC(=O)c2csc(-c3nncn3C(C)C)n2)c1

>  <Name>  (795) 
nan

>  <Pocket>  (795) 
nan

>  <ATP_Site>  (795) 
nan

>  <Peripheral>  (795) 
nan

>  <Num_H_Atoms_ProtBoundConf>  (795) 
nan

>  <Num_Resolved_Atoms>  (795) 
nan

>  <Num_Not_Resolved_Atoms>  (795) 
nan

$$$$
CHEMBL4861744
     RDKit          3D

  0  0  0  0  0  0  0  0  0  0999 V3000
M  V30 BEGIN CTAB
M  V30 COUNTS 51 55 0 0 0
M  V30 BEGIN ATOM
M  V30 1 C 2.596696 0.528281 4.173309 0
M  V30 2 C 3.779758 0.238859 3.275589 0
M  V30 3 C 4.595593 -0.835066 4.007177 0
M  V30 4 N 4.610804 1.401042 3.081010 0
M  V30 5 C 5.487208 1.870520 3.988465 0
M  V30 6 N 6.068218 2.953664 3.455220 0
M  V30 7 N 5.555257 3.134819 2.253768 0
M  V30 8 C 4.646368 2.187120 1.990249 0
M  V30 9 C 3.879090 2.075246 0.755656 0
M  V30 10 C 4.321655 2.734954 -0.378820 0
M  V30 11 C 3.712603 2.729485 -1.616152 0
M  V30 12 C 2.557030 1.978083 -1.665886 0
M  V30 13 C 2.076827 1.303073 -0.561503 0
M  V30 14 N 0.881919 0.536977 -0.646821 0
M  V30 15 C 0.278557 -0.200590 0.387315 0
M  V30 16 O 0.857565 -0.186339 1.525487 0
M  V30 17 C -0.955034 -0.957965 0.195342 0
M  V30 18 C -1.746639 -1.116036 -0.920008 0
M  V30 19 C -2.827965 -1.928698 -0.641072 0
M  V30 20 C -3.876928 -2.370185 -1.419044 0
M  V30 21 C -4.844457 -3.194148 -0.877930 0
M  V30 22 C -5.998525 -3.726426 -1.593168 0
M  V30 23 C -6.731748 -4.894845 -1.487751 0
M  V30 24 N -7.702662 -4.834753 -2.431636 0
M  V30 25 N -7.591400 -3.689806 -3.099889 0
M  V30 26 C -6.542578 -2.966326 -2.611782 0
M  V30 27 C -4.708654 -3.547226 0.461976 0
M  V30 28 C -3.654291 -3.100162 1.233930 0
M  V30 29 C -2.674891 -2.266903 0.688432 0
M  V30 30 N -1.569702 -1.682749 1.147782 0
M  V30 31 N 2.750685 1.368721 0.622906 0
M  V30 32 H 2.020720 1.413739 3.845312 0
M  V30 33 H 1.915621 -0.349344 4.133771 0
M  V30 34 H 2.903381 0.680112 5.207054 0
M  V30 35 H 3.489028 -0.217957 2.323430 0
M  V30 36 H 3.901083 -1.708167 4.144080 0
M  V30 37 H 4.859968 -0.415379 4.993339 0
M  V30 38 H 5.473893 -1.143390 3.398101 0
M  V30 39 H 5.684312 1.451383 4.963872 0
M  V30 40 H 5.248533 3.319193 -0.281177 0
M  V30 41 H 4.108637 3.263071 -2.455329 0
M  V30 42 H 2.013762 1.920790 -2.606768 0
M  V30 43 H 0.372819 0.494934 -1.556296 0
M  V30 44 H -1.536923 -0.659510 -1.876637 0
M  V30 45 H -3.980794 -2.099028 -2.447065 0
M  V30 46 H -6.478049 -5.644266 -0.746547 0
M  V30 47 H -8.310460 -3.552761 -3.861419 0
M  V30 48 H -6.391727 -2.030982 -3.102099 0
M  V30 49 H -5.426491 -4.186302 0.946982 0
M  V30 50 H -3.566594 -3.383674 2.266075 0
M  V30 51 H -1.283380 -1.821791 2.143831 0
M  V30 END ATOM
M  V30 BEGIN BOND
M  V30 1 1 1 2
M  V30 2 1 2 3
M  V30 3 1 2 4
M  V30 4 1 4 5
M  V30 5 2 5 6
M  V30 6 1 6 7
M  V30 7 2 7 8
M  V30 8 1 8 9
M  V30 9 2 9 10
M  V30 10 1 10 11
M  V30 11 2 11 12
M  V30 12 1 12 13
M  V30 13 1 13 14
M  V30 14 1 14 15
M  V30 15 2 15 16
M  V30 16 1 15 17
M  V30 17 2 17 18
M  V30 18 1 18 19
M  V30 19 2 19 20
M  V30 20 1 20 21
M  V30 21 1 21 22
M  V30 22 1 22 23
M  V30 23 2 23 24
M  V30 24 1 24 25
M  V30 25 1 25 26
M  V30 26 2 21 27
M  V30 27 1 27 28
M  V30 28 2 28 29
M  V30 29 1 29 30
M  V30 30 2 13 31
M  V30 31 1 8 4
M  V30 32 1 31 9
M  V30 33 1 30 17
M  V30 34 1 29 19
M  V30 35 2 26 22
M  V30 36 1 1 32
M  V30 37 1 1 33
M  V30 38 1 1 34
M  V30 39 1 2 35
M  V30 40 1 3 36
M  V30 41 1 3 37
M  V30 42 1 3 38
M  V30 43 1 5 39
M  V30 44 1 10 40
M  V30 45 1 11 41
M  V30 46 1 12 42
M  V30 47 1 14 43
M  V30 48 1 18 44
M  V30 49 1 20 45
M  V30 50 1 23 46
M  V30 51 1 25 47
M  V30 52 1 26 48
M  V30 53 1 27 49
M  V30 54 1 28 50
M  V30 55 1 30 51
M  V30 END BOND
M  V30 END CTAB
M  END
>  <Dataset>  (796) 
ChEMBL_Kinases

>  <Ligand_Instance>  (796) 
nan

>  <PDB_ID>  (796) 
nan

>  <Standardized_SMILES>  (796) 
CC(C)n1cnnc1-c1cccc(NC(=O)c2cc3cc(-c4cn[nH]c4)ccc3[nH]2)n1

>  <Name>  (796) 
nan

>  <Pocket>  (796) 
nan

>  <ATP_Site>  (796) 
nan

>  <Peripheral>  (796) 
nan

>  <Num_H_Atoms_ProtBoundConf>  (796) 
nan

>  <Num_Resolved_Atoms>  (796) 
nan

>  <Num_Not_Resolved_Atoms>  (796) 
nan

$$$$
CHEMBL4064534
     RDKit          3D

  0  0  0  0  0  0  0  0  0  0999 V3000
M  V30 BEGIN CTAB
M  V30 COUNTS 66 70 0 0 0
M  V30 BEGIN ATOM
M  V30 1 C 0.424836 -4.275239 -0.413227 0
M  V30 2 C 0.891230 -3.086046 0.370005 0
M  V30 3 C 1.597512 -3.303000 1.537843 0
M  V30 4 C 2.052345 -2.220225 2.301810 0
M  V30 5 C 1.761744 -0.928388 1.833113 0
M  V30 6 N 2.307360 0.129153 2.566734 0
M  V30 7 C 3.538474 0.259331 1.973320 0
M  V30 8 O 4.128690 -0.342019 1.027421 0
M  V30 9 C 4.411971 1.251521 2.448911 0
M  V30 10 C 4.081445 2.093987 3.482604 0
M  V30 11 C 2.837936 1.913083 4.032862 0
M  V30 12 C 2.460331 2.732139 5.070967 0
M  V30 13 C 1.221757 2.582394 5.649214 0
M  V30 14 C 0.409100 1.579494 5.127026 0
M  V30 15 C -0.822896 1.460547 5.731746 0
M  V30 16 C -1.655036 0.480265 5.243324 0
M  V30 17 C -1.342844 -0.391229 4.191446 0
M  V30 18 C -2.374308 -1.337000 3.855253 0
M  V30 19 C -3.269799 -1.885753 4.741093 0
M  V30 20 N -4.050522 -2.711123 4.017891 0
M  V30 21 N -3.655903 -2.676079 2.736234 0
M  V30 22 C -4.297235 -3.458262 1.693323 0
M  V30 23 C -2.608403 -1.830164 2.579198 0
M  V30 24 C -0.087184 -0.158669 3.686124 0
M  V30 25 C 0.796466 0.773706 4.096523 0
M  V30 26 C 2.003667 0.943964 3.557159 0
M  V30 27 C 1.035935 -0.697765 0.632928 0
M  V30 28 C 0.613949 -1.809218 -0.076896 0
M  V30 29 N -0.111174 -1.601325 -1.274795 0
M  V30 30 C 0.425255 -1.471910 -2.585263 0
M  V30 31 O 1.640741 -1.520012 -2.906844 0
M  V30 32 C -0.542303 -1.262022 -3.660710 0
M  V30 33 C -0.177436 -1.125962 -4.926120 0
M  V30 34 C -1.170748 -0.911843 -6.018449 0
M  V30 35 N -0.849211 0.347796 -6.630835 0
M  V30 36 C -1.736224 0.707297 -7.721959 0
M  V30 37 C -0.794005 1.461155 -5.722548 0
M  V30 38 H 0.319908 -3.984351 -1.476720 0
M  V30 39 H 1.229377 -5.054097 -0.388350 0
M  V30 40 H -0.551994 -4.636989 -0.066132 0
M  V30 41 H 1.810713 -4.311539 1.880813 0
M  V30 42 H 2.596073 -2.359774 3.201572 0
M  V30 43 H 5.419863 1.461048 2.065551 0
M  V30 44 H 4.720013 2.868268 3.879150 0
M  V30 45 H 3.134929 3.495229 5.435106 0
M  V30 46 H 0.909687 3.203930 6.451697 0
M  V30 47 H -1.114636 2.102398 6.542998 0
M  V30 48 H -2.625417 0.419579 5.752548 0
M  V30 49 H -3.345370 -1.702123 5.806248 0
M  V30 50 H -3.919825 -3.119899 0.721088 0
M  V30 51 H -5.390169 -3.259164 1.720205 0
M  V30 52 H -4.131798 -4.561974 1.866101 0
M  V30 53 H -2.098156 -1.617297 1.644181 0
M  V30 54 H -0.036792 -0.880018 2.938350 0
M  V30 55 H 0.855515 0.328605 0.343608 0
M  V30 56 H -1.140375 -1.547065 -1.108242 0
M  V30 57 H -1.610961 -1.202884 -3.507594 0
M  V30 58 H 0.864889 -1.167387 -5.205450 0
M  V30 59 H -0.985542 -1.696999 -6.767064 0
M  V30 60 H -2.207609 -0.993323 -5.652647 0
M  V30 61 H -2.774259 0.645269 -7.314799 0
M  V30 62 H -1.589340 0.082621 -8.606201 0
M  V30 63 H -1.540408 1.788621 -7.918804 0
M  V30 64 H -0.844349 2.393841 -6.338891 0
M  V30 65 H -1.662887 1.488255 -5.049381 0
M  V30 66 H 0.170184 1.530339 -5.178132 0
M  V30 END ATOM
M  V30 BEGIN BOND
M  V30 1 1 1 2
M  V30 2 2 2 3
M  V30 3 1 3 4
M  V30 4 2 4 5
M  V30 5 1 5 6
M  V30 6 1 6 7
M  V30 7 2 7 8
M  V30 8 1 7 9
M  V30 9 2 9 10
M  V30 10 1 10 11
M  V30 11 2 11 12
M  V30 12 1 12 13
M  V30 13 2 13 14
M  V30 14 1 14 15
M  V30 15 2 15 16
M  V30 16 1 16 17
M  V30 17 1 17 18
M  V30 18 1 18 19
M  V30 19 2 19 20
M  V30 20 1 20 21
M  V30 21 1 21 22
M  V30 22 1 21 23
M  V30 23 2 17 24
M  V30 24 1 24 25
M  V30 25 2 25 26
M  V30 26 1 5 27
M  V30 27 2 27 28
M  V30 28 1 28 29
M  V30 29 1 29 30
M  V30 30 2 30 31
M  V30 31 1 30 32
M  V30 32 2 32 33
M  V30 33 1 33 34
M  V30 34 1 34 35
M  V30 35 1 35 36
M  V30 36 1 35 37
M  V30 37 1 28 2
M  V30 38 1 26 6
M  V30 39 1 26 11
M  V30 40 1 25 14
M  V30 41 2 23 18
M  V30 42 1 1 38
M  V30 43 1 1 39
M  V30 44 1 1 40
M  V30 45 1 3 41
M  V30 46 1 4 42
M  V30 47 1 9 43
M  V30 48 1 10 44
M  V30 49 1 12 45
M  V30 50 1 13 46
M  V30 51 1 15 47
M  V30 52 1 16 48
M  V30 53 1 19 49
M  V30 54 1 22 50
M  V30 55 1 22 51
M  V30 56 1 22 52
M  V30 57 1 23 53
M  V30 58 1 24 54
M  V30 59 1 27 55
M  V30 60 1 29 56
M  V30 61 1 32 57
M  V30 62 1 33 58
M  V30 63 1 34 59
M  V30 64 1 34 60
M  V30 65 1 36 61
M  V30 66 1 36 62
M  V30 67 1 36 63
M  V30 68 1 37 64
M  V30 69 1 37 65
M  V30 70 1 37 66
M  V30 END BOND
M  V30 END CTAB
M  END
>  <Dataset>  (797) 
ChEMBL_Kinases

>  <Ligand_Instance>  (797) 
nan

>  <PDB_ID>  (797) 
nan

>  <Standardized_SMILES>  (797) 
Cc1ccc(-n2c(=O)ccc3ccc4ccc(-c5cnn(C)c5)cc4c32)cc1NC(=O)/C=C/CN(C)C

>  <Name>  (797) 
nan

>  <Pocket>  (797) 
nan

>  <ATP_Site>  (797) 
nan

>  <Peripheral>  (797) 
nan

>  <Num_H_Atoms_ProtBoundConf>  (797) 
nan

>  <Num_Resolved_Atoms>  (797) 
nan

>  <Num_Not_Resolved_Atoms>  (797) 
nan

$$$$
CHEMBL4861821
     RDKit          3D

  0  0  0  0  0  0  0  0  0  0999 V3000
M  V30 BEGIN CTAB
M  V30 COUNTS 61 66 0 0 0
M  V30 BEGIN ATOM
M  V30 1 C 2.262148 -0.509882 3.777358 0
M  V30 2 C 3.064262 0.764386 3.540446 0
M  V30 3 C 2.284903 1.914196 4.049354 0
M  V30 4 N 3.565929 0.852695 2.211072 0
M  V30 5 C 4.717883 0.409111 1.670438 0
M  V30 6 N 4.761862 0.728572 0.345786 0
M  V30 7 N 3.626872 1.365355 0.104333 0
M  V30 8 C 2.882560 1.451024 1.232845 0
M  V30 9 C 1.594590 2.127622 1.141463 0
M  V30 10 C 1.735899 3.509771 0.959448 0
M  V30 11 C 0.645251 4.348562 0.846141 0
M  V30 12 C -0.624281 3.832082 0.911260 0
M  V30 13 N -1.891422 4.288266 0.847912 0
M  V30 14 N -2.767552 3.280270 0.978708 0
M  V30 15 C -2.106088 2.124470 1.132865 0
M  V30 16 C -2.724402 0.813215 1.303558 0
M  V30 17 C -3.795905 0.745045 2.199965 0
M  V30 18 C -4.449406 -0.455797 2.431769 0
M  V30 19 C -4.073835 -1.623438 1.793869 0
M  V30 20 C -3.014937 -1.537601 0.913118 0
M  V30 21 C -2.498668 -2.682790 0.161206 0
M  V30 22 C -2.526433 -3.967528 0.661066 0
M  V30 23 N -1.969194 -4.722131 -0.311888 0
M  V30 24 N -1.618327 -3.993234 -1.335593 0
M  V30 25 C -0.990850 -4.335079 -2.604374 0
M  V30 26 C -1.158452 -5.769233 -2.990913 0
M  V30 27 C -0.186771 -6.043133 -4.129236 0
M  V30 28 O 0.075077 -4.833811 -4.799877 0
M  V30 29 C 0.961715 -4.068526 -4.023864 0
M  V30 30 C 0.495234 -4.033977 -2.580215 0
M  V30 31 C -1.928268 -2.696984 -1.093565 0
M  V30 32 C -2.363434 -0.342325 0.681524 0
M  V30 33 C -0.758117 2.476445 1.089822 0
M  V30 34 C 0.311443 1.616223 1.205859 0
M  V30 35 H 1.741685 -0.436702 4.754558 0
M  V30 36 H 1.487495 -0.688342 3.021882 0
M  V30 37 H 2.963526 -1.379029 3.882528 0
M  V30 38 H 3.971240 0.638318 4.203545 0
M  V30 39 H 2.562124 2.908019 3.671262 0
M  V30 40 H 1.197062 1.674168 3.964871 0
M  V30 41 H 2.444992 1.984866 5.160547 0
M  V30 42 H 5.482991 -0.124678 2.238958 0
M  V30 43 H 2.682854 4.027296 0.893307 0
M  V30 44 H 0.729284 5.413474 0.706070 0
M  V30 45 H -2.110163 5.311900 0.712646 0
M  V30 46 H -4.171670 1.610770 2.756326 0
M  V30 47 H -5.290812 -0.523781 3.132152 0
M  V30 48 H -4.541740 -2.591383 1.930233 0
M  V30 49 H -2.885015 -4.390077 1.597090 0
M  V30 50 H -1.399618 -3.724034 -3.449122 0
M  V30 51 H -1.053065 -6.475819 -2.161570 0
M  V30 52 H -2.180192 -5.898388 -3.441248 0
M  V30 53 H 0.796343 -6.355254 -3.693521 0
M  V30 54 H -0.576920 -6.758696 -4.873990 0
M  V30 55 H 0.954014 -3.030697 -4.418961 0
M  V30 56 H 1.972540 -4.521951 -4.021843 0
M  V30 57 H 0.684791 -3.057327 -2.090973 0
M  V30 58 H 0.991599 -4.824501 -2.009012 0
M  V30 59 H -1.798509 -1.786617 -1.690489 0
M  V30 60 H -1.525635 -0.248153 -0.007476 0
M  V30 61 H 0.303700 0.554162 1.346000 0
M  V30 END ATOM
M  V30 BEGIN BOND
M  V30 1 1 1 2
M  V30 2 1 2 3
M  V30 3 1 2 4
M  V30 4 1 4 5
M  V30 5 2 5 6
M  V30 6 1 6 7
M  V30 7 2 7 8
M  V30 8 1 8 9
M  V30 9 2 9 10
M  V30 10 1 10 11
M  V30 11 2 11 12
M  V30 12 1 12 13
M  V30 13 1 13 14
M  V30 14 2 14 15
M  V30 15 1 15 16
M  V30 16 2 16 17
M  V30 17 1 17 18
M  V30 18 2 18 19
M  V30 19 1 19 20
M  V30 20 1 20 21
M  V30 21 1 21 22
M  V30 22 2 22 23
M  V30 23 1 23 24
M  V30 24 1 24 25
M  V30 25 1 25 26
M  V30 26 1 26 27
M  V30 27 1 27 28
M  V30 28 1 28 29
M  V30 29 1 29 30
M  V30 30 1 24 31
M  V30 31 2 20 32
M  V30 32 1 15 33
M  V30 33 2 33 34
M  V30 34 1 8 4
M  V30 35 1 34 9
M  V30 36 1 33 12
M  V30 37 1 32 16
M  V30 38 2 31 21
M  V30 39 1 30 25
M  V30 40 1 1 35
M  V30 41 1 1 36
M  V30 42 1 1 37
M  V30 43 1 2 38
M  V30 44 1 3 39
M  V30 45 1 3 40
M  V30 46 1 3 41
M  V30 47 1 5 42
M  V30 48 1 10 43
M  V30 49 1 11 44
M  V30 50 1 13 45
M  V30 51 1 17 46
M  V30 52 1 18 47
M  V30 53 1 19 48
M  V30 54 1 22 49
M  V30 55 1 25 50
M  V30 56 1 26 51
M  V30 57 1 26 52
M  V30 58 1 27 53
M  V30 59 1 27 54
M  V30 60 1 29 55
M  V30 61 1 29 56
M  V30 62 1 30 57
M  V30 63 1 30 58
M  V30 64 1 31 59
M  V30 65 1 32 60
M  V30 66 1 34 61
M  V30 END BOND
M  V30 END CTAB
M  END
>  <Dataset>  (798) 
ChEMBL_Kinases

>  <Ligand_Instance>  (798) 
nan

>  <PDB_ID>  (798) 
nan

>  <Standardized_SMILES>  (798) 
CC(C)n1cnnc1-c1ccc2[nH]nc(-c3cccc(-c4cnn(C5CCOCC5)c4)c3)c2c1

>  <Name>  (798) 
nan

>  <Pocket>  (798) 
nan

>  <ATP_Site>  (798) 
nan

>  <Peripheral>  (798) 
nan

>  <Num_H_Atoms_ProtBoundConf>  (798) 
nan

>  <Num_Resolved_Atoms>  (798) 
nan

>  <Num_Not_Resolved_Atoms>  (798) 
nan

$$$$
CHEMBL4065681
     RDKit          3D

  0  0  0  0  0  0  0  0  0  0999 V3000
M  V30 BEGIN CTAB
M  V30 COUNTS 58 62 0 0 0
M  V30 BEGIN ATOM
M  V30 1 C 8.391694 -1.037675 2.650482 0
M  V30 2 N 7.134398 -0.789633 2.013102 0
M  V30 3 C 7.054192 -0.311259 0.679061 0
M  V30 4 O 8.140111 -0.119898 0.096923 0
M  V30 5 C 5.807891 -0.039611 -0.026153 0
M  V30 6 C 5.861403 0.417622 -1.324862 0
M  V30 7 C 4.730687 0.698895 -2.063014 0
M  V30 8 C 3.479640 0.524544 -1.504256 0
M  V30 9 C 3.437761 0.063638 -0.196265 0
M  V30 10 C 4.573416 -0.228075 0.571682 0
M  V30 11 C 2.266964 -0.210946 0.639614 0
M  V30 12 O 2.366121 -0.985733 1.634076 0
M  V30 13 C 0.937613 0.388745 0.372955 0
M  V30 14 C 0.077508 -0.087613 1.371040 0
M  V30 15 C -1.250290 0.357737 1.316620 0
M  V30 16 C -1.687161 1.224808 0.324424 0
M  V30 17 N -3.056489 1.607465 0.341561 0
M  V30 18 C -4.144243 0.877874 0.879347 0
M  V30 19 C -5.240185 1.615018 1.355962 0
M  V30 20 C -6.256577 0.818666 1.847961 0
M  V30 21 C -6.271434 -0.554539 1.901772 0
M  V30 22 F -7.265701 -1.300445 2.384540 0
M  V30 23 C -5.176447 -1.221675 1.422599 0
M  V30 24 N -4.978444 -2.638982 1.385827 0
M  V30 25 C -5.444684 -3.340671 0.246020 0
M  V30 26 O -6.043059 -3.008112 -0.833358 0
M  V30 27 C -5.368279 -4.789019 -0.056949 0
M  V30 28 C -5.248315 -5.819836 0.993902 0
M  V30 29 C -4.034556 -5.481000 0.184545 0
M  V30 30 C -4.092078 -0.502330 0.901470 0
M  V30 31 C -0.813813 1.674830 -0.642827 0
M  V30 32 C 0.522928 1.255992 -0.627927 0
M  V30 33 C 1.336167 1.825672 -1.736311 0
M  V30 34 C 2.296934 0.837242 -2.334165 0
M  V30 35 H 8.891666 -0.056603 2.799799 0
M  V30 36 H 8.237865 -1.483688 3.653215 0
M  V30 37 H 8.976688 -1.745800 2.029718 0
M  V30 38 H 6.237511 -0.961512 2.535809 0
M  V30 39 H 6.839681 0.569641 -1.805941 0
M  V30 40 H 4.739143 1.058509 -3.082764 0
M  V30 41 H 4.485405 -0.579272 1.573465 0
M  V30 42 H 0.437349 -0.766806 2.139676 0
M  V30 43 H -1.851368 -0.054088 2.139861 0
M  V30 44 H -3.246530 2.553313 -0.106708 0
M  V30 45 H -5.257364 2.677897 1.327405 0
M  V30 46 H -7.123973 1.358928 2.226921 0
M  V30 47 H -4.530261 -3.261168 2.084932 0
M  V30 48 H -5.838515 -5.075100 -1.001859 0
M  V30 49 H -5.668174 -6.827961 0.815436 0
M  V30 50 H -5.319897 -5.455854 2.046252 0
M  V30 51 H -3.253659 -4.822009 0.570320 0
M  V30 52 H -3.676788 -6.194643 -0.584535 0
M  V30 53 H -3.219830 -1.007546 0.505861 0
M  V30 54 H -1.134468 2.342149 -1.414412 0
M  V30 55 H 0.681605 2.165381 -2.569507 0
M  V30 56 H 1.928566 2.653932 -1.318037 0
M  V30 57 H 2.630943 1.249427 -3.314822 0
M  V30 58 H 1.735339 -0.096676 -2.532220 0
M  V30 END ATOM
M  V30 BEGIN BOND
M  V30 1 1 1 2
M  V30 2 1 2 3
M  V30 3 2 3 4
M  V30 4 1 3 5
M  V30 5 2 5 6
M  V30 6 1 6 7
M  V30 7 2 7 8
M  V30 8 1 8 9
M  V30 9 2 9 10
M  V30 10 1 9 11
M  V30 11 2 11 12
M  V30 12 1 11 13
M  V30 13 2 13 14
M  V30 14 1 14 15
M  V30 15 2 15 16
M  V30 16 1 16 17
M  V30 17 1 17 18
M  V30 18 2 18 19
M  V30 19 1 19 20
M  V30 20 2 20 21
M  V30 21 1 21 22
M  V30 22 1 21 23
M  V30 23 1 23 24
M  V30 24 1 24 25
M  V30 25 2 25 26
M  V30 26 1 25 27
M  V30 27 1 27 28
M  V30 28 1 28 29
M  V30 29 2 23 30
M  V30 30 1 16 31
M  V30 31 2 31 32
M  V30 32 1 32 33
M  V30 33 1 33 34
M  V30 34 1 10 5
M  V30 35 1 32 13
M  V30 36 1 34 8
M  V30 37 1 30 18
M  V30 38 1 29 27
M  V30 39 1 1 35
M  V30 40 1 1 36
M  V30 41 1 1 37
M  V30 42 1 2 38
M  V30 43 1 6 39
M  V30 44 1 7 40
M  V30 45 1 10 41
M  V30 46 1 14 42
M  V30 47 1 15 43
M  V30 48 1 17 44
M  V30 49 1 19 45
M  V30 50 1 20 46
M  V30 51 1 24 47
M  V30 52 1 27 48
M  V30 53 1 28 49
M  V30 54 1 28 50
M  V30 55 1 29 51
M  V30 56 1 29 52
M  V30 57 1 30 53
M  V30 58 1 31 54
M  V30 59 1 33 55
M  V30 60 1 33 56
M  V30 61 1 34 57
M  V30 62 1 34 58
M  V30 END BOND
M  V30 END CTAB
M  END
>  <Dataset>  (799) 
ChEMBL_Kinases

>  <Ligand_Instance>  (799) 
nan

>  <PDB_ID>  (799) 
nan

>  <Standardized_SMILES>  (799) 
CNC(=O)c1ccc2c(c1)C(=O)c1ccc(Nc3ccc(F)c(NC(=O)C4CC4)c3)cc1CC2

>  <Name>  (799) 
nan

>  <Pocket>  (799) 
nan

>  <ATP_Site>  (799) 
nan

>  <Peripheral>  (799) 
nan

>  <Num_H_Atoms_ProtBoundConf>  (799) 
nan

>  <Num_Resolved_Atoms>  (799) 
nan

>  <Num_Not_Resolved_Atoms>  (799) 
nan

$$$$
CHEMBL4861838
     RDKit          3D

  0  0  0  0  0  0  0  0  0  0999 V3000
M  V30 BEGIN CTAB
M  V30 COUNTS 50 53 0 0 0
M  V30 BEGIN ATOM
M  V30 1 C -1.842305 -5.700428 -0.132030 0
M  V30 2 O -1.241358 -4.513980 -0.647003 0
M  V30 3 C 0.032255 -4.101940 -0.258879 0
M  V30 4 C 0.478348 -2.913344 -0.856511 0
M  V30 5 C 1.731936 -2.497771 -0.481422 0
M  V30 6 C 2.602568 -3.087936 0.398931 0
M  V30 7 C 3.860071 -2.673272 0.764595 0
M  V30 8 N 4.316317 -1.455071 0.219452 0
M  V30 9 C 4.839805 -0.241023 -0.291829 0
M  V30 10 C 3.806879 0.634430 -1.038197 0
M  V30 11 C 2.786352 1.018782 -0.080398 0
M  V30 12 C 3.049434 2.193120 0.717514 0
M  V30 13 N 2.277187 2.603469 1.578093 0
M  V30 14 C 1.100100 2.115467 1.966940 0
M  V30 15 N -0.212226 1.459098 2.286245 0
M  V30 16 C -1.368599 2.069527 1.677772 0
M  V30 17 O -1.143692 3.053335 0.888397 0
M  V30 18 N -2.718900 1.693025 1.870978 0
M  V30 19 C -3.888850 2.237819 1.336922 0
M  V30 20 C -5.073838 1.637976 1.706930 0
M  V30 21 C -6.300849 2.077020 1.265682 0
M  V30 22 C -6.371446 3.153405 0.423350 0
M  V30 23 C -5.229630 3.775254 0.033440 0
M  V30 24 Cl -5.259969 5.156966 -1.046870 0
M  V30 25 C -4.022975 3.313480 0.490249 0
M  V30 26 S 1.257438 0.715658 0.696830 0
M  V30 27 N 4.467464 -3.476077 1.634341 0
M  V30 28 C 4.048214 -4.588641 2.186928 0
M  V30 29 N 2.824242 -4.930110 1.791969 0
M  V30 30 C 2.073489 -4.242764 0.928234 0
M  V30 31 C 0.824651 -4.780933 0.640806 0
M  V30 32 H -1.429449 -6.530145 -0.747952 0
M  V30 33 H -1.552488 -5.777362 0.936011 0
M  V30 34 H -2.929728 -5.711270 -0.284725 0
M  V30 35 H -0.099217 -2.341392 -1.570318 0
M  V30 36 H 2.083963 -1.601072 -0.949039 0
M  V30 37 H 5.282151 -1.506517 0.668437 0
M  V30 38 H 5.203973 0.496338 0.508092 0
M  V30 39 H 5.706663 -0.336908 -1.003797 0
M  V30 40 H 3.387938 0.098487 -1.912610 0
M  V30 41 H 4.321065 1.501267 -1.429639 0
M  V30 42 H 3.914508 2.885200 0.703841 0
M  V30 43 H -0.395332 0.646121 2.931339 0
M  V30 44 H -2.700991 0.886153 2.524165 0
M  V30 45 H -5.099240 0.775549 2.376057 0
M  V30 46 H -7.214595 1.606535 1.558892 0
M  V30 47 H -7.312329 3.526694 0.055432 0
M  V30 48 H -3.145424 3.809173 0.177272 0
M  V30 49 H 4.713370 -5.094473 2.876484 0
M  V30 50 H 0.464573 -5.678354 1.079864 0
M  V30 END ATOM
M  V30 BEGIN BOND
M  V30 1 1 1 2
M  V30 2 1 2 3
M  V30 3 2 3 4
M  V30 4 1 4 5
M  V30 5 2 5 6
M  V30 6 1 6 7
M  V30 7 1 7 8
M  V30 8 1 8 9
M  V30 9 1 9 10
M  V30 10 1 10 11
M  V30 11 2 11 12
M  V30 12 1 12 13
M  V30 13 2 13 14
M  V30 14 1 14 15
M  V30 15 1 15 16
M  V30 16 2 16 17
M  V30 17 1 16 18
M  V30 18 1 18 19
M  V30 19 2 19 20
M  V30 20 1 20 21
M  V30 21 2 21 22
M  V30 22 1 22 23
M  V30 23 1 23 24
M  V30 24 2 23 25
M  V30 25 1 14 26
M  V30 26 2 7 27
M  V30 27 1 27 28
M  V30 28 2 28 29
M  V30 29 1 29 30
M  V30 30 2 30 31
M  V30 31 1 31 3
M  V30 32 1 30 6
M  V30 33 1 26 11
M  V30 34 1 25 19
M  V30 35 1 1 32
M  V30 36 1 1 33
M  V30 37 1 1 34
M  V30 38 1 4 35
M  V30 39 1 5 36
M  V30 40 1 8 37
M  V30 41 1 9 38
M  V30 42 1 9 39
M  V30 43 1 10 40
M  V30 44 1 10 41
M  V30 45 1 12 42
M  V30 46 1 15 43
M  V30 47 1 18 44
M  V30 48 1 20 45
M  V30 49 1 21 46
M  V30 50 1 22 47
M  V30 51 1 25 48
M  V30 52 1 28 49
M  V30 53 1 31 50
M  V30 END BOND
M  V30 END CTAB
M  END
>  <Dataset>  (800) 
ChEMBL_Kinases

>  <Ligand_Instance>  (800) 
nan

>  <PDB_ID>  (800) 
nan

>  <Standardized_SMILES>  (800) 
COc1ccc2c(NCCc3cnc(NC(=O)Nc4cccc(Cl)c4)s3)ncnc2c1

>  <Name>  (800) 
nan

>  <Pocket>  (800) 
nan

>  <ATP_Site>  (800) 
nan

>  <Peripheral>  (800) 
nan

>  <Num_H_Atoms_ProtBoundConf>  (800) 
nan

>  <Num_Resolved_Atoms>  (800) 
nan

>  <Num_Not_Resolved_Atoms>  (800) 
nan

$$$$
CHEMBL4064329
     RDKit          3D

  0  0  0  0  0  0  0  0  0  0999 V3000
M  V30 BEGIN CTAB
M  V30 COUNTS 51 54 0 0 0
M  V30 BEGIN ATOM
M  V30 1 C -2.191989 -0.370276 4.394379 0
M  V30 2 N -0.986244 -0.057632 3.648271 0
M  V30 3 C 0.124086 -0.502137 4.417240 0
M  V30 4 O -0.075938 -1.063431 5.549826 0
M  V30 5 C 1.594649 -0.474761 4.213645 0
M  V30 6 N 1.959401 0.159450 2.961292 0
M  V30 7 C 2.185269 1.504145 2.940590 0
M  V30 8 C 2.521822 1.857523 1.633798 0
M  V30 9 N 2.839936 3.061161 1.090336 0
M  V30 10 C 3.138284 3.154070 -0.216326 0
M  V30 11 C 3.109259 2.007582 -0.964533 0
M  V30 12 C 2.792752 0.767110 -0.457421 0
M  V30 13 N 2.751206 -0.451704 -1.152261 0
M  V30 14 C 1.733674 -1.377394 -1.408928 0
M  V30 15 C 0.436424 -1.207189 -0.979150 0
M  V30 16 C -0.567996 -2.121814 -1.230787 0
M  V30 17 C -1.928205 -1.890669 -0.757438 0
M  V30 18 C -2.366100 -0.793359 -0.050316 0
M  V30 19 C -3.672802 -0.645250 0.362148 0
M  V30 20 C -4.087247 0.557453 1.119261 0
M  V30 21 C -4.623804 -1.605983 0.082270 0
M  V30 22 C -4.194421 -2.702522 -0.622184 0
M  V30 23 C -2.891493 -2.858865 -1.038311 0
M  V30 24 F -2.583579 -3.984908 -1.727906 0
M  V30 25 N -0.258874 -3.227946 -1.927974 0
M  V30 26 C 1.007885 -3.380971 -2.340067 0
M  V30 27 C 2.061895 -2.508542 -2.125175 0
M  V30 28 C 3.404956 -2.850610 -2.662293 0
M  V30 29 C 2.483284 0.669018 0.896495 0
M  V30 30 N 2.138613 -0.314135 1.753001 0
M  V30 31 H -2.217365 -1.431302 4.650122 0
M  V30 32 H -3.048364 -0.193632 3.712048 0
M  V30 33 H -2.315005 0.295454 5.271238 0
M  V30 34 H -0.630919 0.367567 2.764975 0
M  V30 35 H 1.948576 -1.538309 4.203830 0
M  V30 36 H 2.125913 -0.001054 5.061790 0
M  V30 37 H 2.135131 2.239176 3.741690 0
M  V30 38 H 3.381400 4.112626 -0.601544 0
M  V30 39 H 3.340156 2.030221 -2.015099 0
M  V30 40 H 3.731760 -0.557755 -1.481921 0
M  V30 41 H 0.270475 -0.292654 -0.426899 0
M  V30 42 H -1.645169 -0.031590 0.178448 0
M  V30 43 H -4.659957 1.271716 0.488410 0
M  V30 44 H -3.194231 1.122631 1.482695 0
M  V30 45 H -4.669785 0.274064 2.013804 0
M  V30 46 H -5.634928 -1.444780 0.426335 0
M  V30 47 H -4.948374 -3.465176 -0.844925 0
M  V30 48 H 1.180421 -4.296920 -2.894809 0
M  V30 49 H 3.975456 -3.477028 -1.937252 0
M  V30 50 H 4.023745 -1.978791 -2.903786 0
M  V30 51 H 3.244060 -3.478585 -3.565975 0
M  V30 END ATOM
M  V30 BEGIN BOND
M  V30 1 1 1 2
M  V30 2 1 2 3
M  V30 3 2 3 4
M  V30 4 1 3 5
M  V30 5 1 5 6
M  V30 6 1 6 7
M  V30 7 2 7 8
M  V30 8 1 8 9
M  V30 9 2 9 10
M  V30 10 1 10 11
M  V30 11 2 11 12
M  V30 12 1 12 13
M  V30 13 1 13 14
M  V30 14 2 14 15
M  V30 15 1 15 16
M  V30 16 1 16 17
M  V30 17 2 17 18
M  V30 18 1 18 19
M  V30 19 1 19 20
M  V30 20 2 19 21
M  V30 21 1 21 22
M  V30 22 2 22 23
M  V30 23 1 23 24
M  V30 24 2 16 25
M  V30 25 1 25 26
M  V30 26 2 26 27
M  V30 27 1 27 28
M  V30 28 1 12 29
M  V30 29 2 29 30
M  V30 30 1 30 6
M  V30 31 1 29 8
M  V30 32 1 27 14
M  V30 33 1 23 17
M  V30 34 1 1 31
M  V30 35 1 1 32
M  V30 36 1 1 33
M  V30 37 1 2 34
M  V30 38 1 5 35
M  V30 39 1 5 36
M  V30 40 1 7 37
M  V30 41 1 10 38
M  V30 42 1 11 39
M  V30 43 1 13 40
M  V30 44 1 15 41
M  V30 45 1 18 42
M  V30 46 1 20 43
M  V30 47 1 20 44
M  V30 48 1 20 45
M  V30 49 1 21 46
M  V30 50 1 22 47
M  V30 51 1 26 48
M  V30 52 1 28 49
M  V30 53 1 28 50
M  V30 54 1 28 51
M  V30 END BOND
M  V30 END CTAB
M  END
>  <Dataset>  (801) 
ChEMBL_Kinases

>  <Ligand_Instance>  (801) 
nan

>  <PDB_ID>  (801) 
nan

>  <Standardized_SMILES>  (801) 
CNC(=O)Cn1cc2nccc(Nc3cc(-c4cc(C)ccc4F)ncc3C)c2n1

>  <Name>  (801) 
nan

>  <Pocket>  (801) 
nan

>  <ATP_Site>  (801) 
nan

>  <Peripheral>  (801) 
nan

>  <Num_H_Atoms_ProtBoundConf>  (801) 
nan

>  <Num_Resolved_Atoms>  (801) 
nan

>  <Num_Not_Resolved_Atoms>  (801) 
nan

$$$$
CHEMBL4861847
     RDKit          3D

  0  0  0  0  0  0  0  0  0  0999 V3000
M  V30 BEGIN CTAB
M  V30 COUNTS 51 53 0 0 0
M  V30 BEGIN ATOM
M  V30 1 N 3.810149 -4.582226 2.444300 0
M  V30 2 C 2.614214 -4.003896 1.939300 0
M  V30 3 O 2.147528 -5.126629 1.640000 0
M  V30 4 C 2.306282 -2.601186 1.904334 0
M  V30 5 C 3.282313 -1.777947 2.414645 0
M  V30 6 N 2.985812 -0.444818 2.379662 0
M  V30 7 C 1.814346 0.005461 1.876227 0
M  V30 8 N 1.530449 1.389731 1.850917 0
M  V30 9 C 0.283186 1.897007 1.317059 0
M  V30 10 C 0.085139 1.525679 -0.149438 0
M  V30 11 C 1.345394 1.993623 -0.878481 0
M  V30 12 C 1.263741 3.511750 -0.887711 0
M  V30 13 F 0.053106 3.949723 -1.421124 0
M  V30 14 F 2.295556 4.039706 -1.640070 0
M  V30 15 C 1.409029 3.975240 0.544858 0
M  V30 16 C 0.273277 3.404524 1.373213 0
M  V30 17 N 0.899508 -0.855295 1.391152 0
M  V30 18 C 1.097491 -2.196306 1.380328 0
M  V30 19 N 0.110610 -3.045238 0.863029 0
M  V30 20 C -1.122621 -2.508668 0.337901 0 CFG=2
M  V30 21 C -1.937485 -1.728598 1.317446 0
M  V30 22 C -3.031699 -1.019687 0.574824 0
M  V30 23 C -3.401489 -1.555022 -0.745530 0
M  V30 24 C -3.046387 -2.958655 -1.051883 0 CFG=2
M  V30 25 O -4.178042 -3.806651 -1.097492 0
M  V30 26 C -2.055539 -3.601097 -0.143618 0
M  V30 27 H 4.713589 -4.802166 1.937801 0
M  V30 28 H 4.047819 -4.907726 3.406551 0
M  V30 29 H 4.216613 -2.143423 2.815671 0
M  V30 30 H 2.248934 2.074821 2.232543 0
M  V30 31 H -0.591284 1.566040 1.922875 0
M  V30 32 H -0.130573 0.469112 -0.296783 0
M  V30 33 H -0.800881 2.133213 -0.482016 0
M  V30 34 H 1.439804 1.560481 -1.883048 0
M  V30 35 H 2.193203 1.735703 -0.189794 0
M  V30 36 H 2.383272 3.630462 0.919642 0
M  V30 37 H 1.352601 5.082990 0.587585 0
M  V30 38 H -0.688704 3.771138 0.955162 0
M  V30 39 H 0.396736 3.755695 2.429653 0
M  V30 40 H 0.225078 -4.081426 0.836864 0
M  V30 41 H -0.894778 -1.808282 -0.505369 0
M  V30 42 H -1.388619 -1.086491 2.003140 0
M  V30 43 H -2.444882 -2.495716 1.973649 0
M  V30 44 H -3.914216 -0.933263 1.272981 0
M  V30 45 H -2.690134 0.050427 0.463940 0
M  V30 46 H -4.516444 -1.473180 -0.831769 0
M  V30 47 H -3.038942 -0.873866 -1.564204 0
M  V30 48 H -2.609001 -3.025815 -2.086195 0
M  V30 49 H -3.941042 -4.741443 -0.810624 0
M  V30 50 H -1.528117 -4.434845 -0.646413 0
M  V30 51 H -2.626194 -4.029673 0.728973 0
M  V30 END ATOM
M  V30 BEGIN BOND
M  V30 1 1 1 2
M  V30 2 2 2 3
M  V30 3 1 2 4
M  V30 4 2 4 5
M  V30 5 1 5 6
M  V30 6 2 6 7
M  V30 7 1 7 8
M  V30 8 1 8 9
M  V30 9 1 9 10
M  V30 10 1 10 11
M  V30 11 1 11 12
M  V30 12 1 12 13
M  V30 13 1 12 14
M  V30 14 1 12 15
M  V30 15 1 15 16
M  V30 16 1 7 17
M  V30 17 2 17 18
M  V30 18 1 18 19
M  V30 19 1 19 20
M  V30 20 1 20 21
M  V30 21 1 21 22
M  V30 22 1 22 23
M  V30 23 1 23 24
M  V30 24 1 24 25
M  V30 25 1 24 26
M  V30 26 1 18 4
M  V30 27 1 26 20
M  V30 28 1 16 9
M  V30 29 1 1 27
M  V30 30 1 1 28
M  V30 31 1 5 29
M  V30 32 1 8 30
M  V30 33 1 9 31
M  V30 34 1 10 32
M  V30 35 1 10 33
M  V30 36 1 11 34
M  V30 37 1 11 35
M  V30 38 1 15 36
M  V30 39 1 15 37
M  V30 40 1 16 38
M  V30 41 1 16 39
M  V30 42 1 19 40
M  V30 43 1 20 41 CFG=3
M  V30 44 1 21 42
M  V30 45 1 21 43
M  V30 46 1 22 44
M  V30 47 1 22 45
M  V30 48 1 23 46
M  V30 49 1 23 47
M  V30 50 1 24 48 CFG=3
M  V30 51 1 25 49
M  V30 52 1 26 50
M  V30 53 1 26 51
M  V30 END BOND
M  V30 END CTAB
M  END
>  <Dataset>  (802) 
ChEMBL_Kinases

>  <Ligand_Instance>  (802) 
nan

>  <PDB_ID>  (802) 
nan

>  <Standardized_SMILES>  (802) 
NC(=O)c1cnc(NC2CCC(F)(F)CC2)nc1N[C@@H]1CCC[C@H](O)C1

>  <Name>  (802) 
nan

>  <Pocket>  (802) 
nan

>  <ATP_Site>  (802) 
nan

>  <Peripheral>  (802) 
nan

>  <Num_H_Atoms_ProtBoundConf>  (802) 
nan

>  <Num_Resolved_Atoms>  (802) 
nan

>  <Num_Not_Resolved_Atoms>  (802) 
nan

$$$$
CHEMBL4861868
     RDKit          3D

  0  0  0  0  0  0  0  0  0  0999 V3000
M  V30 BEGIN CTAB
M  V30 COUNTS 45 48 0 0 0
M  V30 BEGIN ATOM
M  V30 1 C 1.684675 -4.782197 2.206532 0
M  V30 2 C 0.576863 -3.754188 2.151464 0 CFG=1
M  V30 3 N 0.562272 -3.018168 0.913425 0
M  V30 4 C 0.703104 -1.619338 0.699244 0
M  V30 5 O 0.868540 -0.863642 1.715423 0
M  V30 6 C 0.660693 -1.056266 -0.643257 0
M  V30 7 C 0.487331 -1.733640 -1.855405 0
M  V30 8 N 0.517474 -0.797676 -2.824016 0
M  V30 9 C 0.699557 0.416410 -2.275333 0
M  V30 10 C 0.793857 1.656368 -2.874033 0
M  V30 11 C 0.983791 2.784258 -2.104411 0
M  V30 12 C 1.076532 2.644087 -0.732097 0
M  V30 13 C 1.277985 3.800756 0.135932 0
M  V30 14 C 1.976664 3.716337 1.335057 0
M  V30 15 N 1.958391 4.971228 1.856769 0
M  V30 16 N 1.303155 5.782521 1.055412 0
M  V30 17 C 1.130645 7.188496 1.370375 0
M  V30 18 C 0.862554 5.109845 -0.021242 0
M  V30 19 C 0.972017 1.368250 -0.209994 0
M  V30 20 N 0.786648 0.250080 -0.936054 0
M  V30 21 C -0.759219 -4.409719 2.292146 0
M  V30 22 C -1.448348 -4.380987 3.502328 0
M  V30 23 C -2.673714 -4.975358 3.650641 0
M  V30 24 C -3.232590 -5.621048 2.555617 0
M  V30 25 Cl -4.804775 -6.397314 2.702261 0
M  V30 26 C -2.609818 -5.684104 1.347010 0
M  V30 27 C -1.365294 -5.064715 1.245095 0
M  V30 28 H 1.639752 -5.223833 3.224441 0
M  V30 29 H 2.636038 -4.257895 2.089838 0
M  V30 30 H 1.525252 -5.614827 1.510130 0
M  V30 31 H 0.721082 -3.095951 3.036705 0
M  V30 32 H 0.430988 -3.586285 0.059411 0
M  V30 33 H 0.356133 -2.810659 -1.960402 0
M  V30 34 H 0.719350 1.753730 -3.954936 0
M  V30 35 H 1.059501 3.754131 -2.547877 0
M  V30 36 H 2.469679 2.877589 1.837211 0
M  V30 37 H 0.205538 7.536057 0.842863 0
M  V30 38 H 0.906557 7.331082 2.461260 0
M  V30 39 H 1.995997 7.777195 1.052421 0
M  V30 40 H 0.305455 5.487952 -0.840145 0
M  V30 41 H 1.052337 1.312643 0.884575 0
M  V30 42 H -1.025607 -3.877346 4.378355 0
M  V30 43 H -3.198908 -4.946100 4.595871 0
M  V30 44 H -3.072541 -6.194415 0.515949 0
M  V30 45 H -0.886759 -5.126350 0.275590 0
M  V30 END ATOM
M  V30 BEGIN BOND
M  V30 1 1 1 2
M  V30 2 1 2 3
M  V30 3 1 3 4
M  V30 4 2 4 5
M  V30 5 1 4 6
M  V30 6 2 6 7
M  V30 7 1 7 8
M  V30 8 2 8 9
M  V30 9 1 9 10
M  V30 10 2 10 11
M  V30 11 1 11 12
M  V30 12 1 12 13
M  V30 13 1 13 14
M  V30 14 2 14 15
M  V30 15 1 15 16
M  V30 16 1 16 17
M  V30 17 1 16 18
M  V30 18 2 12 19
M  V30 19 1 19 20
M  V30 20 1 2 21
M  V30 21 2 21 22
M  V30 22 1 22 23
M  V30 23 2 23 24
M  V30 24 1 24 25
M  V30 25 1 24 26
M  V30 26 2 26 27
M  V30 27 1 20 6
M  V30 28 1 27 21
M  V30 29 1 20 9
M  V30 30 2 18 13
M  V30 31 1 1 28
M  V30 32 1 1 29
M  V30 33 1 1 30
M  V30 34 1 2 31 CFG=1
M  V30 35 1 3 32
M  V30 36 1 7 33
M  V30 37 1 10 34
M  V30 38 1 11 35
M  V30 39 1 14 36
M  V30 40 1 17 37
M  V30 41 1 17 38
M  V30 42 1 17 39
M  V30 43 1 18 40
M  V30 44 1 19 41
M  V30 45 1 22 42
M  V30 46 1 23 43
M  V30 47 1 26 44
M  V30 48 1 27 45
M  V30 END BOND
M  V30 END CTAB
M  END
>  <Dataset>  (803) 
ChEMBL_Kinases

>  <Ligand_Instance>  (803) 
nan

>  <PDB_ID>  (803) 
nan

>  <Standardized_SMILES>  (803) 
C[C@@H](NC(=O)c1cnc2ccc(-c3cnn(C)c3)cn12)c1ccc(Cl)cc1

>  <Name>  (803) 
nan

>  <Pocket>  (803) 
nan

>  <ATP_Site>  (803) 
nan

>  <Peripheral>  (803) 
nan

>  <Num_H_Atoms_ProtBoundConf>  (803) 
nan

>  <Num_Resolved_Atoms>  (803) 
nan

>  <Num_Not_Resolved_Atoms>  (803) 
nan

$$$$
CHEMBL4064274
     RDKit          3D

  0  0  0  0  0  0  0  0  0  0999 V3000
M  V30 BEGIN CTAB
M  V30 COUNTS 64 68 0 0 0
M  V30 BEGIN ATOM
M  V30 1 O 2.103531 -1.744473 0.493228 0
M  V30 2 C 1.771928 -0.510029 0.597947 0
M  V30 3 N 2.785645 0.191028 1.353092 0
M  V30 4 C 3.773349 -0.776876 1.692780 0
M  V30 5 C 4.908551 -0.180729 2.468488 0
M  V30 6 C 5.639050 0.868039 1.747103 0
M  V30 7 C 5.424180 2.211530 1.578957 0
M  V30 8 F 4.380744 2.724227 2.255505 0
M  V30 9 C 6.198972 3.050713 0.820096 0
M  V30 10 C 7.297127 2.565239 0.148950 0
M  V30 11 C 7.576606 1.222468 0.272348 0
M  V30 12 C 6.769154 0.418127 1.045218 0
M  V30 13 F 7.170486 -0.895862 1.076618 0
M  V30 14 C 0.538617 -0.006754 0.004944 0
M  V30 15 C -0.249664 -0.956583 -0.608372 0
M  V30 16 C -1.449476 -0.662669 -1.215708 0
M  V30 17 C -2.293651 -1.698548 -1.862040 0 CFG=2
M  V30 18 C -2.032406 -1.629447 -3.349023 0
M  V30 19 C -2.722151 -0.488860 -4.025719 0
M  V30 20 N -4.095082 -0.344720 -3.635601 0
M  V30 21 C -4.578651 -1.323031 -2.744356 0
M  V30 22 C -3.734495 -1.616414 -1.528553 0 CFG=1
M  V30 23 C -4.218456 -2.911195 -0.923628 0
M  V30 24 O -3.633446 -3.354364 0.213401 0
M  V30 25 C -3.498322 -2.862002 1.473927 0
M  V30 26 C -2.769140 -3.812076 2.212877 0
M  V30 27 C -2.441494 -3.633358 3.563870 0
M  V30 28 C -2.857624 -2.472986 4.181452 0
M  V30 29 C -3.571780 -1.531335 3.475524 0
M  V30 30 C -3.882261 -1.727018 2.151938 0
M  V30 31 O -3.861279 -0.474996 4.321734 0
M  V30 32 C -3.287701 -0.686784 5.598387 0
M  V30 33 O -2.719521 -1.972788 5.466766 0
M  V30 34 C -1.893846 0.627785 -1.219144 0
M  V30 35 C -1.147430 1.602053 -0.624702 0
M  V30 36 C 0.047743 1.277562 -0.025696 0
M  V30 37 F 0.806115 2.222834 0.567492 0
M  V30 38 H 2.515354 1.186760 1.441393 0
M  V30 39 H 3.353086 -1.642662 2.265555 0
M  V30 40 H 4.239489 -1.248603 0.776397 0
M  V30 41 H 5.625443 -1.017071 2.734391 0
M  V30 42 H 4.491495 0.235436 3.431017 0
M  V30 43 H 5.919592 4.087408 0.769032 0
M  V30 44 H 7.846043 3.295205 -0.421878 0
M  V30 45 H 8.434700 0.865731 -0.256720 0
M  V30 46 H 0.038741 -2.008602 -0.645437 0
M  V30 47 H -1.852478 -2.671290 -1.518815 0
M  V30 48 H -0.933694 -1.496064 -3.529158 0
M  V30 49 H -2.291448 -2.579906 -3.862131 0
M  V30 50 H -2.221830 0.491459 -3.897743 0
M  V30 51 H -2.715601 -0.667132 -5.136954 0
M  V30 52 H -4.438356 0.616864 -3.535517 0
M  V30 53 H -4.722782 -2.278354 -3.314272 0
M  V30 54 H -5.605257 -1.011936 -2.422484 0
M  V30 55 H -3.876438 -0.830594 -0.765967 0
M  V30 56 H -5.338605 -2.871292 -0.766966 0
M  V30 57 H -4.119214 -3.703952 -1.722227 0
M  V30 58 H -2.360424 -4.786180 1.888595 0
M  V30 59 H -1.890025 -4.320162 4.183088 0
M  V30 60 H -4.427586 -1.071524 1.516117 0
M  V30 61 H -4.027906 -0.612787 6.418901 0
M  V30 62 H -2.465410 0.068734 5.702179 0
M  V30 63 H -2.799891 1.016415 -1.639976 0
M  V30 64 H -1.420453 2.661012 -0.576804 0
M  V30 END ATOM
M  V30 BEGIN BOND
M  V30 1 2 1 2
M  V30 2 1 2 3
M  V30 3 1 3 4
M  V30 4 1 4 5
M  V30 5 1 5 6
M  V30 6 2 6 7
M  V30 7 1 7 8
M  V30 8 1 7 9
M  V30 9 2 9 10
M  V30 10 1 10 11
M  V30 11 2 11 12
M  V30 12 1 12 13
M  V30 13 1 2 14
M  V30 14 2 14 15
M  V30 15 1 15 16
M  V30 16 1 16 17
M  V30 17 1 17 18
M  V30 18 1 18 19
M  V30 19 1 19 20
M  V30 20 1 20 21
M  V30 21 1 21 22
M  V30 22 1 22 23
M  V30 23 1 23 24
M  V30 24 1 24 25
M  V30 25 2 25 26
M  V30 26 1 26 27
M  V30 27 2 27 28
M  V30 28 1 28 29
M  V30 29 2 29 30
M  V30 30 1 29 31
M  V30 31 1 31 32
M  V30 32 1 32 33
M  V30 33 2 16 34
M  V30 34 1 34 35
M  V30 35 2 35 36
M  V30 36 1 36 37
M  V30 37 1 12 6
M  V30 38 1 36 14
M  V30 39 1 22 17
M  V30 40 1 30 25
M  V30 41 1 33 28
M  V30 42 1 3 38
M  V30 43 1 4 39
M  V30 44 1 4 40
M  V30 45 1 5 41
M  V30 46 1 5 42
M  V30 47 1 9 43
M  V30 48 1 10 44
M  V30 49 1 11 45
M  V30 50 1 15 46
M  V30 51 1 17 47 CFG=1
M  V30 52 1 18 48
M  V30 53 1 18 49
M  V30 54 1 19 50
M  V30 55 1 19 51
M  V30 56 1 20 52
M  V30 57 1 21 53
M  V30 58 1 21 54
M  V30 59 1 22 55 CFG=1
M  V30 60 1 23 56
M  V30 61 1 23 57
M  V30 62 1 26 58
M  V30 63 1 27 59
M  V30 64 1 30 60
M  V30 65 1 32 61
M  V30 66 1 32 62
M  V30 67 1 34 63
M  V30 68 1 35 64
M  V30 END BOND
M  V30 END CTAB
M  END
>  <Dataset>  (804) 
ChEMBL_Kinases

>  <Ligand_Instance>  (804) 
nan

>  <PDB_ID>  (804) 
nan

>  <Standardized_SMILES>  (804) 
O=C(NCCc1c(F)cccc1F)c1cc([C@@H]2CCNC[C@H]2COc2ccc3c(c2)OCO3)ccc1F

>  <Name>  (804) 
nan

>  <Pocket>  (804) 
nan

>  <ATP_Site>  (804) 
nan

>  <Peripheral>  (804) 
nan

>  <Num_H_Atoms_ProtBoundConf>  (804) 
nan

>  <Num_Resolved_Atoms>  (804) 
nan

>  <Num_Not_Resolved_Atoms>  (804) 
nan

$$$$
CHEMBL4064135
     RDKit          3D

  0  0  0  0  0  0  0  0  0  0999 V3000
M  V30 BEGIN CTAB
M  V30 COUNTS 45 48 0 0 0
M  V30 BEGIN ATOM
M  V30 1 N -3.188236 -4.896847 4.009688 0
M  V30 2 C -3.796069 -4.779115 2.758502 0
M  V30 3 O -4.872987 -5.369731 2.617502 0
M  V30 4 C -3.030683 -3.953970 1.805393 0
M  V30 5 C -1.828356 -3.326465 2.058718 0
M  V30 6 C -1.246283 -2.590254 1.046677 0
M  V30 7 C -1.824736 -2.463218 -0.200408 0
M  V30 8 N -1.202318 -1.697881 -1.227802 0
M  V30 9 C 0.038191 -1.056742 -0.938392 0
M  V30 10 N 0.048578 0.196095 -0.459840 0
M  V30 11 C 1.201959 0.863554 -0.163791 0
M  V30 12 N 1.039868 2.200701 0.268974 0
M  V30 13 C -0.212090 2.496266 1.003264 0
M  V30 14 C 0.089004 3.138153 2.332922 0
M  V30 15 O 0.910267 4.255308 2.249163 0
M  V30 16 C 2.109362 3.855070 1.617915 0
M  V30 17 C 1.703304 3.482024 0.209916 0
M  V30 18 C 2.337540 0.129194 -0.401125 0
M  V30 19 C 3.518819 0.764801 -0.097352 0
M  V30 20 C 4.731255 0.139986 -0.276894 0
M  V30 21 C 4.819160 -1.145272 -0.766211 0
M  V30 22 C 3.630177 -1.753972 -1.058454 0
M  V30 23 C 2.402141 -1.153045 -0.888413 0
M  V30 24 N 1.200742 -1.697400 -1.140802 0
M  V30 25 C -3.027090 -3.105873 -0.413825 0
M  V30 26 C -3.673071 -3.869006 0.567762 0
M  V30 27 H -2.738464 -4.986923 4.941470 0
M  V30 28 H -2.395388 -4.504138 4.543569 0
M  V30 29 H -1.430465 -3.466918 3.054566 0
M  V30 30 H -0.306086 -2.116147 1.287289 0
M  V30 31 H -1.676663 -1.633914 -2.153965 0
M  V30 32 H -0.781557 1.571547 1.227323 0
M  V30 33 H -0.794986 3.212614 0.401289 0
M  V30 34 H -0.887927 3.381149 2.798048 0
M  V30 35 H 0.603149 2.438401 3.024153 0
M  V30 36 H 2.448091 2.957202 2.204952 0
M  V30 37 H 2.867847 4.639769 1.652448 0
M  V30 38 H 0.994930 4.307599 -0.107410 0
M  V30 39 H 2.513967 3.558819 -0.537078 0
M  V30 40 H 3.582381 1.757539 0.304771 0
M  V30 41 H 5.677230 0.635760 -0.039289 0
M  V30 42 H 5.720108 -1.688146 -0.930489 0
M  V30 43 H 3.604016 -2.759527 -1.445937 0
M  V30 44 H -3.447415 -2.984868 -1.394488 0
M  V30 45 H -4.602386 -4.355186 0.375839 0
M  V30 END ATOM
M  V30 BEGIN BOND
M  V30 1 1 1 2
M  V30 2 2 2 3
M  V30 3 1 2 4
M  V30 4 2 4 5
M  V30 5 1 5 6
M  V30 6 2 6 7
M  V30 7 1 7 8
M  V30 8 1 8 9
M  V30 9 2 9 10
M  V30 10 1 10 11
M  V30 11 1 11 12
M  V30 12 1 12 13
M  V30 13 1 13 14
M  V30 14 1 14 15
M  V30 15 1 15 16
M  V30 16 1 16 17
M  V30 17 2 11 18
M  V30 18 1 18 19
M  V30 19 2 19 20
M  V30 20 1 20 21
M  V30 21 2 21 22
M  V30 22 1 22 23
M  V30 23 2 23 24
M  V30 24 1 7 25
M  V30 25 2 25 26
M  V30 26 1 26 4
M  V30 27 1 24 9
M  V30 28 1 17 12
M  V30 29 1 23 18
M  V30 30 1 1 27
M  V30 31 1 1 28
M  V30 32 1 5 29
M  V30 33 1 6 30
M  V30 34 1 8 31
M  V30 35 1 13 32
M  V30 36 1 13 33
M  V30 37 1 14 34
M  V30 38 1 14 35
M  V30 39 1 16 36
M  V30 40 1 16 37
M  V30 41 1 17 38
M  V30 42 1 17 39
M  V30 43 1 19 40
M  V30 44 1 20 41
M  V30 45 1 21 42
M  V30 46 1 22 43
M  V30 47 1 25 44
M  V30 48 1 26 45
M  V30 END BOND
M  V30 END CTAB
M  END
>  <Dataset>  (805) 
ChEMBL_Kinases

>  <Ligand_Instance>  (805) 
nan

>  <PDB_ID>  (805) 
nan

>  <Standardized_SMILES>  (805) 
NC(=O)c1ccc(Nc2nc(N3CCOCC3)c3ccccc3n2)cc1

>  <Name>  (805) 
nan

>  <Pocket>  (805) 
nan

>  <ATP_Site>  (805) 
nan

>  <Peripheral>  (805) 
nan

>  <Num_H_Atoms_ProtBoundConf>  (805) 
nan

>  <Num_Resolved_Atoms>  (805) 
nan

>  <Num_Not_Resolved_Atoms>  (805) 
nan

$$$$
CHEMBL4861947
     RDKit          3D

  0  0  0  0  0  0  0  0  0  0999 V3000
M  V30 BEGIN CTAB
M  V30 COUNTS 48 49 0 0 0
M  V30 BEGIN ATOM
M  V30 1 C -1.366701 -4.371743 2.579650 0
M  V30 2 O -0.413916 -3.398443 2.954712 0
M  V30 3 C -0.509711 -2.370493 2.004539 0
M  V30 4 C 0.469375 -1.270173 2.302998 0
M  V30 5 N 1.843687 -1.669478 2.306408 0
M  V30 6 C 2.673950 -0.541661 2.573423 0
M  V30 7 C 2.785100 0.492091 1.512010 0
M  V30 8 C 3.373807 0.066002 0.218061 0
M  V30 9 N 2.670807 -0.969410 -0.487198 0
M  V30 10 C 1.373143 -0.817763 -1.058257 0
M  V30 11 N 0.689180 0.330922 -0.992580 0
M  V30 12 C -0.524690 0.499854 -1.528534 0
M  V30 13 N -1.010345 1.833278 -1.293066 0
M  V30 14 C -1.828672 2.004733 -0.148982 0
M  V30 15 C -2.341522 3.237764 0.246164 0
M  V30 16 C -3.144949 3.406086 1.356354 0
M  V30 17 C -3.472205 2.292535 2.137478 0
M  V30 18 C -4.314986 2.508368 3.282393 0
M  V30 19 N -4.993665 2.663384 4.200495 0
M  V30 20 N -2.983592 1.084444 1.771029 0
M  V30 21 C -2.206503 0.964192 0.685650 0
M  V30 22 N -1.167460 -0.498227 -2.192240 0
M  V30 23 C -0.535364 -1.682750 -2.295416 0
M  V30 24 C 0.711565 -1.845194 -1.741219 0
M  V30 25 C 1.397715 -3.149247 -1.866050 0
M  V30 26 F 0.612443 -4.023399 -2.555599 0
M  V30 27 F 2.557011 -2.958218 -2.596228 0
M  V30 28 F 1.732701 -3.730537 -0.678343 0
M  V30 29 H -1.369737 -5.229308 3.266708 0
M  V30 30 H -2.347958 -3.867151 2.604853 0
M  V30 31 H -1.155759 -4.705153 1.531316 0
M  V30 32 H -0.423357 -2.758192 0.975056 0
M  V30 33 H -1.530877 -1.908781 2.140375 0
M  V30 34 H 0.259772 -0.941629 3.373396 0
M  V30 35 H 0.320099 -0.449842 1.608280 0
M  V30 36 H 2.143981 -2.307372 1.565462 0
M  V30 37 H 2.199052 -0.017690 3.458165 0
M  V30 38 H 3.673968 -0.846349 2.975995 0
M  V30 39 H 1.780122 0.923492 1.312052 0
M  V30 40 H 3.381090 1.330346 1.933564 0
M  V30 41 H 4.458236 -0.193547 0.288245 0
M  V30 42 H 3.372402 0.947736 -0.495456 0
M  V30 43 H 3.127627 -1.911221 -0.601918 0
M  V30 44 H -0.808435 2.650609 -1.884280 0
M  V30 45 H -2.069009 4.094031 -0.382146 0
M  V30 46 H -3.467349 4.424665 1.535471 0
M  V30 47 H -1.824950 -0.026983 0.412324 0
M  V30 48 H -1.051095 -2.461788 -2.820390 0
M  V30 END ATOM
M  V30 BEGIN BOND
M  V30 1 1 1 2
M  V30 2 1 2 3
M  V30 3 1 3 4
M  V30 4 1 4 5
M  V30 5 1 5 6
M  V30 6 1 6 7
M  V30 7 1 7 8
M  V30 8 1 8 9
M  V30 9 1 9 10
M  V30 10 2 10 11
M  V30 11 1 11 12
M  V30 12 1 12 13
M  V30 13 1 13 14
M  V30 14 2 14 15
M  V30 15 1 15 16
M  V30 16 2 16 17
M  V30 17 1 17 18
M  V30 18 3 18 19
M  V30 19 1 17 20
M  V30 20 2 20 21
M  V30 21 2 12 22
M  V30 22 1 22 23
M  V30 23 2 23 24
M  V30 24 1 24 25
M  V30 25 1 25 26
M  V30 26 1 25 27
M  V30 27 1 25 28
M  V30 28 1 24 10
M  V30 29 1 21 14
M  V30 30 1 1 29
M  V30 31 1 1 30
M  V30 32 1 1 31
M  V30 33 1 3 32
M  V30 34 1 3 33
M  V30 35 1 4 34
M  V30 36 1 4 35
M  V30 37 1 5 36
M  V30 38 1 6 37
M  V30 39 1 6 38
M  V30 40 1 7 39
M  V30 41 1 7 40
M  V30 42 1 8 41
M  V30 43 1 8 42
M  V30 44 1 9 43
M  V30 45 1 13 44
M  V30 46 1 15 45
M  V30 47 1 16 46
M  V30 48 1 21 47
M  V30 49 1 23 48
M  V30 END BOND
M  V30 END CTAB
M  END
>  <Dataset>  (806) 
ChEMBL_Kinases

>  <Ligand_Instance>  (806) 
nan

>  <PDB_ID>  (806) 
nan

>  <Standardized_SMILES>  (806) 
COCCNCCCNc1nc(Nc2ccc(C#N)nc2)ncc1C(F)(F)F

>  <Name>  (806) 
nan

>  <Pocket>  (806) 
nan

>  <ATP_Site>  (806) 
nan

>  <Peripheral>  (806) 
nan

>  <Num_H_Atoms_ProtBoundConf>  (806) 
nan

>  <Num_Resolved_Atoms>  (806) 
nan

>  <Num_Not_Resolved_Atoms>  (806) 
nan

$$$$
CHEMBL4064103
     RDKit          3D

  0  0  0  0  0  0  0  0  0  0999 V3000
M  V30 BEGIN CTAB
M  V30 COUNTS 26 27 0 0 0
M  V30 BEGIN ATOM
M  V30 1 N 1.499992 0.341070 4.575054 0
M  V30 2 C 1.745760 -0.169729 3.543273 0
M  V30 3 C 2.062908 -0.798568 2.305588 0
M  V30 4 C 3.166160 -1.631194 2.183916 0
M  V30 5 N 3.175386 -2.050691 0.909322 0
M  V30 6 C 2.144398 -1.532276 0.221359 0
M  V30 7 N 1.747813 -1.666846 -1.074260 0
M  V30 8 C 0.637996 -0.993704 -1.459426 0
M  V30 9 N 0.098551 -1.033378 -2.779066 0
M  V30 10 N -0.032419 -0.227364 -0.581682 0
M  V30 11 C 0.302610 -0.052433 0.701905 0
M  V30 12 N -0.463398 0.780750 1.558020 0
M  V30 13 C -1.656159 1.489156 1.107652 0
M  V30 14 C -2.699082 0.512028 0.674409 0
M  V30 15 O -3.065206 -0.337092 1.712532 0
M  V30 16 C 1.432337 -0.738854 1.090289 0
M  V30 17 H 3.901783 -1.916237 2.936738 0
M  V30 18 H 3.874920 -2.699478 0.459071 0
M  V30 19 H -0.261759 -1.918768 -3.238469 0
M  V30 20 H -0.298852 -1.773250 -3.402050 0
M  V30 21 H -0.248958 0.955197 2.554718 0
M  V30 22 H -1.329607 2.035533 0.170742 0
M  V30 23 H -1.999294 2.263577 1.783433 0
M  V30 24 H -2.351447 -0.036417 -0.209540 0
M  V30 25 H -3.611317 1.112102 0.410225 0
M  V30 26 H -3.997159 -0.650064 1.564392 0
M  V30 END ATOM
M  V30 BEGIN BOND
M  V30 1 3 1 2
M  V30 2 1 2 3
M  V30 3 2 3 4
M  V30 4 1 4 5
M  V30 5 1 5 6
M  V30 6 2 6 7
M  V30 7 1 7 8
M  V30 8 1 8 9
M  V30 9 2 8 10
M  V30 10 1 10 11
M  V30 11 1 11 12
M  V30 12 1 12 13
M  V30 13 1 13 14
M  V30 14 1 14 15
M  V30 15 2 11 16
M  V30 16 1 16 3
M  V30 17 1 16 6
M  V30 18 1 4 17
M  V30 19 1 5 18
M  V30 20 1 9 19
M  V30 21 1 9 20
M  V30 22 1 12 21
M  V30 23 1 13 22
M  V30 24 1 13 23
M  V30 25 1 14 24
M  V30 26 1 14 25
M  V30 27 1 15 26
M  V30 END BOND
M  V30 END CTAB
M  END
>  <Dataset>  (807) 
ChEMBL_Kinases

>  <Ligand_Instance>  (807) 
nan

>  <PDB_ID>  (807) 
nan

>  <Standardized_SMILES>  (807) 
N#Cc1c[nH]c2nc(N)nc(NCCO)c12

>  <Name>  (807) 
nan

>  <Pocket>  (807) 
nan

>  <ATP_Site>  (807) 
nan

>  <Peripheral>  (807) 
nan

>  <Num_H_Atoms_ProtBoundConf>  (807) 
nan

>  <Num_Resolved_Atoms>  (807) 
nan

>  <Num_Not_Resolved_Atoms>  (807) 
nan

$$$$
CHEMBL406408
     RDKit          3D

  0  0  0  0  0  0  0  0  0  0999 V3000
M  V30 BEGIN CTAB
M  V30 COUNTS 56 59 0 0 0
M  V30 BEGIN ATOM
M  V30 1 C 2.137786 0.849305 6.526365 0
M  V30 2 C 3.118401 -0.183249 5.981078 0
M  V30 3 N 2.951465 -0.166198 4.522221 0
M  V30 4 C 3.723584 -1.020754 3.686986 0
M  V30 5 O 4.554789 -1.791711 4.243759 0
M  V30 6 N 3.549911 -0.992183 2.275450 0
M  V30 7 C 2.689835 -0.203800 1.609154 0
M  V30 8 C 2.784075 -0.435889 0.255640 0
M  V30 9 C 2.133326 0.087155 -0.985576 0
M  V30 10 N 0.955802 -0.648184 -1.361569 0
M  V30 11 C -0.313086 -0.434114 -1.003774 0
M  V30 12 C -0.584210 0.672495 -0.135677 0
M  V30 13 O -0.015812 1.600160 0.465163 0
M  V30 14 C -1.666126 1.370046 0.556686 0
M  V30 15 C -1.170529 2.566592 1.341637 0
M  V30 16 C -1.367642 -1.196699 -1.417218 0
M  V30 17 C -2.767522 -1.034517 -1.075428 0
M  V30 18 C -3.591275 -0.222230 -1.863874 0
M  V30 19 C -4.919052 -0.029129 -1.608841 0
M  V30 20 C -5.529383 -0.627118 -0.552721 0
M  V30 21 C -4.752635 -1.432915 0.245278 0
M  V30 22 C -3.417785 -1.626708 -0.011639 0
M  V30 23 C -1.114927 -2.257662 -2.258464 0
M  V30 24 C -2.114551 -3.087214 -2.731156 0
M  V30 25 C -1.833938 -4.143832 -3.573545 0
M  V30 26 Cl -3.157531 -5.139567 -4.121898 0
M  V30 27 C -0.549340 -4.410007 -3.973461 0
M  V30 28 C 0.452479 -3.594449 -3.511693 0
M  V30 29 C 0.169737 -2.539819 -2.670500 0
M  V30 30 C 1.148899 -1.698705 -2.185885 0
M  V30 31 O 2.327757 -1.987668 -2.587147 0
M  V30 32 C 3.766737 -1.425960 0.140952 0
M  V30 33 N 4.198617 -1.728541 1.389727 0
M  V30 34 H 2.477068 1.313880 7.462420 0
M  V30 35 H 2.061792 1.671119 5.781940 0
M  V30 36 H 1.118767 0.419702 6.627120 0
M  V30 37 H 2.871749 -1.209047 6.313057 0
M  V30 38 H 4.119520 0.158193 6.278261 0
M  V30 39 H 2.266567 0.465404 4.027031 0
M  V30 40 H 1.990978 0.529913 1.968794 0
M  V30 41 H 1.847765 1.135955 -0.775851 0
M  V30 42 H 2.876032 0.143852 -1.817035 0
M  V30 43 H -2.380332 1.798251 -0.205277 0
M  V30 44 H -2.280441 0.707916 1.209253 0
M  V30 45 H -0.485744 2.328453 2.153134 0
M  V30 46 H -0.713988 3.350912 0.709746 0
M  V30 47 H -2.049741 3.075280 1.836521 0
M  V30 48 H -3.155393 0.289652 -2.734015 0
M  V30 49 H -5.516900 0.619999 -2.262700 0
M  V30 50 H -6.561116 -0.531863 -0.279706 0
M  V30 51 H -5.098164 -1.980721 1.129359 0
M  V30 52 H -2.771571 -2.263953 0.606967 0
M  V30 53 H -3.149639 -2.908787 -2.436120 0
M  V30 54 H -0.378721 -5.249161 -4.634422 0
M  V30 55 H 1.487852 -3.772853 -3.806709 0
M  V30 56 H 4.249308 -1.984890 -0.638951 0
M  V30 END ATOM
M  V30 BEGIN BOND
M  V30 1 1 1 2
M  V30 2 1 2 3
M  V30 3 1 3 4
M  V30 4 2 4 5
M  V30 5 1 4 6
M  V30 6 1 6 7
M  V30 7 2 7 8
M  V30 8 1 8 9
M  V30 9 1 9 10
M  V30 10 1 10 11
M  V30 11 1 11 12
M  V30 12 2 12 13
M  V30 13 1 12 14
M  V30 14 1 14 15
M  V30 15 2 11 16
M  V30 16 1 16 17
M  V30 17 2 17 18
M  V30 18 1 18 19
M  V30 19 2 19 20
M  V30 20 1 20 21
M  V30 21 2 21 22
M  V30 22 1 16 23
M  V30 23 2 23 24
M  V30 24 1 24 25
M  V30 25 1 25 26
M  V30 26 2 25 27
M  V30 27 1 27 28
M  V30 28 2 28 29
M  V30 29 1 29 30
M  V30 30 2 30 31
M  V30 31 1 8 32
M  V30 32 2 32 33
M  V30 33 1 33 6
M  V30 34 1 30 10
M  V30 35 1 22 17
M  V30 36 1 29 23
M  V30 37 1 1 34
M  V30 38 1 1 35
M  V30 39 1 1 36
M  V30 40 1 2 37
M  V30 41 1 2 38
M  V30 42 1 3 39
M  V30 43 1 7 40
M  V30 44 1 9 41
M  V30 45 1 9 42
M  V30 46 1 14 43
M  V30 47 1 14 44
M  V30 48 1 15 45
M  V30 49 1 15 46
M  V30 50 1 15 47
M  V30 51 1 18 48
M  V30 52 1 19 49
M  V30 53 1 20 50
M  V30 54 1 21 51
M  V30 55 1 22 52
M  V30 56 1 24 53
M  V30 57 1 27 54
M  V30 58 1 28 55
M  V30 59 1 32 56
M  V30 END BOND
M  V30 END CTAB
M  END
>  <Dataset>  (808) 
ChEMBL_Kinases

>  <Ligand_Instance>  (808) 
nan

>  <PDB_ID>  (808) 
nan

>  <Standardized_SMILES>  (808) 
CCNC(=O)n1cc(Cn2c(C(=O)CC)c(-c3ccccc3)c3cc(Cl)ccc3c2=O)cn1

>  <Name>  (808) 
nan

>  <Pocket>  (808) 
nan

>  <ATP_Site>  (808) 
nan

>  <Peripheral>  (808) 
nan

>  <Num_H_Atoms_ProtBoundConf>  (808) 
nan

>  <Num_Resolved_Atoms>  (808) 
nan

>  <Num_Not_Resolved_Atoms>  (808) 
nan

$$$$
CHEMBL4861953
     RDKit          3D

  0  0  0  0  0  0  0  0  0  0999 V3000
M  V30 BEGIN CTAB
M  V30 COUNTS 44 46 0 0 0
M  V30 BEGIN ATOM
M  V30 1 C 1.998362 -5.104731 0.051514 0
M  V30 2 O 1.646140 -3.938028 -0.621449 0
M  V30 3 C 1.376453 -3.820527 -1.974903 0
M  V30 4 C 1.460348 -4.946938 -2.731345 0
M  V30 5 C 1.201080 -4.881657 -4.084020 0
M  V30 6 C 0.869020 -3.659820 -4.586727 0
M  V30 7 C 0.790777 -2.533438 -3.799278 0
M  V30 8 C 1.045297 -2.572555 -2.444416 0
M  V30 9 C 0.935443 -1.329528 -1.704673 0
M  V30 10 O 0.617391 -0.267449 -2.302820 0
M  V30 11 N 1.133418 -1.064196 -0.331719 0
M  V30 12 C 0.905270 0.322790 -0.085517 0
M  V30 13 C 2.007467 1.144464 -0.200000 0
M  V30 14 C 1.827503 2.493886 0.030717 0
M  V30 15 C 0.549381 2.899771 0.357652 0
M  V30 16 C -0.568269 2.089559 0.477025 0
M  V30 17 C -1.861839 2.639263 0.827785 0
M  V30 18 N -2.026562 3.822103 1.450310 0
M  V30 19 N -3.308479 4.014806 1.615113 0
M  V30 20 C -3.953029 2.963375 1.101694 0
M  V30 21 N -3.053923 2.094153 0.604931 0
M  V30 22 C -3.372798 0.834856 -0.032881 0 CFG=1
M  V30 23 C -3.830349 -0.169617 0.992394 0
M  V30 24 C -4.479740 1.001386 -1.059499 0
M  V30 25 F -5.647550 1.470632 -0.538085 0
M  V30 26 F -4.099186 1.905802 -2.047651 0
M  V30 27 F -4.669747 -0.197779 -1.718211 0
M  V30 28 N -0.314923 0.788557 0.237786 0
M  V30 29 H 2.784931 -5.689606 -0.431771 0
M  V30 30 H 1.145560 -5.766777 0.283992 0
M  V30 31 H 2.405950 -4.780527 1.050797 0
M  V30 32 H 1.727906 -5.896999 -2.289092 0
M  V30 33 H 1.244377 -5.724718 -4.757205 0
M  V30 34 H 0.655092 -3.556527 -5.649461 0
M  V30 35 H 0.517438 -1.591786 -4.282372 0
M  V30 36 H 1.401893 -1.875484 0.265197 0
M  V30 37 H 2.989441 0.771315 -0.459939 0
M  V30 38 H 2.630197 3.214868 -0.035138 0
M  V30 39 H 0.422582 3.969894 0.537266 0
M  V30 40 H -5.032855 2.918579 1.132972 0
M  V30 41 H -2.521027 0.412087 -0.574795 0
M  V30 42 H -3.264496 0.007590 1.935457 0
M  V30 43 H -3.639573 -1.211799 0.629038 0
M  V30 44 H -4.917720 -0.070291 1.128389 0
M  V30 END ATOM
M  V30 BEGIN BOND
M  V30 1 1 1 2
M  V30 2 1 2 3
M  V30 3 2 3 4
M  V30 4 1 4 5
M  V30 5 2 5 6
M  V30 6 1 6 7
M  V30 7 2 7 8
M  V30 8 1 8 9
M  V30 9 2 9 10
M  V30 10 1 9 11
M  V30 11 1 11 12
M  V30 12 2 12 13
M  V30 13 1 13 14
M  V30 14 2 14 15
M  V30 15 1 15 16
M  V30 16 1 16 17
M  V30 17 2 17 18
M  V30 18 1 18 19
M  V30 19 2 19 20
M  V30 20 1 20 21
M  V30 21 1 21 22
M  V30 22 1 22 23
M  V30 23 1 22 24
M  V30 24 1 24 25
M  V30 25 1 24 26
M  V30 26 1 24 27
M  V30 27 2 16 28
M  V30 28 1 8 3
M  V30 29 1 28 12
M  V30 30 1 21 17
M  V30 31 1 1 29
M  V30 32 1 1 30
M  V30 33 1 1 31
M  V30 34 1 4 32
M  V30 35 1 5 33
M  V30 36 1 6 34
M  V30 37 1 7 35
M  V30 38 1 11 36
M  V30 39 1 13 37
M  V30 40 1 14 38
M  V30 41 1 15 39
M  V30 42 1 20 40
M  V30 43 1 22 41 CFG=3
M  V30 44 1 23 42
M  V30 45 1 23 43
M  V30 46 1 23 44
M  V30 END BOND
M  V30 END CTAB
M  END
>  <Dataset>  (809) 
ChEMBL_Kinases

>  <Ligand_Instance>  (809) 
nan

>  <PDB_ID>  (809) 
nan

>  <Standardized_SMILES>  (809) 
COc1ccccc1C(=O)Nc1cccc(-c2nncn2[C@@H](C)C(F)(F)F)n1

>  <Name>  (809) 
nan

>  <Pocket>  (809) 
nan

>  <ATP_Site>  (809) 
nan

>  <Peripheral>  (809) 
nan

>  <Num_H_Atoms_ProtBoundConf>  (809) 
nan

>  <Num_Resolved_Atoms>  (809) 
nan

>  <Num_Not_Resolved_Atoms>  (809) 
nan

$$$$
CHEMBL4064022
     RDKit          3D

  0  0  0  0  0  0  0  0  0  0999 V3000
M  V30 BEGIN CTAB
M  V30 COUNTS 66 70 0 0 0
M  V30 BEGIN ATOM
M  V30 1 C 3.686714 -0.232526 4.307550 0
M  V30 2 C 2.363401 -0.589743 3.637854 0
M  V30 3 O 2.389322 -1.990337 3.451526 0
M  V30 4 C 2.167542 -2.649453 2.280911 0
M  V30 5 C 1.861860 -2.159888 1.044714 0
M  V30 6 C 1.659993 -2.942664 -0.069192 0
M  V30 7 C 1.329109 -2.377900 -1.371239 0
M  V30 8 C 1.956415 -2.788864 -2.535270 0
M  V30 9 N 1.390038 -2.055682 -3.510259 0
M  V30 10 C 0.460486 -1.230693 -2.995672 0
M  V30 11 C -0.360606 -0.310801 -3.617029 0
M  V30 12 C -1.262010 0.449794 -2.906004 0
M  V30 13 N -2.137712 1.412705 -3.471378 0
M  V30 14 C -3.078522 2.246456 -2.752007 0
M  V30 15 C -4.496916 2.025958 -3.224642 0
M  V30 16 N -4.612576 1.321201 -4.453575 0
M  V30 17 C -5.028384 -0.038973 -4.373144 0
M  V30 18 C -3.623706 1.627954 -5.428834 0
M  V30 19 C -2.211442 1.701380 -4.890653 0
M  V30 20 C -1.274408 0.218929 -1.548131 0
M  V30 21 C -0.441324 -0.712595 -0.926535 0
M  V30 22 N 0.422503 -1.430897 -1.666211 0
M  V30 23 C 1.764455 -4.313961 0.029150 0
M  V30 24 C 2.075191 -4.835005 1.278831 0
M  V30 25 C 2.276752 -4.022372 2.398942 0
M  V30 26 C 2.592782 -4.861358 3.547014 0
M  V30 27 N 2.891682 -4.445890 4.863953 0
M  V30 28 O 2.679423 -6.109760 3.665725 0
M  V30 29 C 1.267808 -0.295987 4.600999 0
M  V30 30 C 0.842980 -1.269571 5.476871 0
M  V30 31 C -0.161994 -1.082772 6.403700 0
M  V30 32 C -0.788949 0.149830 6.468735 0
M  V30 33 C -0.341818 1.107915 5.577226 0
M  V30 34 C 0.674909 0.948909 4.625749 0
M  V30 35 C 1.055945 2.042633 3.733601 0
M  V30 36 F 0.869243 1.694996 2.423879 0
M  V30 37 F 2.307704 2.553912 3.985434 0
M  V30 38 F 0.180207 3.106541 3.969855 0
M  V30 39 H 3.508739 0.248564 5.314721 0
M  V30 40 H 4.333150 0.394318 3.658208 0
M  V30 41 H 4.300477 -1.123055 4.548765 0
M  V30 42 H 2.213480 -0.122025 2.668620 0
M  V30 43 H 1.781057 -1.086637 0.964819 0
M  V30 44 H 2.730723 -3.514741 -2.750889 0
M  V30 45 H -0.287008 -0.194887 -4.670164 0
M  V30 46 H -2.818336 3.312043 -3.030365 0
M  V30 47 H -2.981633 2.222485 -1.661396 0
M  V30 48 H -5.024689 2.996468 -3.338462 0
M  V30 49 H -5.114695 1.475507 -2.457272 0
M  V30 50 H -5.994907 -0.148386 -4.946306 0
M  V30 51 H -4.338608 -0.759120 -4.857866 0
M  V30 52 H -5.287761 -0.363453 -3.350690 0
M  V30 53 H -3.856616 2.612195 -5.882820 0
M  V30 54 H -3.727058 0.886020 -6.256716 0
M  V30 55 H -1.600017 1.069399 -5.527625 0
M  V30 56 H -1.788763 2.739397 -5.000517 0
M  V30 57 H -1.905482 0.715792 -0.855574 0
M  V30 58 H -0.448966 -0.897218 0.135769 0
M  V30 59 H 1.604198 -4.918986 -0.851354 0
M  V30 60 H 2.138668 -5.936437 1.268666 0
M  V30 61 H 2.790899 -4.072148 5.812143 0
M  V30 62 H 3.635250 -4.360480 5.576660 0
M  V30 63 H 1.260886 -2.269404 5.515164 0
M  V30 64 H -0.500785 -1.847251 7.096987 0
M  V30 65 H -1.585786 0.409817 7.152569 0
M  V30 66 H -0.825731 2.096501 5.609720 0
M  V30 END ATOM
M  V30 BEGIN BOND
M  V30 1 1 1 2
M  V30 2 1 2 3
M  V30 3 1 3 4
M  V30 4 2 4 5
M  V30 5 1 5 6
M  V30 6 1 6 7
M  V30 7 2 7 8
M  V30 8 1 8 9
M  V30 9 2 9 10
M  V30 10 1 10 11
M  V30 11 2 11 12
M  V30 12 1 12 13
M  V30 13 1 13 14
M  V30 14 1 14 15
M  V30 15 1 15 16
M  V30 16 1 16 17
M  V30 17 1 16 18
M  V30 18 1 18 19
M  V30 19 1 12 20
M  V30 20 2 20 21
M  V30 21 1 21 22
M  V30 22 2 6 23
M  V30 23 1 23 24
M  V30 24 2 24 25
M  V30 25 1 25 26
M  V30 26 1 26 27
M  V30 27 2 26 28
M  V30 28 1 2 29
M  V30 29 2 29 30
M  V30 30 1 30 31
M  V30 31 2 31 32
M  V30 32 1 32 33
M  V30 33 2 33 34
M  V30 34 1 34 35
M  V30 35 1 35 36
M  V30 36 1 35 37
M  V30 37 1 35 38
M  V30 38 1 25 4
M  V30 39 1 34 29
M  V30 40 1 22 7
M  V30 41 1 22 10
M  V30 42 1 19 13
M  V30 43 1 1 39
M  V30 44 1 1 40
M  V30 45 1 1 41
M  V30 46 1 2 42
M  V30 47 1 5 43
M  V30 48 1 8 44
M  V30 49 1 11 45
M  V30 50 1 14 46
M  V30 51 1 14 47
M  V30 52 1 15 48
M  V30 53 1 15 49
M  V30 54 1 17 50
M  V30 55 1 17 51
M  V30 56 1 17 52
M  V30 57 1 18 53
M  V30 58 1 18 54
M  V30 59 1 19 55
M  V30 60 1 19 56
M  V30 61 1 20 57
M  V30 62 1 21 58
M  V30 63 1 23 59
M  V30 64 1 24 60
M  V30 65 1 27 61
M  V30 66 1 27 62
M  V30 67 1 30 63
M  V30 68 1 31 64
M  V30 69 1 32 65
M  V30 70 1 33 66
M  V30 END BOND
M  V30 END CTAB
M  END
>  <Dataset>  (810) 
ChEMBL_Kinases

>  <Ligand_Instance>  (810) 
nan

>  <PDB_ID>  (810) 
nan

>  <Standardized_SMILES>  (810) 
CC(Oc1cc(-c2cnc3cc(N4CCN(C)CC4)ccn23)ccc1C(N)=O)c1ccccc1C(F)(F)F

>  <Name>  (810) 
nan

>  <Pocket>  (810) 
nan

>  <ATP_Site>  (810) 
nan

>  <Peripheral>  (810) 
nan

>  <Num_H_Atoms_ProtBoundConf>  (810) 
nan

>  <Num_Resolved_Atoms>  (810) 
nan

>  <Num_Not_Resolved_Atoms>  (810) 
nan

$$$$
CHEMBL4064016
     RDKit          3D

  0  0  0  0  0  0  0  0  0  0999 V3000
M  V30 BEGIN CTAB
M  V30 COUNTS 39 41 0 0 0
M  V30 BEGIN ATOM
M  V30 1 C -1.280916 -5.160754 5.515368 0
M  V30 2 O 0.000630 -5.175956 4.966827 0
M  V30 3 C 0.411773 -4.450565 3.851117 0
M  V30 4 C 1.727944 -4.613324 3.477293 0
M  V30 5 C 2.174683 -3.914277 2.379722 0
M  V30 6 C 1.227729 -3.099821 1.751244 0
M  V30 7 S 1.422901 -2.000864 0.250496 0
M  V30 8 C -0.255262 -1.444991 0.278766 0
M  V30 9 C -0.877633 -0.479030 -0.688462 0
M  V30 10 O -2.076963 -0.156977 -0.571596 0
M  V30 11 N -0.013736 0.012284 -1.703329 0
M  V30 12 C -0.505869 0.948371 -2.689350 0
M  V30 13 C -1.010390 2.232047 -2.058648 0
M  V30 14 C 0.084407 2.891113 -1.318026 0
M  V30 15 C 0.439909 2.733744 0.003444 0
M  V30 16 C 1.495511 3.422479 0.556713 0
M  V30 17 C 2.259903 4.311668 -0.180926 0
M  V30 18 C 1.932781 4.493636 -1.505097 0
M  V30 19 C 0.873292 3.794922 -2.038801 0
M  V30 20 C -0.818984 -2.051043 1.308523 0
M  V30 21 C -0.113301 -2.911519 2.103193 0
M  V30 22 C -0.494520 -3.641212 3.211189 0
M  V30 23 H -1.343321 -6.027512 6.225402 0
M  V30 24 H -2.111879 -5.177865 4.804842 0
M  V30 25 H -1.423554 -4.247922 6.157113 0
M  V30 26 H 2.463244 -5.238574 3.956034 0
M  V30 27 H 3.166490 -3.921604 1.949614 0
M  V30 28 H 1.003668 -0.293138 -1.761339 0
M  V30 29 H -1.270934 0.485178 -3.343844 0
M  V30 30 H 0.310561 1.259181 -3.375177 0
M  V30 31 H -1.391730 2.934037 -2.821655 0
M  V30 32 H -1.843238 2.024986 -1.361113 0
M  V30 33 H -0.173078 2.035319 0.556113 0
M  V30 34 H 1.738852 3.265882 1.603658 0
M  V30 35 H 3.067732 4.808334 0.331065 0
M  V30 36 H 2.514557 5.181986 -2.100341 0
M  V30 37 H 0.657443 3.976886 -3.093154 0
M  V30 38 H -1.882807 -1.843085 1.512354 0
M  V30 39 H -1.498931 -3.602825 3.606878 0
M  V30 END ATOM
M  V30 BEGIN BOND
M  V30 1 1 1 2
M  V30 2 1 2 3
M  V30 3 2 3 4
M  V30 4 1 4 5
M  V30 5 2 5 6
M  V30 6 1 6 7
M  V30 7 1 7 8
M  V30 8 1 8 9
M  V30 9 2 9 10
M  V30 10 1 9 11
M  V30 11 1 11 12
M  V30 12 1 12 13
M  V30 13 1 13 14
M  V30 14 2 14 15
M  V30 15 1 15 16
M  V30 16 2 16 17
M  V30 17 1 17 18
M  V30 18 2 18 19
M  V30 19 2 8 20
M  V30 20 1 20 21
M  V30 21 2 21 22
M  V30 22 1 22 3
M  V30 23 1 21 6
M  V30 24 1 19 14
M  V30 25 1 1 23
M  V30 26 1 1 24
M  V30 27 1 1 25
M  V30 28 1 4 26
M  V30 29 1 5 27
M  V30 30 1 11 28
M  V30 31 1 12 29
M  V30 32 1 12 30
M  V30 33 1 13 31
M  V30 34 1 13 32
M  V30 35 1 15 33
M  V30 36 1 16 34
M  V30 37 1 17 35
M  V30 38 1 18 36
M  V30 39 1 19 37
M  V30 40 1 20 38
M  V30 41 1 22 39
M  V30 END BOND
M  V30 END CTAB
M  END
>  <Dataset>  (811) 
ChEMBL_Kinases

>  <Ligand_Instance>  (811) 
nan

>  <PDB_ID>  (811) 
nan

>  <Standardized_SMILES>  (811) 
COc1ccc2sc(C(=O)NCCc3ccccc3)cc2c1

>  <Name>  (811) 
nan

>  <Pocket>  (811) 
nan

>  <ATP_Site>  (811) 
nan

>  <Peripheral>  (811) 
nan

>  <Num_H_Atoms_ProtBoundConf>  (811) 
nan

>  <Num_Resolved_Atoms>  (811) 
nan

>  <Num_Not_Resolved_Atoms>  (811) 
nan

$$$$
CHEMBL4064440
     RDKit          3D

  0  0  0  0  0  0  0  0  0  0999 V3000
M  V30 BEGIN CTAB
M  V30 COUNTS 48 50 0 0 0
M  V30 BEGIN ATOM
M  V30 1 C -2.659659 -3.334965 -1.295302 0
M  V30 2 C -3.207573 -1.978167 -1.627612 0
M  V30 3 C -4.698240 -2.003879 -1.500610 0
M  V30 4 N -2.631016 -0.910516 -0.891494 0
M  V30 5 C -2.737942 -0.915889 0.500997 0
M  V30 6 C -1.491802 -1.073140 1.300997 0
M  V30 7 N -0.282612 -0.792230 0.554367 0
M  V30 8 C 0.943031 -0.784033 1.284512 0
M  V30 9 N 1.297515 0.407376 1.799041 0
M  V30 10 C 2.432212 0.574102 2.515631 0
M  V30 11 C 2.820013 1.864745 3.075270 0
M  V30 12 C 3.963983 2.089040 3.812041 0
M  V30 13 C 4.230530 3.367537 4.296577 0
M  V30 14 N 3.388684 4.406884 4.061679 0
M  V30 15 C 2.278978 4.146686 3.336095 0
M  V30 16 N 1.997317 2.905949 2.852220 0
M  V30 17 C 3.175394 -0.578590 2.663036 0
M  V30 18 C 2.811618 -1.800553 2.135195 0
M  V30 19 O 3.544356 -2.815343 2.311573 0
M  V30 20 N 1.671002 -1.888363 1.435220 0
M  V30 21 C 1.276437 -3.145201 0.880204 0
M  V30 22 C -0.204971 -0.519638 -0.862084 0 CFG=2
M  V30 23 C 0.763607 0.646230 -1.093296 0
M  V30 24 C -1.525457 -0.259376 -1.497584 0
M  V30 25 H -3.064745 -3.615848 -0.291494 0
M  V30 26 H -3.070261 -4.069960 -2.013697 0
M  V30 27 H -1.559452 -3.333334 -1.251736 0
M  V30 28 H -2.972514 -1.785935 -2.713046 0
M  V30 29 H -5.122812 -1.005530 -1.240007 0
M  V30 30 H -4.978139 -2.777506 -0.753658 0
M  V30 31 H -5.139833 -2.367197 -2.471633 0
M  V30 32 H -3.422763 -1.756045 0.802981 0
M  V30 33 H -3.278626 0.003798 0.838126 0
M  V30 34 H -1.488224 -0.382252 2.194255 0
M  V30 35 H -1.386245 -2.093909 1.725376 0
M  V30 36 H 4.628391 1.255979 3.994173 0
M  V30 37 H 5.128783 3.504787 4.865177 0
M  V30 38 H 1.548976 4.910920 3.097452 0
M  V30 39 H 4.096717 -0.548401 3.218031 0
M  V30 40 H 0.311162 -3.116823 0.369468 0
M  V30 41 H 1.261917 -3.916673 1.701878 0
M  V30 42 H 2.079994 -3.473984 0.175971 0
M  V30 43 H 0.258952 -1.401872 -1.366389 0
M  V30 44 H 1.789587 0.375068 -0.842647 0
M  V30 45 H 0.490434 1.504767 -0.451935 0
M  V30 46 H 0.729176 0.992548 -2.133735 0
M  V30 47 H -1.718945 0.842483 -1.429954 0
M  V30 48 H -1.532915 -0.520959 -2.574901 0
M  V30 END ATOM
M  V30 BEGIN BOND
M  V30 1 1 1 2
M  V30 2 1 2 3
M  V30 3 1 2 4
M  V30 4 1 4 5
M  V30 5 1 5 6
M  V30 6 1 6 7
M  V30 7 1 7 8
M  V30 8 2 8 9
M  V30 9 1 9 10
M  V30 10 1 10 11
M  V30 11 2 11 12
M  V30 12 1 12 13
M  V30 13 2 13 14
M  V30 14 1 14 15
M  V30 15 2 15 16
M  V30 16 2 10 17
M  V30 17 1 17 18
M  V30 18 2 18 19
M  V30 19 1 18 20
M  V30 20 1 20 21
M  V30 21 1 7 22
M  V30 22 1 22 23
M  V30 23 1 22 24
M  V30 24 1 24 4
M  V30 25 1 20 8
M  V30 26 1 16 11
M  V30 27 1 1 25
M  V30 28 1 1 26
M  V30 29 1 1 27
M  V30 30 1 2 28
M  V30 31 1 3 29
M  V30 32 1 3 30
M  V30 33 1 3 31
M  V30 34 1 5 32
M  V30 35 1 5 33
M  V30 36 1 6 34
M  V30 37 1 6 35
M  V30 38 1 12 36
M  V30 39 1 13 37
M  V30 40 1 15 38
M  V30 41 1 17 39
M  V30 42 1 21 40
M  V30 43 1 21 41
M  V30 44 1 21 42
M  V30 45 1 22 43 CFG=3
M  V30 46 1 23 44
M  V30 47 1 23 45
M  V30 48 1 23 46
M  V30 49 1 24 47
M  V30 50 1 24 48
M  V30 END BOND
M  V30 END CTAB
M  END
>  <Dataset>  (812) 
ChEMBL_Kinases

>  <Ligand_Instance>  (812) 
nan

>  <PDB_ID>  (812) 
nan

>  <Standardized_SMILES>  (812) 
CC(C)N1CCN(c2nc(-c3ccncn3)cc(=O)n2C)[C@H](C)C1

>  <Name>  (812) 
nan

>  <Pocket>  (812) 
nan

>  <ATP_Site>  (812) 
nan

>  <Peripheral>  (812) 
nan

>  <Num_H_Atoms_ProtBoundConf>  (812) 
nan

>  <Num_Resolved_Atoms>  (812) 
nan

>  <Num_Not_Resolved_Atoms>  (812) 
nan

$$$$
CHEMBL4065624
     RDKit          3D

  0  0  0  0  0  0  0  0  0  0999 V3000
M  V30 BEGIN CTAB
M  V30 COUNTS 50 53 0 0 0
M  V30 BEGIN ATOM
M  V30 1 C -0.253506 -4.122901 2.457044 0
M  V30 2 O 0.437455 -3.435157 1.458900 0
M  V30 3 C 1.753036 -3.021353 1.517900 0
M  V30 4 C 2.545206 -3.258747 2.622042 0
M  V30 5 C 3.868220 -2.814061 2.618624 0
M  V30 6 C 4.431503 -2.142459 1.558004 0
M  V30 7 C 3.631575 -1.908692 0.456126 0
M  V30 8 C 2.320277 -2.341117 0.441200 0
M  V30 9 C 1.433516 -2.088895 -0.757779 0
M  V30 10 C 0.839602 -0.743094 -0.548361 0
M  V30 11 N -0.425698 -0.528533 -1.246234 0
M  V30 12 C -1.287690 0.440319 -0.680487 0
M  V30 13 N -0.755944 1.134441 0.354669 0
M  V30 14 C -1.448293 2.095685 1.010039 0
M  V30 15 C -0.796146 2.795433 2.111490 0
M  V30 16 C 0.493661 2.511379 2.502797 0
M  V30 17 C 1.151961 3.146990 3.539223 0
M  V30 18 N 0.497283 4.119623 4.228407 0
M  V30 19 C -0.761970 4.397134 3.846158 0
M  V30 20 N -1.404154 3.763732 2.820950 0
M  V30 21 C -2.731085 2.379579 0.616583 0
M  V30 22 C -3.305725 1.696777 -0.428959 0
M  V30 23 O -4.476120 1.911132 -0.835025 0
M  V30 24 N -2.543123 0.762158 -1.017005 0
M  V30 25 C -3.142044 0.022666 -2.108034 0
M  V30 26 C -0.410575 -1.395147 -2.363531 0
M  V30 27 C -0.628225 -2.800622 -1.787395 0
M  V30 28 N 0.423892 -3.119897 -0.855624 0
M  V30 29 H 0.365145 -4.679019 3.174340 0
M  V30 30 H -0.884392 -3.420771 3.039982 0
M  V30 31 H -0.923574 -4.867595 1.977422 0
M  V30 32 H 2.166419 -3.781106 3.490215 0
M  V30 33 H 4.473140 -3.018389 3.511718 0
M  V30 34 H 5.456156 -1.815202 1.593725 0
M  V30 35 H 4.057667 -1.372836 -0.406023 0
M  V30 36 H 2.043600 -2.108214 -1.658968 0
M  V30 37 H 1.559008 0.010403 -0.972010 0
M  V30 38 H 0.696439 -0.478968 0.518546 0
M  V30 39 H 1.047218 1.741237 1.975801 0
M  V30 40 H 2.164041 2.919793 3.841967 0
M  V30 41 H -1.367198 5.157520 4.334073 0
M  V30 42 H -3.314398 3.139142 1.114423 0
M  V30 43 H -3.076539 -1.062847 -1.931357 0
M  V30 44 H -2.793799 0.395010 -3.067195 0
M  V30 45 H -4.265114 0.210108 -2.115138 0
M  V30 46 H 0.599255 -1.453741 -2.886927 0
M  V30 47 H -1.126981 -1.224036 -3.166348 0
M  V30 48 H -0.692543 -3.572840 -2.555713 0
M  V30 49 H -1.569178 -2.757862 -1.179860 0
M  V30 50 H 0.830260 -4.057597 -0.995130 0
M  V30 END ATOM
M  V30 BEGIN BOND
M  V30 1 1 1 2
M  V30 2 1 2 3
M  V30 3 2 3 4
M  V30 4 1 4 5
M  V30 5 2 5 6
M  V30 6 1 6 7
M  V30 7 2 7 8
M  V30 8 1 8 9
M  V30 9 1 9 10
M  V30 10 1 10 11
M  V30 11 1 11 12
M  V30 12 2 12 13
M  V30 13 1 13 14
M  V30 14 1 14 15
M  V30 15 2 15 16
M  V30 16 1 16 17
M  V30 17 2 17 18
M  V30 18 1 18 19
M  V30 19 2 19 20
M  V30 20 2 14 21
M  V30 21 1 21 22
M  V30 22 2 22 23
M  V30 23 1 22 24
M  V30 24 1 24 25
M  V30 25 1 11 26
M  V30 26 1 26 27
M  V30 27 1 27 28
M  V30 28 1 8 3
M  V30 29 1 28 9
M  V30 30 1 24 12
M  V30 31 1 20 15
M  V30 32 1 1 29
M  V30 33 1 1 30
M  V30 34 1 1 31
M  V30 35 1 4 32
M  V30 36 1 5 33
M  V30 37 1 6 34
M  V30 38 1 7 35
M  V30 39 1 9 36
M  V30 40 1 10 37
M  V30 41 1 10 38
M  V30 42 1 16 39
M  V30 43 1 17 40
M  V30 44 1 19 41
M  V30 45 1 21 42
M  V30 46 1 25 43
M  V30 47 1 25 44
M  V30 48 1 25 45
M  V30 49 1 26 46
M  V30 50 1 26 47
M  V30 51 1 27 48
M  V30 52 1 27 49
M  V30 53 1 28 50
M  V30 END BOND
M  V30 END CTAB
M  END
>  <Dataset>  (813) 
ChEMBL_Kinases

>  <Ligand_Instance>  (813) 
nan

>  <PDB_ID>  (813) 
nan

>  <Standardized_SMILES>  (813) 
COc1ccccc1C1CN(c2nc(-c3ccncn3)cc(=O)n2C)CCN1

>  <Name>  (813) 
nan

>  <Pocket>  (813) 
nan

>  <ATP_Site>  (813) 
nan

>  <Peripheral>  (813) 
nan

>  <Num_H_Atoms_ProtBoundConf>  (813) 
nan

>  <Num_Resolved_Atoms>  (813) 
nan

>  <Num_Not_Resolved_Atoms>  (813) 
nan

$$$$
CHEMBL4861358
     RDKit          3D

  0  0  0  0  0  0  0  0  0  0999 V3000
M  V30 BEGIN CTAB
M  V30 COUNTS 59 63 0 0 0
M  V30 BEGIN ATOM
M  V30 1 O 2.758344 -3.002327 4.669869 0
M  V30 2 C 2.487298 -3.179257 3.306939 0
M  V30 3 C 1.383934 -2.277024 2.857433 0 CFG=1
M  V30 4 O 1.080932 -2.427004 1.493196 0
M  V30 5 C 1.217075 -1.245888 0.775628 0 CFG=1
M  V30 6 C 2.341158 -1.260503 -0.227647 0
M  V30 7 C 2.735708 0.185975 -0.435980 0
M  V30 8 C 1.442604 1.005058 -0.442462 0
M  V30 9 N 0.302873 0.244322 -0.854352 0
M  V30 10 C -0.838381 0.966811 -1.270330 0
M  V30 11 C -0.545143 2.047012 -2.195936 0
M  V30 12 C -0.654041 1.837658 -3.578390 0
M  V30 13 C -0.372096 2.823392 -4.498465 0
M  V30 14 C 0.032191 4.069340 -4.075119 0
M  V30 15 C 0.146283 4.303517 -2.723336 0
M  V30 16 N 0.497541 5.381787 -1.960782 0
M  V30 17 O 0.436467 5.084259 -0.700594 0
M  V30 18 N 0.063092 3.856585 -0.519514 0
M  V30 19 C -0.132789 3.319336 -1.764376 0
M  V30 20 C -0.036631 -0.752518 0.172684 0 CFG=1
M  V30 21 C -1.005738 -1.746841 -0.239710 0
M  V30 22 C -2.366411 -1.600977 -0.374563 0
M  V30 23 C -3.250331 -2.572179 -0.794239 0
M  V30 24 C -2.726639 -3.821214 -1.113610 0
M  V30 25 C -1.372312 -4.010221 -0.992571 0
M  V30 26 C -0.524486 -3.017771 -0.571226 0
M  V30 27 C 0.112842 -2.547635 3.629169 0
M  V30 28 C -0.664262 -3.644561 3.322244 0
M  V30 29 C -1.820210 -3.835727 4.054581 0
M  V30 30 Cl -2.840447 -5.222019 3.697081 0
M  V30 31 C -2.148351 -2.933028 5.052321 0
M  V30 32 C -1.381296 -1.838779 5.364773 0
M  V30 33 Cl -1.808124 -0.695913 6.634151 0
M  V30 34 C -0.230030 -1.642072 4.640883 0
M  V30 35 H 3.324892 -2.177333 4.747532 0
M  V30 36 H 3.437319 -2.992668 2.783056 0
M  V30 37 H 2.248675 -4.254137 3.188774 0
M  V30 38 H 1.689910 -1.226225 3.037611 0
M  V30 39 H 1.546631 -0.490497 1.551826 0
M  V30 40 H 3.193070 -1.868582 0.146492 0
M  V30 41 H 2.066175 -1.664703 -1.218011 0
M  V30 42 H 3.272622 0.288353 -1.390333 0
M  V30 43 H 3.391296 0.526837 0.413663 0
M  V30 44 H 1.640892 1.768776 -1.241977 0
M  V30 45 H 1.318934 1.558887 0.499591 0
M  V30 46 H -1.492816 0.228863 -1.834985 0
M  V30 47 H -1.491643 1.309272 -0.436868 0
M  V30 48 H -0.971648 0.856744 -3.918285 0
M  V30 49 H -0.450220 2.678284 -5.567839 0
M  V30 50 H 0.271883 4.898178 -4.757053 0
M  V30 51 H -0.559251 -0.117645 0.963434 0
M  V30 52 H -2.813123 -0.649599 -0.122470 0
M  V30 53 H -4.319865 -2.364094 -0.870525 0
M  V30 54 H -3.425584 -4.577982 -1.440447 0
M  V30 55 H -1.070627 -5.017836 -1.265608 0
M  V30 56 H 0.498088 -3.359196 -0.545986 0
M  V30 57 H -0.334761 -4.305741 2.523056 0
M  V30 58 H -3.071691 -3.114258 5.616160 0
M  V30 59 H 0.449084 -0.800227 4.810989 0
M  V30 END ATOM
M  V30 BEGIN BOND
M  V30 1 1 1 2
M  V30 2 1 2 3
M  V30 3 1 3 4
M  V30 4 1 4 5
M  V30 5 1 5 6
M  V30 6 1 6 7
M  V30 7 1 7 8
M  V30 8 1 8 9
M  V30 9 1 9 10
M  V30 10 1 10 11
M  V30 11 2 11 12
M  V30 12 1 12 13
M  V30 13 2 13 14
M  V30 14 1 14 15
M  V30 15 2 15 16
M  V30 16 1 16 17
M  V30 17 1 17 18
M  V30 18 2 18 19
M  V30 19 1 9 20
M  V30 20 1 20 21
M  V30 21 2 21 22
M  V30 22 1 22 23
M  V30 23 2 23 24
M  V30 24 1 24 25
M  V30 25 2 25 26
M  V30 26 1 3 27
M  V30 27 2 27 28
M  V30 28 1 28 29
M  V30 29 1 29 30
M  V30 30 2 29 31
M  V30 31 1 31 32
M  V30 32 1 32 33
M  V30 33 2 32 34
M  V30 34 1 20 5
M  V30 35 1 26 21
M  V30 36 1 34 27
M  V30 37 1 19 11
M  V30 38 1 19 15
M  V30 39 1 1 35
M  V30 40 1 2 36
M  V30 41 1 2 37
M  V30 42 1 3 38 CFG=3
M  V30 43 1 5 39 CFG=1
M  V30 44 1 6 40
M  V30 45 1 6 41
M  V30 46 1 7 42
M  V30 47 1 7 43
M  V30 48 1 8 44
M  V30 49 1 8 45
M  V30 50 1 10 46
M  V30 51 1 10 47
M  V30 52 1 12 48
M  V30 53 1 13 49
M  V30 54 1 14 50
M  V30 55 1 20 51 CFG=1
M  V30 56 1 22 52
M  V30 57 1 23 53
M  V30 58 1 24 54
M  V30 59 1 25 55
M  V30 60 1 26 56
M  V30 61 1 28 57
M  V30 62 1 31 58
M  V30 63 1 34 59
M  V30 END BOND
M  V30 END CTAB
M  END
>  <Dataset>  (814) 
ChEMBL_Kinases

>  <Ligand_Instance>  (814) 
nan

>  <PDB_ID>  (814) 
nan

>  <Standardized_SMILES>  (814) 
OC[C@@H](O[C@H]1CCCN(Cc2cccc3nonc23)[C@H]1c1ccccc1)c1cc(Cl)cc(Cl)c1

>  <Name>  (814) 
nan

>  <Pocket>  (814) 
nan

>  <ATP_Site>  (814) 
nan

>  <Peripheral>  (814) 
nan

>  <Num_H_Atoms_ProtBoundConf>  (814) 
nan

>  <Num_Resolved_Atoms>  (814) 
nan

>  <Num_Not_Resolved_Atoms>  (814) 
nan

$$$$
CHEMBL4065531
     RDKit          3D

  0  0  0  0  0  0  0  0  0  0999 V3000
M  V30 BEGIN CTAB
M  V30 COUNTS 63 67 0 0 0
M  V30 BEGIN ATOM
M  V30 1 C 0.181722 -2.180878 8.606349 0
M  V30 2 O 1.515190 -1.659974 8.551593 0
M  V30 3 C 2.021535 -1.324204 7.301130 0
M  V30 4 C 3.317336 -0.809885 7.173763 0
M  V30 5 C 3.785237 -0.487208 5.900491 0
M  V30 6 C 2.991447 -0.669243 4.788954 0
M  V30 7 C 1.711358 -1.172460 4.870450 0
M  V30 8 C 0.810795 -1.400903 3.745402 0
M  V30 9 C 1.216668 -1.117494 2.457056 0
M  V30 10 C 0.295799 -1.372670 1.440786 0
M  V30 11 N 0.655398 -1.109639 0.091715 0
M  V30 12 C 0.298272 -0.047092 -0.645098 0
M  V30 13 C 0.819869 -0.107604 -1.914330 0
M  V30 14 C 0.823277 0.702666 -3.149859 0
M  V30 15 N 0.027059 1.826282 -3.185225 0
M  V30 16 C -1.286361 1.978453 -3.543891 0
M  V30 17 C -2.432486 1.400445 -2.764480 0
M  V30 18 C -2.405739 -0.066195 -2.745973 0
M  V30 19 C -3.540230 -0.791396 -3.426407 0
M  V30 20 C -4.836105 -0.118489 -3.146655 0
M  V30 21 C -4.808569 1.319825 -3.661804 0
M  V30 22 C -3.717360 2.102216 -3.025072 0
M  V30 23 C 1.545649 -1.293121 -1.947656 0
M  V30 24 C 2.316494 -2.004074 -2.842396 0
M  V30 25 C 2.937478 -3.205886 -2.572372 0
M  V30 26 C 2.791148 -3.762642 -1.312575 0
M  V30 27 C 2.023678 -3.067038 -0.403532 0
M  V30 28 C 1.419826 -1.878500 -0.697909 0
M  V30 29 C -0.970125 -1.880180 1.639649 0
M  V30 30 C -1.294989 -2.136541 2.975241 0
M  V30 31 N -0.425935 -1.899865 3.972436 0
M  V30 32 C 1.287683 -1.479359 6.153392 0
M  V30 33 H 0.028103 -3.040291 7.939063 0
M  V30 34 H -0.149448 -2.379667 9.624824 0
M  V30 35 H -0.478844 -1.372166 8.176052 0
M  V30 36 H 3.885847 -0.693086 8.087609 0
M  V30 37 H 4.787614 -0.090525 5.816198 0
M  V30 38 H 3.372877 -0.413169 3.819283 0
M  V30 39 H 2.187757 -0.718769 2.206038 0
M  V30 40 H -0.312104 0.806590 -0.388946 0
M  V30 41 H 1.908945 1.044407 -3.255591 0
M  V30 42 H 0.687732 0.063865 -4.061285 0
M  V30 43 H 0.547383 2.722486 -2.948021 0
M  V30 44 H -1.413227 1.690253 -4.658152 0
M  V30 45 H -1.497190 3.105487 -3.633651 0
M  V30 46 H -2.180826 1.700592 -1.658847 0
M  V30 47 H -1.500693 -0.390910 -3.352373 0
M  V30 48 H -2.262825 -0.518793 -1.733819 0
M  V30 49 H -3.585585 -1.813950 -2.995738 0
M  V30 50 H -3.352506 -0.851103 -4.533668 0
M  V30 51 H -5.041032 -0.075870 -2.075360 0
M  V30 52 H -5.622610 -0.635823 -3.738691 0
M  V30 53 H -5.789060 1.766167 -3.388805 0
M  V30 54 H -4.802105 1.329299 -4.780356 0
M  V30 55 H -3.519987 2.993825 -3.666836 0
M  V30 56 H -4.136510 2.500487 -2.052827 0
M  V30 57 H 2.439525 -1.578768 -3.829599 0
M  V30 58 H 3.526657 -3.664646 -3.381211 0
M  V30 59 H 3.270984 -4.693959 -1.094685 0
M  V30 60 H 1.926463 -3.524593 0.571498 0
M  V30 61 H -1.656167 -2.065654 0.830272 0
M  V30 62 H -2.291542 -2.543656 3.216317 0
M  V30 63 H 0.291887 -1.877975 6.278425 0
M  V30 END ATOM
M  V30 BEGIN BOND
M  V30 1 1 1 2
M  V30 2 1 2 3
M  V30 3 2 3 4
M  V30 4 1 4 5
M  V30 5 2 5 6
M  V30 6 1 6 7
M  V30 7 1 7 8
M  V30 8 2 8 9
M  V30 9 1 9 10
M  V30 10 1 10 11
M  V30 11 1 11 12
M  V30 12 2 12 13
M  V30 13 1 13 14
M  V30 14 1 14 15
M  V30 15 1 15 16
M  V30 16 1 16 17
M  V30 17 1 17 18
M  V30 18 1 18 19
M  V30 19 1 19 20
M  V30 20 1 20 21
M  V30 21 1 21 22
M  V30 22 1 13 23
M  V30 23 2 23 24
M  V30 24 1 24 25
M  V30 25 2 25 26
M  V30 26 1 26 27
M  V30 27 2 27 28
M  V30 28 2 10 29
M  V30 29 1 29 30
M  V30 30 2 30 31
M  V30 31 2 7 32
M  V30 32 1 32 3
M  V30 33 1 31 8
M  V30 34 1 28 11
M  V30 35 1 22 17
M  V30 36 1 28 23
M  V30 37 1 1 33
M  V30 38 1 1 34
M  V30 39 1 1 35
M  V30 40 1 4 36
M  V30 41 1 5 37
M  V30 42 1 6 38
M  V30 43 1 9 39
M  V30 44 1 12 40
M  V30 45 1 14 41
M  V30 46 1 14 42
M  V30 47 1 15 43
M  V30 48 1 16 44
M  V30 49 1 16 45
M  V30 50 1 17 46
M  V30 51 1 18 47
M  V30 52 1 18 48
M  V30 53 1 19 49
M  V30 54 1 19 50
M  V30 55 1 20 51
M  V30 56 1 20 52
M  V30 57 1 21 53
M  V30 58 1 21 54
M  V30 59 1 22 55
M  V30 60 1 22 56
M  V30 61 1 24 57
M  V30 62 1 25 58
M  V30 63 1 26 59
M  V30 64 1 27 60
M  V30 65 1 29 61
M  V30 66 1 30 62
M  V30 67 1 32 63
M  V30 END BOND
M  V30 END CTAB
M  END
>  <Dataset>  (815) 
ChEMBL_Kinases

>  <Ligand_Instance>  (815) 
nan

>  <PDB_ID>  (815) 
nan

>  <Standardized_SMILES>  (815) 
COc1cccc(-c2cc(-n3cc(CNCC4CCCCC4)c4ccccc43)ccn2)c1

>  <Name>  (815) 
nan

>  <Pocket>  (815) 
nan

>  <ATP_Site>  (815) 
nan

>  <Peripheral>  (815) 
nan

>  <Num_H_Atoms_ProtBoundConf>  (815) 
nan

>  <Num_Resolved_Atoms>  (815) 
nan

>  <Num_Not_Resolved_Atoms>  (815) 
nan

$$$$
CHEMBL4065525
     RDKit          3D

  0  0  0  0  0  0  0  0  0  0999 V3000
M  V30 BEGIN CTAB
M  V30 COUNTS 54 57 0 0 0
M  V30 BEGIN ATOM
M  V30 1 C -0.515954 -3.366976 3.827025 0
M  V30 2 C -0.097879 -1.897746 3.842638 0
M  V30 3 C -0.979065 -1.232667 4.875914 0
M  V30 4 O 1.260624 -1.722547 4.082446 0
M  V30 5 C 2.190105 -1.121892 3.283198 0
M  V30 6 C 3.463788 -1.121375 3.840271 0
M  V30 7 C 4.548089 -0.557033 3.182163 0
M  V30 8 C 4.401660 0.033490 1.931933 0
M  V30 9 N 5.153279 0.656102 1.009323 0
M  V30 10 N 4.411873 1.010029 -0.027416 0
M  V30 11 C 3.133494 0.635707 0.164913 0
M  V30 12 C 2.070436 0.883712 -0.802495 0
M  V30 13 C 2.007860 2.145183 -1.379786 0
M  V30 14 C 1.016578 2.398195 -2.291963 0
M  V30 15 N 0.125682 1.428114 -2.612169 0
M  V30 16 C 0.169289 0.207254 -2.067125 0
M  V30 17 N -0.825205 -0.711614 -2.493208 0
M  V30 18 C -1.810950 -0.297171 -3.472766 0
M  V30 19 C -3.133397 -0.305853 -2.760924 0
M  V30 20 N -3.389033 -1.446657 -1.965765 0
M  V30 21 S -4.360764 -1.239144 -0.599144 0
M  V30 22 C -3.676684 -0.114270 0.587282 0
M  V30 23 O -5.773455 -0.832613 -0.933481 0
M  V30 24 O -4.480914 -2.589481 0.087959 0
M  V30 25 C -2.425223 -2.477305 -1.930951 0
M  V30 26 C -0.994882 -2.082411 -2.054438 0
M  V30 27 C 1.146893 -0.093425 -1.146162 0
M  V30 28 C 3.130718 0.021311 1.399164 0
M  V30 29 C 2.045246 -0.535864 2.042552 0
M  V30 30 H -0.025194 -3.932437 3.029766 0
M  V30 31 H -1.623876 -3.340503 3.616773 0
M  V30 32 H -0.392868 -3.768049 4.848327 0
M  V30 33 H -0.356107 -1.458384 2.857873 0
M  V30 34 H -0.645168 -1.635130 5.865187 0
M  V30 35 H -0.830541 -0.141226 4.921473 0
M  V30 36 H -2.019437 -1.562477 4.748402 0
M  V30 37 H 3.729554 -1.541847 4.801215 0
M  V30 38 H 5.557896 -0.537482 3.585295 0
M  V30 39 H 6.174889 0.811225 1.145425 0
M  V30 40 H 2.707318 2.922503 -1.135528 0
M  V30 41 H 0.937888 3.369262 -2.761213 0
M  V30 42 H -1.828532 -1.063590 -4.267288 0
M  V30 43 H -1.608621 0.713316 -3.869947 0
M  V30 44 H -3.943548 -0.117985 -3.517581 0
M  V30 45 H -3.146236 0.595067 -2.088427 0
M  V30 46 H -2.911228 0.553037 0.128666 0
M  V30 47 H -3.280341 -0.649927 1.474468 0
M  V30 48 H -4.495576 0.521793 0.964677 0
M  V30 49 H -2.524688 -2.981721 -0.924501 0
M  V30 50 H -2.703197 -3.276428 -2.652053 0
M  V30 51 H -0.395344 -2.279589 -1.117905 0
M  V30 52 H -0.517897 -2.768896 -2.814457 0
M  V30 53 H 1.185835 -1.060347 -0.710669 0
M  V30 54 H 1.033769 -0.566692 1.661730 0
M  V30 END ATOM
M  V30 BEGIN BOND
M  V30 1 1 1 2
M  V30 2 1 2 3
M  V30 3 1 2 4
M  V30 4 1 4 5
M  V30 5 2 5 6
M  V30 6 1 6 7
M  V30 7 2 7 8
M  V30 8 1 8 9
M  V30 9 1 9 10
M  V30 10 2 10 11
M  V30 11 1 11 12
M  V30 12 2 12 13
M  V30 13 1 13 14
M  V30 14 2 14 15
M  V30 15 1 15 16
M  V30 16 1 16 17
M  V30 17 1 17 18
M  V30 18 1 18 19
M  V30 19 1 19 20
M  V30 20 1 20 21
M  V30 21 1 21 22
M  V30 22 2 21 23
M  V30 23 2 21 24
M  V30 24 1 20 25
M  V30 25 1 25 26
M  V30 26 2 16 27
M  V30 27 1 11 28
M  V30 28 2 28 29
M  V30 29 1 29 5
M  V30 30 1 28 8
M  V30 31 1 27 12
M  V30 32 1 26 17
M  V30 33 1 1 30
M  V30 34 1 1 31
M  V30 35 1 1 32
M  V30 36 1 2 33
M  V30 37 1 3 34
M  V30 38 1 3 35
M  V30 39 1 3 36
M  V30 40 1 6 37
M  V30 41 1 7 38
M  V30 42 1 9 39
M  V30 43 1 13 40
M  V30 44 1 14 41
M  V30 45 1 18 42
M  V30 46 1 18 43
M  V30 47 1 19 44
M  V30 48 1 19 45
M  V30 49 1 22 46
M  V30 50 1 22 47
M  V30 51 1 22 48
M  V30 52 1 25 49
M  V30 53 1 25 50
M  V30 54 1 26 51
M  V30 55 1 26 52
M  V30 56 1 27 53
M  V30 57 1 29 54
M  V30 END BOND
M  V30 END CTAB
M  END
>  <Dataset>  (816) 
ChEMBL_Kinases

>  <Ligand_Instance>  (816) 
nan

>  <PDB_ID>  (816) 
nan

>  <Standardized_SMILES>  (816) 
CC(C)Oc1ccc2[nH]nc(-c3ccnc(N4CCN(S(C)(=O)=O)CC4)c3)c2c1

>  <Name>  (816) 
nan

>  <Pocket>  (816) 
nan

>  <ATP_Site>  (816) 
nan

>  <Peripheral>  (816) 
nan

>  <Num_H_Atoms_ProtBoundConf>  (816) 
nan

>  <Num_Resolved_Atoms>  (816) 
nan

>  <Num_Not_Resolved_Atoms>  (816) 
nan

$$$$
CHEMBL4861363
     RDKit          3D

  0  0  0  0  0  0  0  0  0  0999 V3000
M  V30 BEGIN CTAB
M  V30 COUNTS 66 69 0 0 0
M  V30 BEGIN ATOM
M  V30 1 C 5.518475 -2.871533 0.572043 0
M  V30 2 C 6.436455 -1.676880 0.512984 0
M  V30 3 O 6.039886 -0.712478 -0.445447 0
M  V30 4 C 4.834919 -0.062587 -0.417696 0
M  V30 5 C 3.864601 -0.261055 0.535653 0
M  V30 6 C 2.642367 0.383442 0.582544 0
M  V30 7 C 2.338120 1.314943 -0.399954 0
M  V30 8 O 1.164760 2.032598 -0.483782 0
M  V30 9 C 0.091942 1.675806 0.297628 0
M  V30 10 C -0.323592 2.545395 1.284308 0
M  V30 11 C -1.407532 2.154462 2.046162 0
M  V30 12 S -1.974034 3.196810 3.295620 0
M  V30 13 O -0.786896 3.983502 3.824573 0
M  V30 14 O -2.487630 2.385760 4.449668 0
M  V30 15 N -3.188207 4.285231 2.799293 0
M  V30 16 C -2.642548 5.145055 1.765436 0
M  V30 17 C -3.799272 5.014643 3.857085 0
M  V30 18 C -2.090162 0.967195 1.884146 0
M  V30 19 N -1.628340 0.150778 0.888870 0
M  V30 20 C -0.570375 0.485756 0.112795 0
M  V30 21 N -0.330419 -0.550703 -0.863521 0
M  V30 22 C 0.624485 -1.585252 -1.208451 0
M  V30 23 C -0.132532 -2.744932 -1.798741 0
M  V30 24 C -1.480529 -2.877523 -1.103777 0
M  V30 25 O -2.123271 -4.067547 -1.408964 0
M  V30 26 C -2.482184 -4.963902 -0.422430 0
M  V30 27 C -2.353840 -4.991750 0.947996 0
M  V30 28 C -2.824901 -6.051895 1.669873 0
M  V30 29 C -3.446871 -7.142645 1.095451 0
M  V30 30 Cl -4.004638 -8.433671 2.134293 0
M  V30 31 C -3.583607 -7.131066 -0.275503 0
M  V30 32 C -3.108460 -6.055520 -1.037850 0
M  V30 33 C -2.349110 -1.674508 -1.493631 0
M  V30 34 C -1.433881 -0.520998 -1.840503 0
M  V30 35 C 3.302195 1.540974 -1.384300 0
M  V30 36 C 4.522654 0.860300 -1.383491 0
M  V30 37 H 6.057590 -3.791753 0.232007 0
M  V30 38 H 4.658829 -2.777071 -0.123594 0
M  V30 39 H 5.208934 -3.049292 1.615835 0
M  V30 40 H 7.469645 -2.014770 0.330025 0
M  V30 41 H 6.460784 -1.185731 1.518974 0
M  V30 42 H 4.036195 -0.974767 1.331313 0
M  V30 43 H 1.892454 0.210367 1.342603 0
M  V30 44 H 0.205872 3.465753 1.409073 0
M  V30 45 H -2.986065 6.194978 1.867211 0
M  V30 46 H -3.060095 4.805723 0.779467 0
M  V30 47 H -1.534664 5.086442 1.691670 0
M  V30 48 H -3.717612 4.429069 4.818665 0
M  V30 49 H -3.155818 5.920037 4.061710 0
M  V30 50 H -4.799050 5.389970 3.655039 0
M  V30 51 H -2.936207 0.677269 2.491670 0
M  V30 52 H 1.272983 -1.899303 -0.369025 0
M  V30 53 H 1.288676 -1.180166 -1.998517 0
M  V30 54 H -0.320253 -2.612481 -2.876348 0
M  V30 55 H 0.432197 -3.692425 -1.641342 0
M  V30 56 H -1.268053 -2.723527 -0.027595 0
M  V30 57 H -1.859512 -4.103753 1.304230 0
M  V30 58 H -2.657147 -5.944841 2.745012 0
M  V30 59 H -4.074402 -8.000384 -0.686675 0
M  V30 60 H -3.308749 -6.228994 -2.104125 0
M  V30 61 H -2.966099 -1.370408 -0.628718 0
M  V30 62 H -2.949087 -2.001396 -2.366441 0
M  V30 63 H -1.024540 -0.731837 -2.860265 0
M  V30 64 H -1.979103 0.446697 -1.840437 0
M  V30 65 H 3.088784 2.265246 -2.164489 0
M  V30 66 H 5.252267 1.070840 -2.178073 0
M  V30 END ATOM
M  V30 BEGIN BOND
M  V30 1 1 1 2
M  V30 2 1 2 3
M  V30 3 1 3 4
M  V30 4 2 4 5
M  V30 5 1 5 6
M  V30 6 2 6 7
M  V30 7 1 7 8
M  V30 8 1 8 9
M  V30 9 2 9 10
M  V30 10 1 10 11
M  V30 11 1 11 12
M  V30 12 2 12 13
M  V30 13 2 12 14
M  V30 14 1 12 15
M  V30 15 1 15 16
M  V30 16 1 15 17
M  V30 17 2 11 18
M  V30 18 1 18 19
M  V30 19 2 19 20
M  V30 20 1 20 21
M  V30 21 1 21 22
M  V30 22 1 22 23
M  V30 23 1 23 24
M  V30 24 1 24 25
M  V30 25 1 25 26
M  V30 26 2 26 27
M  V30 27 1 27 28
M  V30 28 2 28 29
M  V30 29 1 29 30
M  V30 30 1 29 31
M  V30 31 2 31 32
M  V30 32 1 24 33
M  V30 33 1 33 34
M  V30 34 1 7 35
M  V30 35 2 35 36
M  V30 36 1 36 4
M  V30 37 1 20 9
M  V30 38 1 34 21
M  V30 39 1 32 26
M  V30 40 1 1 37
M  V30 41 1 1 38
M  V30 42 1 1 39
M  V30 43 1 2 40
M  V30 44 1 2 41
M  V30 45 1 5 42
M  V30 46 1 6 43
M  V30 47 1 10 44
M  V30 48 1 16 45
M  V30 49 1 16 46
M  V30 50 1 16 47
M  V30 51 1 17 48
M  V30 52 1 17 49
M  V30 53 1 17 50
M  V30 54 1 18 51
M  V30 55 1 22 52
M  V30 56 1 22 53
M  V30 57 1 23 54
M  V30 58 1 23 55
M  V30 59 1 24 56
M  V30 60 1 27 57
M  V30 61 1 28 58
M  V30 62 1 31 59
M  V30 63 1 32 60
M  V30 64 1 33 61
M  V30 65 1 33 62
M  V30 66 1 34 63
M  V30 67 1 34 64
M  V30 68 1 35 65
M  V30 69 1 36 66
M  V30 END BOND
M  V30 END CTAB
M  END
>  <Dataset>  (817) 
ChEMBL_Kinases

>  <Ligand_Instance>  (817) 
nan

>  <PDB_ID>  (817) 
nan

>  <Standardized_SMILES>  (817) 
CCOc1ccc(Oc2cc(S(=O)(=O)N(C)C)cnc2N2CCC(Oc3ccc(Cl)cc3)CC2)cc1

>  <Name>  (817) 
nan

>  <Pocket>  (817) 
nan

>  <ATP_Site>  (817) 
nan

>  <Peripheral>  (817) 
nan

>  <Num_H_Atoms_ProtBoundConf>  (817) 
nan

>  <Num_Resolved_Atoms>  (817) 
nan

>  <Num_Not_Resolved_Atoms>  (817) 
nan

$$$$
CHEMBL4861383
     RDKit          3D

  0  0  0  0  0  0  0  0  0  0999 V3000
M  V30 BEGIN CTAB
M  V30 COUNTS 73 78 0 0 0
M  V30 BEGIN ATOM
M  V30 1 C 5.270637 -1.509235 1.312200 0
M  V30 2 C 6.364648 -1.362735 0.572719 0
M  V30 3 C 6.338067 0.058928 0.083960 0
M  V30 4 N 5.183256 0.749953 0.564535 0
M  V30 5 C 4.989563 1.468237 1.673648 0
M  V30 6 O 5.858014 1.680718 2.558741 0
M  V30 7 C 3.702415 1.936553 1.698567 0
M  V30 8 C 2.974352 2.708820 2.578579 0
M  V30 9 N 1.674668 2.990652 2.278432 0
M  V30 10 C 1.121761 2.512688 1.130570 0
M  V30 11 N -0.215883 2.731249 0.701116 0
M  V30 12 C -1.207305 1.791459 1.102674 0
M  V30 13 C -0.841369 0.720872 1.891857 0
M  V30 14 C -1.817627 -0.196141 2.279534 0
M  V30 15 C -3.150819 -0.047282 1.882837 0
M  V30 16 N -4.038986 -1.058342 2.350402 0
M  V30 17 C -5.229932 -0.970352 3.178524 0
M  V30 18 C -6.190335 -2.065678 2.763685 0
M  V30 19 N -6.030727 -2.428665 1.390218 0
M  V30 20 C -7.174527 -3.002886 0.759064 0
M  V30 21 C -4.777937 -3.022148 1.048070 0
M  V30 22 C -3.705740 -2.407825 1.936324 0
M  V30 23 C -3.473397 1.035137 1.095466 0
M  V30 24 C -4.885482 1.161798 0.695807 0
M  V30 25 C -2.518063 1.950033 0.704661 0
M  V30 26 N 1.853515 1.758364 0.283027 0
M  V30 27 C 3.144709 1.450988 0.534607 0
M  V30 28 N 4.053624 0.730724 -0.147464 0
M  V30 29 C 3.739109 0.104472 -1.402988 0
M  V30 30 C 4.219247 0.342995 -2.674096 0
M  V30 31 C 3.725404 -0.428059 -3.700960 0
M  V30 32 C 2.790395 -1.399681 -3.476886 0
M  V30 33 C 2.322525 -1.626846 -2.214651 0
M  V30 34 N 2.808225 -0.871787 -1.219417 0
M  V30 35 C 1.312201 -2.739371 -2.248645 0 CFG=2
M  V30 36 C -0.084909 -2.208122 -1.987016 0
M  V30 37 O 1.653976 -3.733753 -1.337732 0
M  V30 38 C 1.404194 -3.289516 -3.636147 0
M  V30 39 C 2.168180 -2.303730 -4.469764 0
M  V30 40 H 4.407332 -0.925902 1.647463 0
M  V30 41 H 4.402875 -1.766207 1.946471 0
M  V30 42 H 6.478244 -2.393862 0.867942 0
M  V30 43 H 6.378207 -0.014021 -1.022152 0
M  V30 44 H 7.278368 0.561909 0.384537 0
M  V30 45 H 3.406154 3.092148 3.492067 0
M  V30 46 H -0.464564 3.553532 0.110185 0
M  V30 47 H 0.192116 0.582627 2.214581 0
M  V30 48 H -1.511666 -1.043241 2.907553 0
M  V30 49 H -4.868731 -1.222486 4.217106 0
M  V30 50 H -5.703281 0.028764 3.154150 0
M  V30 51 H -7.220563 -1.664731 2.876972 0
M  V30 52 H -6.085168 -2.965857 3.404258 0
M  V30 53 H -7.906096 -3.467417 1.449144 0
M  V30 54 H -6.874502 -3.743191 -0.010697 0
M  V30 55 H -7.698505 -2.181047 0.189437 0
M  V30 56 H -4.797698 -4.136112 1.166875 0
M  V30 57 H -4.583700 -2.851971 -0.031089 0
M  V30 58 H -2.713214 -2.514168 1.489411 0
M  V30 59 H -3.735997 -3.026190 2.878050 0
M  V30 60 H -4.989669 1.706693 -0.279900 0
M  V30 61 H -5.430242 0.219968 0.712919 0
M  V30 62 H -5.362925 1.831175 1.459792 0
M  V30 63 H -2.848388 2.783703 0.080620 0
M  V30 64 H 4.948675 1.141188 -2.670934 0
M  V30 65 H 4.158532 -0.173382 -4.671550 0
M  V30 66 H -0.560541 -1.932658 -2.953982 0
M  V30 67 H -0.663681 -3.036596 -1.510901 0
M  V30 68 H -0.070285 -1.305503 -1.335386 0
M  V30 69 H 1.521763 -4.636168 -1.702842 0
M  V30 70 H 1.922852 -4.276721 -3.675082 0
M  V30 71 H 0.386563 -3.377745 -4.091874 0
M  V30 72 H 1.541397 -1.754716 -5.191897 0
M  V30 73 H 2.977433 -2.809925 -5.072177 0
M  V30 END ATOM
M  V30 BEGIN BOND
M  V30 1 2 1 2
M  V30 2 1 2 3
M  V30 3 1 3 4
M  V30 4 1 4 5
M  V30 5 2 5 6
M  V30 6 1 5 7
M  V30 7 2 7 8
M  V30 8 1 8 9
M  V30 9 2 9 10
M  V30 10 1 10 11
M  V30 11 1 11 12
M  V30 12 2 12 13
M  V30 13 1 13 14
M  V30 14 2 14 15
M  V30 15 1 15 16
M  V30 16 1 16 17
M  V30 17 1 17 18
M  V30 18 1 18 19
M  V30 19 1 19 20
M  V30 20 1 19 21
M  V30 21 1 21 22
M  V30 22 1 15 23
M  V30 23 1 23 24
M  V30 24 2 23 25
M  V30 25 1 10 26
M  V30 26 2 26 27
M  V30 27 1 27 28
M  V30 28 1 28 29
M  V30 29 2 29 30
M  V30 30 1 30 31
M  V30 31 2 31 32
M  V30 32 1 32 33
M  V30 33 2 33 34
M  V30 34 1 33 35
M  V30 35 1 35 36
M  V30 36 1 35 37 CFG=1
M  V30 37 1 35 38
M  V30 38 1 38 39
M  V30 39 1 28 4
M  V30 40 1 34 29
M  V30 41 1 27 7
M  V30 42 1 39 32
M  V30 43 1 25 12
M  V30 44 1 22 16
M  V30 45 1 1 40
M  V30 46 1 1 41
M  V30 47 1 2 42
M  V30 48 1 3 43
M  V30 49 1 3 44
M  V30 50 1 8 45
M  V30 51 1 11 46
M  V30 52 1 13 47
M  V30 53 1 14 48
M  V30 54 1 17 49
M  V30 55 1 17 50
M  V30 56 1 18 51
M  V30 57 1 18 52
M  V30 58 1 20 53
M  V30 59 1 20 54
M  V30 60 1 20 55
M  V30 61 1 21 56
M  V30 62 1 21 57
M  V30 63 1 22 58
M  V30 64 1 22 59
M  V30 65 1 24 60
M  V30 66 1 24 61
M  V30 67 1 24 62
M  V30 68 1 25 63
M  V30 69 1 30 64
M  V30 70 1 31 65
M  V30 71 1 36 66
M  V30 72 1 36 67
M  V30 73 1 36 68
M  V30 74 1 37 69
M  V30 75 1 38 70
M  V30 76 1 38 71
M  V30 77 1 39 72
M  V30 78 1 39 73
M  V30 END BOND
M  V30 END CTAB
M  END
>  <Dataset>  (818) 
ChEMBL_Kinases

>  <Ligand_Instance>  (818) 
nan

>  <PDB_ID>  (818) 
nan

>  <Standardized_SMILES>  (818) 
C=CCn1c(=O)c2cnc(Nc3ccc(N4CCN(C)CC4)c(C)c3)nc2n1-c1ccc2c(n1)[C@](C)(O)CC2

>  <Name>  (818) 
nan

>  <Pocket>  (818) 
nan

>  <ATP_Site>  (818) 
nan

>  <Peripheral>  (818) 
nan

>  <Num_H_Atoms_ProtBoundConf>  (818) 
nan

>  <Num_Resolved_Atoms>  (818) 
nan

>  <Num_Not_Resolved_Atoms>  (818) 
nan

$$$$
CHEMBL4065469
     RDKit          3D

  0  0  0  0  0  0  0  0  0  0999 V3000
M  V30 BEGIN CTAB
M  V30 COUNTS 49 51 0 0 0
M  V30 BEGIN ATOM
M  V30 1 C 2.277343 -0.905481 5.551327 0
M  V30 2 O 1.602937 -1.157494 4.328346 0
M  V30 3 C 0.854717 -2.305605 4.119252 0
M  V30 4 O 0.696385 -3.218183 4.959914 0
M  V30 5 C 0.224311 -2.416730 2.811591 0
M  V30 6 C 0.211814 -1.640304 1.756770 0
M  V30 7 C -0.329289 -1.588255 0.445199 0
M  V30 8 C 0.034707 -0.552883 -0.426311 0
M  V30 9 C 0.938928 0.573278 -0.189691 0
M  V30 10 C 0.340573 1.721374 0.321361 0
M  V30 11 C 1.077346 2.857457 0.591157 0
M  V30 12 C 2.437167 2.797863 0.328737 0
M  V30 13 C 3.223702 4.021547 0.620540 0
M  V30 14 C 3.061450 1.681194 -0.175833 0
M  V30 15 C 2.308115 0.548778 -0.441391 0
M  V30 16 C -0.634725 -0.783269 -1.604795 0
M  V30 17 C -0.603186 -0.038708 -2.772745 0
M  V30 18 N 0.180025 1.141593 -2.910757 0
M  V30 19 N -1.359197 -0.480373 -3.803365 0
M  V30 20 C -2.099426 -1.596177 -3.672865 0
M  V30 21 N -2.110712 -2.297297 -2.529990 0
M  V30 22 C -1.381585 -1.926501 -1.443998 0
M  V30 23 N -1.182756 -2.409278 -0.173551 0
M  V30 24 C -1.900601 -3.611178 0.156040 0
M  V30 25 C -3.307199 -3.351849 0.607858 0
M  V30 26 C -3.479774 -2.510073 1.825291 0
M  V30 27 O -2.945028 -3.006509 2.981876 0
M  V30 28 H 3.001971 -0.109462 5.386296 0
M  V30 29 H 1.537187 -0.595760 6.309410 0
M  V30 30 H 2.856879 -1.807150 5.842353 0
M  V30 31 H -0.344058 -3.304681 2.611027 0
M  V30 32 H 0.834863 -0.821742 2.124627 0
M  V30 33 H -0.725924 1.765918 0.526403 0
M  V30 34 H 0.599402 3.741192 0.987602 0
M  V30 35 H 3.400816 4.048311 1.727884 0
M  V30 36 H 2.664054 4.922965 0.357038 0
M  V30 37 H 4.235344 3.970322 0.167306 0
M  V30 38 H 4.130348 1.646332 -0.377883 0
M  V30 39 H 2.718170 -0.382287 -0.842491 0
M  V30 40 H 1.192735 0.917167 -3.146684 0
M  V30 41 H 1.190854 1.283321 -3.134238 0
M  V30 42 H -2.717277 -1.965013 -4.502013 0
M  V30 43 H -1.917860 -4.304819 -0.759271 0
M  V30 44 H -1.431462 -4.257374 0.918264 0
M  V30 45 H -3.820063 -2.858965 -0.254959 0
M  V30 46 H -3.756730 -4.377098 0.779987 0
M  V30 47 H -4.567847 -2.320166 1.987694 0
M  V30 48 H -3.001094 -1.499003 1.661617 0
M  V30 49 H -3.623450 -3.346395 3.615663 0
M  V30 END ATOM
M  V30 BEGIN BOND
M  V30 1 1 1 2
M  V30 2 1 2 3
M  V30 3 2 3 4
M  V30 4 1 3 5
M  V30 5 2 5 6
M  V30 6 1 6 7
M  V30 7 2 7 8
M  V30 8 1 8 9
M  V30 9 2 9 10
M  V30 10 1 10 11
M  V30 11 2 11 12
M  V30 12 1 12 13
M  V30 13 1 12 14
M  V30 14 2 14 15
M  V30 15 1 8 16
M  V30 16 2 16 17
M  V30 17 1 17 18
M  V30 18 1 17 19
M  V30 19 2 19 20
M  V30 20 1 20 21
M  V30 21 2 21 22
M  V30 22 1 22 23
M  V30 23 1 23 24
M  V30 24 1 24 25
M  V30 25 1 25 26
M  V30 26 1 26 27
M  V30 27 1 23 7
M  V30 28 1 15 9
M  V30 29 1 22 16
M  V30 30 1 1 28
M  V30 31 1 1 29
M  V30 32 1 1 30
M  V30 33 1 5 31
M  V30 34 1 6 32
M  V30 35 1 10 33
M  V30 36 1 11 34
M  V30 37 1 13 35
M  V30 38 1 13 36
M  V30 39 1 13 37
M  V30 40 1 14 38
M  V30 41 1 15 39
M  V30 42 1 18 40
M  V30 43 1 18 41
M  V30 44 1 20 42
M  V30 45 1 24 43
M  V30 46 1 24 44
M  V30 47 1 25 45
M  V30 48 1 25 46
M  V30 49 1 26 47
M  V30 50 1 26 48
M  V30 51 1 27 49
M  V30 END BOND
M  V30 END CTAB
M  END
>  <Dataset>  (819) 
ChEMBL_Kinases

>  <Ligand_Instance>  (819) 
nan

>  <PDB_ID>  (819) 
nan

>  <Standardized_SMILES>  (819) 
COC(=O)/C=C/c1c(-c2ccc(C)cc2)c2c(N)ncnc2n1CCCO

>  <Name>  (819) 
nan

>  <Pocket>  (819) 
nan

>  <ATP_Site>  (819) 
nan

>  <Peripheral>  (819) 
nan

>  <Num_H_Atoms_ProtBoundConf>  (819) 
nan

>  <Num_Resolved_Atoms>  (819) 
nan

>  <Num_Not_Resolved_Atoms>  (819) 
nan

$$$$
CHEMBL4861396
     RDKit          3D

  0  0  0  0  0  0  0  0  0  0999 V3000
M  V30 BEGIN CTAB
M  V30 COUNTS 30 32 0 0 0
M  V30 BEGIN ATOM
M  V30 1 C -1.451496 -2.690562 2.841286 0
M  V30 2 N -0.655995 -3.360735 1.828873 0
M  V30 3 C -1.228132 -4.621545 1.347385 0
M  V30 4 C 0.539377 -2.657434 1.497878 0
M  V30 5 N 1.788658 -2.873731 1.919954 0
M  V30 6 C 2.870268 -2.161471 1.571131 0
M  V30 7 C 2.653785 -1.102167 0.687640 0
M  V30 8 F 3.739294 -0.356073 0.308764 0
M  V30 9 C 1.361496 -0.826925 0.211671 0
M  V30 10 C 1.264348 0.321235 -0.683704 0
M  V30 11 C 1.805693 0.610712 -1.939606 0
M  V30 12 N 1.341416 1.837293 -2.279604 0
M  V30 13 N 0.558227 2.298014 -1.304198 0
M  V30 14 N -0.065978 3.479180 -1.280195 0
M  V30 15 C -0.806917 3.776686 -0.195732 0
M  V30 16 C -0.956390 2.937145 0.885137 0
M  V30 17 C -0.294107 1.708028 0.837840 0
M  V30 18 C 0.473492 1.406239 -0.293691 0
M  V30 19 N 0.385402 -1.632896 0.655148 0
M  V30 20 H -2.207886 -2.007298 2.375403 0
M  V30 21 H -0.840517 -2.103716 3.545906 0
M  V30 22 H -1.969013 -3.465278 3.435788 0
M  V30 23 H -2.151237 -4.434117 0.768032 0
M  V30 24 H -0.497361 -5.123742 0.701705 0
M  V30 25 H -1.517027 -5.241145 2.240505 0
M  V30 26 H 3.838078 -2.427161 1.976027 0
M  V30 27 H 2.440071 -0.159846 -2.344902 0
M  V30 28 H -1.329949 4.739895 -0.148412 0
M  V30 29 H -1.531474 3.129347 1.773217 0
M  V30 30 H -0.353248 0.984927 1.643661 0
M  V30 END ATOM
M  V30 BEGIN BOND
M  V30 1 1 1 2
M  V30 2 1 2 3
M  V30 3 1 2 4
M  V30 4 2 4 5
M  V30 5 1 5 6
M  V30 6 2 6 7
M  V30 7 1 7 8
M  V30 8 1 7 9
M  V30 9 1 9 10
M  V30 10 1 10 11
M  V30 11 2 11 12
M  V30 12 1 12 13
M  V30 13 1 13 14
M  V30 14 2 14 15
M  V30 15 1 15 16
M  V30 16 2 16 17
M  V30 17 1 17 18
M  V30 18 2 9 19
M  V30 19 1 19 4
M  V30 20 2 18 10
M  V30 21 1 18 13
M  V30 22 1 1 20
M  V30 23 1 1 21
M  V30 24 1 1 22
M  V30 25 1 3 23
M  V30 26 1 3 24
M  V30 27 1 3 25
M  V30 28 1 6 26
M  V30 29 1 11 27
M  V30 30 1 15 28
M  V30 31 1 16 29
M  V30 32 1 17 30
M  V30 END BOND
M  V30 END CTAB
M  END
>  <Dataset>  (820) 
ChEMBL_Kinases

>  <Ligand_Instance>  (820) 
nan

>  <PDB_ID>  (820) 
nan

>  <Standardized_SMILES>  (820) 
CN(C)c1ncc(F)c(-c2cnn3ncccc23)n1

>  <Name>  (820) 
nan

>  <Pocket>  (820) 
nan

>  <ATP_Site>  (820) 
nan

>  <Peripheral>  (820) 
nan

>  <Num_H_Atoms_ProtBoundConf>  (820) 
nan

>  <Num_Resolved_Atoms>  (820) 
nan

>  <Num_Not_Resolved_Atoms>  (820) 
nan

$$$$
CHEMBL4861464
     RDKit          3D

  0  0  0  0  0  0  0  0  0  0999 V3000
M  V30 BEGIN CTAB
M  V30 COUNTS 45 47 0 0 0
M  V30 BEGIN ATOM
M  V30 1 N 2.443102 0.793193 8.249014 0
M  V30 2 C 2.457509 0.336134 7.188294 0
M  V30 3 C 2.498795 -0.232551 5.866494 0
M  V30 4 C 3.600542 0.135917 5.132163 0
M  V30 5 C 3.753544 -0.332603 3.867429 0
M  V30 6 C 2.769242 -1.187064 3.340449 0
M  V30 7 N 2.313934 -1.885910 2.169928 0
M  V30 8 C 2.052764 -2.373736 0.925079 0
M  V30 9 N 2.749788 -3.321808 0.218309 0
M  V30 10 C 2.299963 -3.688805 -1.006937 0
M  V30 11 C 1.175081 -3.075925 -1.444742 0
M  V30 12 C 0.638512 -3.431257 -2.781523 0
M  V30 13 F 1.420549 -4.388899 -3.378536 0
M  V30 14 F 0.631246 -2.307237 -3.587640 0
M  V30 15 F -0.645590 -3.931456 -2.718314 0
M  V30 16 C 0.414973 -2.124914 -0.816623 0
M  V30 17 N -0.756929 -1.518437 -1.343591 0
M  V30 18 C -1.374355 -0.532930 -0.458900 0 CFG=1
M  V30 19 C -0.374169 0.558780 -0.118898 0
M  V30 20 C -0.906992 1.906401 -0.540519 0
M  V30 21 C -2.231609 2.238020 0.079078 0 CFG=1
M  V30 22 N -2.749336 3.387893 -0.657154 0
M  V30 23 C -3.139334 1.054175 0.011379 0
M  V30 24 C -2.639157 0.048989 -1.032625 0
M  V30 25 N 0.923196 -1.816293 0.387129 0
M  V30 26 C 1.646925 -1.542876 4.136469 0
M  V30 27 N 1.545132 -1.043124 5.403731 0
M  V30 28 H 4.445418 0.764751 5.347306 0
M  V30 29 H 4.451923 -0.317688 3.040082 0
M  V30 30 H 2.988886 -1.209023 1.678820 0
M  V30 31 H 2.866425 -4.433002 -1.532904 0
M  V30 32 H -1.153727 -1.743552 -2.268411 0
M  V30 33 H -1.628546 -1.073949 0.473957 0
M  V30 34 H -0.068999 0.506055 0.946211 0
M  V30 35 H 0.529096 0.378474 -0.714072 0
M  V30 36 H -0.944534 1.906684 -1.652041 0
M  V30 37 H -0.111889 2.647049 -0.243442 0
M  V30 38 H -2.097936 2.530356 1.140191 0
M  V30 39 H -3.516798 3.154807 -1.287646 0
M  V30 40 H -2.968305 4.176475 -0.009986 0
M  V30 41 H -4.178199 1.357948 -0.237901 0
M  V30 42 H -3.159882 0.558755 0.996205 0
M  V30 43 H -2.460941 0.569201 -1.976987 0
M  V30 44 H -3.427000 -0.717115 -1.118907 0
M  V30 45 H 0.746515 -2.152911 4.050729 0
M  V30 END ATOM
M  V30 BEGIN BOND
M  V30 1 3 1 2
M  V30 2 1 2 3
M  V30 3 2 3 4
M  V30 4 1 4 5
M  V30 5 2 5 6
M  V30 6 1 6 7
M  V30 7 1 7 8
M  V30 8 2 8 9
M  V30 9 1 9 10
M  V30 10 2 10 11
M  V30 11 1 11 12
M  V30 12 1 12 13
M  V30 13 1 12 14
M  V30 14 1 12 15
M  V30 15 1 11 16
M  V30 16 1 16 17
M  V30 17 1 17 18
M  V30 18 1 18 19
M  V30 19 1 19 20
M  V30 20 1 20 21
M  V30 21 1 21 22
M  V30 22 1 21 23
M  V30 23 1 23 24
M  V30 24 2 16 25
M  V30 25 1 6 26
M  V30 26 2 26 27
M  V30 27 1 27 3
M  V30 28 1 25 8
M  V30 29 1 24 18
M  V30 30 1 4 28
M  V30 31 1 5 29
M  V30 32 1 7 30
M  V30 33 1 10 31
M  V30 34 1 17 32
M  V30 35 1 18 33 CFG=1
M  V30 36 1 19 34
M  V30 37 1 19 35
M  V30 38 1 20 36
M  V30 39 1 20 37
M  V30 40 1 21 38 CFG=1
M  V30 41 1 22 39
M  V30 42 1 22 40
M  V30 43 1 23 41
M  V30 44 1 23 42
M  V30 45 1 24 43
M  V30 46 1 24 44
M  V30 47 1 26 45
M  V30 END BOND
M  V30 END CTAB
M  END
>  <Dataset>  (821) 
ChEMBL_Kinases

>  <Ligand_Instance>  (821) 
nan

>  <PDB_ID>  (821) 
nan

>  <Standardized_SMILES>  (821) 
N#Cc1ccc(Nc2ncc(C(F)(F)F)c(N[C@H]3CC[C@@H](N)CC3)n2)cn1

>  <Name>  (821) 
nan

>  <Pocket>  (821) 
nan

>  <ATP_Site>  (821) 
nan

>  <Peripheral>  (821) 
nan

>  <Num_H_Atoms_ProtBoundConf>  (821) 
nan

>  <Num_Resolved_Atoms>  (821) 
nan

>  <Num_Not_Resolved_Atoms>  (821) 
nan

$$$$
CHEMBL4065361
     RDKit          3D

  0  0  0  0  0  0  0  0  0  0999 V3000
M  V30 BEGIN CTAB
M  V30 COUNTS 49 53 0 0 0
M  V30 BEGIN ATOM
M  V30 1 C 0.682948 -3.403351 5.091735 0
M  V30 2 C 1.815392 -4.243704 4.627941 0
M  V30 3 N 2.449303 -5.154785 5.392654 0
M  V30 4 N 3.398234 -5.714082 4.666213 0
M  V30 5 C 3.366690 -5.165278 3.457238 0
M  V30 6 C 2.365969 -4.207076 3.366596 0
M  V30 7 C 2.027754 -3.402755 2.219693 0
M  V30 8 C 1.131902 -2.459046 1.943846 0
M  V30 9 C 1.088108 -1.890946 0.716273 0
M  V30 10 N 0.298376 -0.936506 0.188120 0
M  V30 11 C 0.406502 -0.499864 -1.059134 0
M  V30 12 C -0.581529 0.574289 -1.438448 0
M  V30 13 C -0.176193 1.889813 -0.940399 0
M  V30 14 C 1.038767 2.222890 -0.408301 0
M  V30 15 C 1.379633 3.458193 0.044894 0
M  V30 16 C 0.439715 4.488429 -0.023964 0
M  V30 17 C -0.815155 4.187449 -0.562086 0
M  V30 18 C -1.111152 2.901322 -1.012432 0
M  V30 19 N -1.855265 0.237932 -0.983801 0
M  V30 20 C -2.164878 0.036720 0.345244 0
M  V30 21 C -3.670721 0.311021 0.411300 0
M  V30 22 C -4.082112 0.703431 -1.011561 0
M  V30 23 C -2.937324 0.201607 -1.866954 0
M  V30 24 N 1.303078 -0.938320 -1.960028 0
M  V30 25 C 2.146715 -1.895875 -1.540108 0
M  V30 26 O 3.041231 -2.416571 -2.245298 0
M  V30 27 C 2.007732 -2.329318 -0.234195 0
M  V30 28 S 2.960818 -3.604344 0.689693 0
M  V30 29 H 0.920698 -2.309905 5.043713 0
M  V30 30 H 0.392069 -3.682435 6.144451 0
M  V30 31 H -0.251746 -3.551000 4.513873 0
M  V30 32 H 4.029850 -6.449384 5.027006 0
M  V30 33 H 4.066564 -5.477140 2.687374 0
M  V30 34 H 0.446573 -2.163474 2.724908 0
M  V30 35 H -0.596619 0.601403 -2.544957 0
M  V30 36 H 1.785329 1.436219 -0.345194 0
M  V30 37 H 2.372380 3.654949 0.459602 0
M  V30 38 H 0.668073 5.487564 0.325306 0
M  V30 39 H -1.512244 4.999791 -0.600303 0
M  V30 40 H -2.107445 2.815065 -1.399024 0
M  V30 41 H -2.033008 -1.032706 0.656549 0
M  V30 42 H -1.615486 0.651796 1.085031 0
M  V30 43 H -4.241304 -0.584839 0.734987 0
M  V30 44 H -3.820798 1.167566 1.095923 0
M  V30 45 H -4.248402 1.780727 -1.072865 0
M  V30 46 H -5.036700 0.218311 -1.299802 0
M  V30 47 H -3.172607 -0.829375 -2.166158 0
M  V30 48 H -2.774924 0.793290 -2.778742 0
M  V30 49 H 1.368110 -0.585149 -2.920811 0
M  V30 END ATOM
M  V30 BEGIN BOND
M  V30 1 1 1 2
M  V30 2 2 2 3
M  V30 3 1 3 4
M  V30 4 1 4 5
M  V30 5 2 5 6
M  V30 6 1 6 7
M  V30 7 2 7 8
M  V30 8 1 8 9
M  V30 9 1 9 10
M  V30 10 2 10 11
M  V30 11 1 11 12
M  V30 12 1 12 13
M  V30 13 2 13 14
M  V30 14 1 14 15
M  V30 15 2 15 16
M  V30 16 1 16 17
M  V30 17 2 17 18
M  V30 18 1 12 19
M  V30 19 1 19 20
M  V30 20 1 20 21
M  V30 21 1 21 22
M  V30 22 1 22 23
M  V30 23 1 11 24
M  V30 24 1 24 25
M  V30 25 2 25 26
M  V30 26 1 25 27
M  V30 27 1 27 28
M  V30 28 1 6 2
M  V30 29 1 28 7
M  V30 30 2 27 9
M  V30 31 1 18 13
M  V30 32 1 23 19
M  V30 33 1 1 29
M  V30 34 1 1 30
M  V30 35 1 1 31
M  V30 36 1 4 32
M  V30 37 1 5 33
M  V30 38 1 8 34
M  V30 39 1 12 35
M  V30 40 1 14 36
M  V30 41 1 15 37
M  V30 42 1 16 38
M  V30 43 1 17 39
M  V30 44 1 18 40
M  V30 45 1 20 41
M  V30 46 1 20 42
M  V30 47 1 21 43
M  V30 48 1 21 44
M  V30 49 1 22 45
M  V30 50 1 22 46
M  V30 51 1 23 47
M  V30 52 1 23 48
M  V30 53 1 24 49
M  V30 END BOND
M  V30 END CTAB
M  END
>  <Dataset>  (822) 
ChEMBL_Kinases

>  <Ligand_Instance>  (822) 
nan

>  <PDB_ID>  (822) 
nan

>  <Standardized_SMILES>  (822) 
Cc1n[nH]cc1-c1cc2nc(C(c3ccccc3)N3CCCC3)[nH]c(=O)c2s1

>  <Name>  (822) 
nan

>  <Pocket>  (822) 
nan

>  <ATP_Site>  (822) 
nan

>  <Peripheral>  (822) 
nan

>  <Num_H_Atoms_ProtBoundConf>  (822) 
nan

>  <Num_Resolved_Atoms>  (822) 
nan

>  <Num_Not_Resolved_Atoms>  (822) 
nan

$$$$
CHEMBL4861519
     RDKit          3D

  0  0  0  0  0  0  0  0  0  0999 V3000
M  V30 BEGIN CTAB
M  V30 COUNTS 45 47 0 0 0
M  V30 BEGIN ATOM
M  V30 1 C 1.222483 -1.835642 3.410770 0
M  V30 2 N 2.107646 -2.449265 2.426082 0
M  V30 3 C 3.463613 -1.955731 2.460896 0
M  V30 4 N 4.592083 -2.473219 2.968084 0
M  V30 5 C 5.752886 -1.803659 2.902561 0
M  V30 6 C 5.797395 -0.572137 2.309759 0
M  V30 7 C 4.659104 -0.037195 1.792555 0
M  V30 8 O 4.556317 1.232450 1.143531 0
M  V30 9 C 3.276615 1.593466 0.662384 0
M  V30 10 C 2.408271 2.354761 1.407120 0
M  V30 11 C 1.170636 2.680028 0.918027 0
M  V30 12 C 0.796226 2.242176 -0.322273 0
M  V30 13 N -0.395381 2.343628 -1.123940 0
M  V30 14 C -1.222110 1.196673 -0.874810 0
M  V30 15 O -0.659777 0.438570 0.007433 0
M  V30 16 N -2.460115 0.762374 -1.380560 0
M  V30 17 C -3.009972 -0.476665 -0.880978 0
M  V30 18 C -2.469809 -1.539977 -1.622743 0
M  V30 19 C -2.850170 -2.855996 -1.325313 0
M  V30 20 C -3.747892 -3.020562 -0.303464 0
M  V30 21 C -4.281113 -1.982966 0.426762 0
M  V30 22 C -5.266548 -2.155653 1.537057 0
M  V30 23 F -6.214752 -3.110153 1.129980 0
M  V30 24 F -4.568298 -2.750101 2.588643 0
M  V30 25 F -5.861111 -0.986077 1.882138 0
M  V30 26 C -3.908243 -0.691622 0.134786 0
M  V30 27 C 1.680373 1.466603 -1.087451 0
M  V30 28 C 2.950015 1.127055 -0.599280 0
M  V30 29 N 3.501656 -0.712867 1.863889 0
M  V30 30 H 0.661351 -2.629671 3.966988 0
M  V30 31 H 0.458370 -1.193191 2.895389 0
M  V30 32 H 1.738694 -1.155009 4.099465 0
M  V30 33 H 1.557075 -3.142530 1.878425 0
M  V30 34 H 6.620244 -2.280616 3.330669 0
M  V30 35 H 6.698242 0.010381 2.231364 0
M  V30 36 H 2.639974 2.729396 2.386073 0
M  V30 37 H 0.374314 3.256525 1.348093 0
M  V30 38 H -0.834897 2.975102 -1.815944 0
M  V30 39 H -2.799217 1.474871 -2.094570 0
M  V30 40 H -1.762489 -1.484520 -2.437880 0
M  V30 41 H -2.457941 -3.727195 -1.868920 0
M  V30 42 H -4.083620 -4.019981 -0.020470 0
M  V30 43 H -4.228715 0.226116 0.608484 0
M  V30 44 H 1.551272 1.033093 -2.092932 0
M  V30 45 H 3.676149 0.525929 -1.145734 0
M  V30 END ATOM
M  V30 BEGIN BOND
M  V30 1 1 1 2
M  V30 2 1 2 3
M  V30 3 2 3 4
M  V30 4 1 4 5
M  V30 5 2 5 6
M  V30 6 1 6 7
M  V30 7 1 7 8
M  V30 8 1 8 9
M  V30 9 2 9 10
M  V30 10 1 10 11
M  V30 11 2 11 12
M  V30 12 1 12 13
M  V30 13 1 13 14
M  V30 14 2 14 15
M  V30 15 1 14 16
M  V30 16 1 16 17
M  V30 17 2 17 18
M  V30 18 1 18 19
M  V30 19 2 19 20
M  V30 20 1 20 21
M  V30 21 1 21 22
M  V30 22 1 22 23
M  V30 23 1 22 24
M  V30 24 1 22 25
M  V30 25 2 21 26
M  V30 26 1 12 27
M  V30 27 2 27 28
M  V30 28 2 7 29
M  V30 29 1 29 3
M  V30 30 1 28 9
M  V30 31 1 26 17
M  V30 32 1 1 30
M  V30 33 1 1 31
M  V30 34 1 1 32
M  V30 35 1 2 33
M  V30 36 1 5 34
M  V30 37 1 6 35
M  V30 38 1 10 36
M  V30 39 1 11 37
M  V30 40 1 13 38
M  V30 41 1 16 39
M  V30 42 1 18 40
M  V30 43 1 19 41
M  V30 44 1 20 42
M  V30 45 1 26 43
M  V30 46 1 27 44
M  V30 47 1 28 45
M  V30 END BOND
M  V30 END CTAB
M  END
>  <Dataset>  (823) 
ChEMBL_Kinases

>  <Ligand_Instance>  (823) 
nan

>  <PDB_ID>  (823) 
nan

>  <Standardized_SMILES>  (823) 
CNc1nccc(Oc2ccc(NC(=O)Nc3cccc(C(F)(F)F)c3)cc2)n1

>  <Name>  (823) 
nan

>  <Pocket>  (823) 
nan

>  <ATP_Site>  (823) 
nan

>  <Peripheral>  (823) 
nan

>  <Num_H_Atoms_ProtBoundConf>  (823) 
nan

>  <Num_Resolved_Atoms>  (823) 
nan

>  <Num_Not_Resolved_Atoms>  (823) 
nan

$$$$
CHEMBL4064883
     RDKit          3D

  0  0  0  0  0  0  0  0  0  0999 V3000
M  V30 BEGIN CTAB
M  V30 COUNTS 24 26 0 0 0
M  V30 BEGIN ATOM
M  V30 1 O 2.857499 -0.978686 2.691414 0
M  V30 2 C 1.943614 -0.370071 2.083765 0
M  V30 3 C 0.983823 -0.916465 1.100432 0
M  V30 4 C 0.922670 -2.165394 0.676864 0
M  V30 5 C -0.097536 -2.508314 -0.292522 0
M  V30 6 C 0.207239 -3.223925 -1.460367 0
M  V30 7 C -0.975519 -3.409052 -2.186240 0
M  V30 8 C -1.937387 -2.795327 -1.422260 0
M  V30 9 O -1.405081 -2.289488 -0.345100 0
M  V30 10 O 0.183634 0.149727 0.726788 0
M  V30 11 C 0.537421 1.302982 1.365367 0
M  V30 12 C 0.103236 2.614111 1.372975 0
M  V30 13 C 0.635430 3.637639 2.125675 0
M  V30 14 C 1.692577 3.276867 2.927623 0
M  V30 15 C 2.239708 2.017639 3.032095 0
M  V30 16 C 1.615304 1.063951 2.220308 0
M  V30 17 H 1.651330 -2.836088 1.086704 0
M  V30 18 H 1.126224 -3.633751 -1.877968 0
M  V30 19 H -1.178251 -3.891738 -3.112673 0
M  V30 20 H -3.022684 -2.678302 -1.579283 0
M  V30 21 H -0.742886 2.810428 0.699659 0
M  V30 22 H 0.255016 4.650028 2.089895 0
M  V30 23 H 2.192840 4.019844 3.571181 0
M  V30 24 H 3.063918 1.745132 3.659682 0
M  V30 END ATOM
M  V30 BEGIN BOND
M  V30 1 2 1 2
M  V30 2 1 2 3
M  V30 3 2 3 4
M  V30 4 1 4 5
M  V30 5 2 5 6
M  V30 6 1 6 7
M  V30 7 2 7 8
M  V30 8 1 8 9
M  V30 9 1 3 10
M  V30 10 1 10 11
M  V30 11 2 11 12
M  V30 12 1 12 13
M  V30 13 2 13 14
M  V30 14 1 14 15
M  V30 15 2 15 16
M  V30 16 1 16 2
M  V30 17 1 9 5
M  V30 18 1 16 11
M  V30 19 1 4 17
M  V30 20 1 6 18
M  V30 21 1 7 19
M  V30 22 1 8 20
M  V30 23 1 12 21
M  V30 24 1 13 22
M  V30 25 1 14 23
M  V30 26 1 15 24
M  V30 END BOND
M  V30 END CTAB
M  END
>  <Dataset>  (824) 
ChEMBL_Kinases

>  <Ligand_Instance>  (824) 
nan

>  <PDB_ID>  (824) 
nan

>  <Standardized_SMILES>  (824) 
O=C1/C(=C/c2ccco2)Oc2ccccc21

>  <Name>  (824) 
nan

>  <Pocket>  (824) 
nan

>  <ATP_Site>  (824) 
nan

>  <Peripheral>  (824) 
nan

>  <Num_H_Atoms_ProtBoundConf>  (824) 
nan

>  <Num_Resolved_Atoms>  (824) 
nan

>  <Num_Not_Resolved_Atoms>  (824) 
nan

$$$$
CHEMBL4065198
     RDKit          3D

  0  0  0  0  0  0  0  0  0  0999 V3000
M  V30 BEGIN CTAB
M  V30 COUNTS 40 43 0 0 0
M  V30 BEGIN ATOM
M  V30 1 C -0.233951 -5.869864 1.626221 0
M  V30 2 C 0.342498 -4.528427 1.444172 0
M  V30 3 C 1.682584 -4.341032 1.653023 0
M  V30 4 C 2.144471 -3.062626 1.460932 0
M  V30 5 N 1.341066 -2.059590 1.094764 0
M  V30 6 C 0.010537 -2.205422 0.880389 0
M  V30 7 C -0.617091 -0.990914 0.424817 0
M  V30 8 C 0.120483 -0.165587 -0.445230 0
M  V30 9 C -0.269781 1.039677 -0.986902 0
M  V30 10 N 0.628553 1.728547 -1.852481 0
M  V30 11 C 1.398426 2.580477 -1.005667 0
M  V30 12 C 1.218155 3.895883 -0.630577 0
M  V30 13 C 2.268314 4.188260 0.203426 0
M  V30 14 N 3.059031 3.109257 0.338521 0
M  V30 15 C 4.279284 2.899444 1.100508 0
M  V30 16 N 2.520373 2.144936 -0.398424 0
M  V30 17 N -1.497065 1.443744 -0.623260 0
M  V30 18 C -2.287348 0.745291 0.198964 0
M  V30 19 N -3.508873 1.005507 0.694012 0
M  V30 20 C -3.844711 -0.003098 1.513567 0
M  V30 21 C -2.823370 -0.913167 1.536371 0
M  V30 22 C -2.894927 -2.067179 2.373143 0
M  V30 23 N -2.969123 -3.007205 3.065821 0
M  V30 24 C -1.843317 -0.450020 0.708827 0
M  V30 25 C -0.417434 -3.471182 1.073439 0
M  V30 26 H -1.160541 -6.037838 1.060141 0
M  V30 27 H 0.488666 -6.694037 1.458494 0
M  V30 28 H -0.486441 -5.948016 2.721906 0
M  V30 29 H 2.329538 -5.155093 1.951476 0
M  V30 30 H 3.209044 -2.912112 1.624889 0
M  V30 31 H 1.126764 -0.517579 -0.729001 0
M  V30 32 H 0.625339 1.554402 -2.882620 0
M  V30 33 H 0.394022 4.508982 -0.964889 0
M  V30 34 H 2.455684 5.134770 0.691191 0
M  V30 35 H 5.010365 2.416845 0.434870 0
M  V30 36 H 4.083388 2.179917 1.941401 0
M  V30 37 H 4.624190 3.828157 1.577511 0
M  V30 38 H -4.080270 1.846438 0.472255 0
M  V30 39 H -4.781078 -0.021990 2.032025 0
M  V30 40 H -1.441977 -3.677001 0.867804 0
M  V30 END ATOM
M  V30 BEGIN BOND
M  V30 1 1 1 2
M  V30 2 2 2 3
M  V30 3 1 3 4
M  V30 4 2 4 5
M  V30 5 1 5 6
M  V30 6 1 6 7
M  V30 7 2 7 8
M  V30 8 1 8 9
M  V30 9 1 9 10
M  V30 10 1 10 11
M  V30 11 1 11 12
M  V30 12 2 12 13
M  V30 13 1 13 14
M  V30 14 1 14 15
M  V30 15 1 14 16
M  V30 16 2 9 17
M  V30 17 1 17 18
M  V30 18 1 18 19
M  V30 19 1 19 20
M  V30 20 2 20 21
M  V30 21 1 21 22
M  V30 22 3 22 23
M  V30 23 1 21 24
M  V30 24 2 6 25
M  V30 25 1 25 2
M  V30 26 1 24 7
M  V30 27 2 16 11
M  V30 28 2 24 18
M  V30 29 1 1 26
M  V30 30 1 1 27
M  V30 31 1 1 28
M  V30 32 1 3 29
M  V30 33 1 4 30
M  V30 34 1 8 31
M  V30 35 1 10 32
M  V30 36 1 12 33
M  V30 37 1 13 34
M  V30 38 1 15 35
M  V30 39 1 15 36
M  V30 40 1 15 37
M  V30 41 1 19 38
M  V30 42 1 20 39
M  V30 43 1 25 40
M  V30 END BOND
M  V30 END CTAB
M  END
>  <Dataset>  (825) 
ChEMBL_Kinases

>  <Ligand_Instance>  (825) 
nan

>  <PDB_ID>  (825) 
nan

>  <Standardized_SMILES>  (825) 
Cc1ccnc(-c2cc(Nc3ccn(C)n3)nc3[nH]cc(C#N)c23)c1

>  <Name>  (825) 
nan

>  <Pocket>  (825) 
nan

>  <ATP_Site>  (825) 
nan

>  <Peripheral>  (825) 
nan

>  <Num_H_Atoms_ProtBoundConf>  (825) 
nan

>  <Num_Resolved_Atoms>  (825) 
nan

>  <Num_Not_Resolved_Atoms>  (825) 
nan

$$$$
CHEMBL4861520
     RDKit          3D

  0  0  0  0  0  0  0  0  0  0999 V3000
M  V30 BEGIN CTAB
M  V30 COUNTS 57 62 0 0 0
M  V30 BEGIN ATOM
M  V30 1 C -0.489449 -5.058412 2.493797 0
M  V30 2 C 0.243658 -3.908433 1.855389 0
M  V30 3 C 0.657761 -2.908022 2.740750 0
M  V30 4 C 1.336145 -1.823506 2.222298 0
M  V30 5 C 1.631145 -1.665138 0.884331 0
M  V30 6 C 2.349658 -0.512181 0.350306 0
M  V30 7 N 3.353947 -0.477118 -0.537303 0
M  V30 8 N 3.746992 0.776232 -0.773685 0
M  V30 9 C 2.976777 1.553926 -0.020913 0
M  V30 10 C 2.984329 2.929365 0.095545 0
M  V30 11 C 2.100236 3.608347 0.940477 0
M  V30 12 C 1.194473 2.836136 1.674690 0
M  V30 13 C 0.204005 3.420323 2.605459 0
M  V30 14 N 0.404769 3.605854 3.923092 0
M  V30 15 N -0.645163 4.143937 4.507456 0
M  V30 16 C -1.559703 4.311445 3.523816 0
M  V30 17 N -1.050139 3.872205 2.357604 0
M  V30 18 C -1.658434 3.850827 1.045190 0
M  V30 19 C -3.019999 4.504952 1.155189 0
M  V30 20 C -1.851204 2.464408 0.512591 0
M  V30 21 C 1.207021 1.461805 1.540505 0
M  V30 22 C 2.079925 0.793510 0.706453 0
M  V30 23 C 1.203372 -2.676192 0.049235 0
M  V30 24 C 0.517471 -3.791270 0.507579 0
M  V30 25 N 0.067429 -4.845636 -0.337977 0
M  V30 26 C 0.155420 -6.172558 -0.155874 0
M  V30 27 N -0.399104 -6.812481 -1.204918 0
M  V30 28 C -0.855403 -5.899152 -2.083911 0
M  V30 29 C -1.549642 -6.028556 -3.404578 0
M  V30 30 C -2.506121 -4.978034 -3.785495 0
M  V30 31 C -1.167459 -5.033318 -4.498411 0
M  V30 32 C -0.558535 -4.651747 -1.532208 0
M  V30 33 H 0.214613 -5.771180 2.944004 0
M  V30 34 H -1.124434 -4.683020 3.337711 0
M  V30 35 H -1.213384 -5.511839 1.784865 0
M  V30 36 H 0.456967 -2.974249 3.799102 0
M  V30 37 H 1.639728 -1.075180 2.924475 0
M  V30 38 H 4.525613 1.049371 -1.439824 0
M  V30 39 H 3.636392 3.608585 -0.421977 0
M  V30 40 H 2.042266 4.661497 1.086195 0
M  V30 41 H -2.564846 4.740770 3.658007 0
M  V30 42 H -1.077808 4.429686 0.300949 0
M  V30 43 H -3.609676 3.902034 1.898553 0
M  V30 44 H -2.977264 5.533317 1.570179 0
M  V30 45 H -3.598135 4.442978 0.212018 0
M  V30 46 H -2.022764 1.701800 1.314027 0
M  V30 47 H -1.025603 2.154675 -0.181177 0
M  V30 48 H -2.757199 2.471257 -0.131498 0
M  V30 49 H 0.508060 0.877337 2.108090 0
M  V30 50 H 1.400870 -2.620177 -1.024135 0
M  V30 51 H 0.608055 -6.668193 0.711545 0
M  V30 52 H -1.748862 -7.052932 -3.772090 0
M  V30 53 H -3.414593 -5.203963 -4.403800 0
M  V30 54 H -2.609634 -4.043866 -3.173608 0
M  V30 55 H -1.177985 -5.392079 -5.549044 0
M  V30 56 H -0.369465 -4.312312 -4.247357 0
M  V30 57 H -0.783080 -3.669587 -1.970601 0
M  V30 END ATOM
M  V30 BEGIN BOND
M  V30 1 1 1 2
M  V30 2 2 2 3
M  V30 3 1 3 4
M  V30 4 2 4 5
M  V30 5 1 5 6
M  V30 6 2 6 7
M  V30 7 1 7 8
M  V30 8 1 8 9
M  V30 9 2 9 10
M  V30 10 1 10 11
M  V30 11 2 11 12
M  V30 12 1 12 13
M  V30 13 2 13 14
M  V30 14 1 14 15
M  V30 15 2 15 16
M  V30 16 1 16 17
M  V30 17 1 17 18
M  V30 18 1 18 19
M  V30 19 1 18 20
M  V30 20 1 12 21
M  V30 21 2 21 22
M  V30 22 1 5 23
M  V30 23 2 23 24
M  V30 24 1 24 25
M  V30 25 1 25 26
M  V30 26 2 26 27
M  V30 27 1 27 28
M  V30 28 1 28 29
M  V30 29 1 29 30
M  V30 30 1 30 31
M  V30 31 2 28 32
M  V30 32 1 24 2
M  V30 33 1 32 25
M  V30 34 1 22 6
M  V30 35 1 31 29
M  V30 36 1 22 9
M  V30 37 1 17 13
M  V30 38 1 1 33
M  V30 39 1 1 34
M  V30 40 1 1 35
M  V30 41 1 3 36
M  V30 42 1 4 37
M  V30 43 1 8 38
M  V30 44 1 10 39
M  V30 45 1 11 40
M  V30 46 1 16 41
M  V30 47 1 18 42
M  V30 48 1 19 43
M  V30 49 1 19 44
M  V30 50 1 19 45
M  V30 51 1 20 46
M  V30 52 1 20 47
M  V30 53 1 20 48
M  V30 54 1 21 49
M  V30 55 1 23 50
M  V30 56 1 26 51
M  V30 57 1 29 52
M  V30 58 1 30 53
M  V30 59 1 30 54
M  V30 60 1 31 55
M  V30 61 1 31 56
M  V30 62 1 32 57
M  V30 END BOND
M  V30 END CTAB
M  END
>  <Dataset>  (826) 
ChEMBL_Kinases

>  <Ligand_Instance>  (826) 
nan

>  <PDB_ID>  (826) 
nan

>  <Standardized_SMILES>  (826) 
Cc1ccc(-c2n[nH]c3ccc(-c4nncn4C(C)C)cc23)cc1-n1cnc(C2CC2)c1

>  <Name>  (826) 
nan

>  <Pocket>  (826) 
nan

>  <ATP_Site>  (826) 
nan

>  <Peripheral>  (826) 
nan

>  <Num_H_Atoms_ProtBoundConf>  (826) 
nan

>  <Num_Resolved_Atoms>  (826) 
nan

>  <Num_Not_Resolved_Atoms>  (826) 
nan

$$$$
CHEMBL4861588
     RDKit          3D

  0  0  0  0  0  0  0  0  0  0999 V3000
M  V30 BEGIN CTAB
M  V30 COUNTS 56 61 0 0 0
M  V30 BEGIN ATOM
M  V30 1 C 6.375875 -4.086071 3.466709 0
M  V30 2 S 6.820633 -2.517833 2.730569 0
M  V30 3 O 7.826310 -2.870407 1.646988 0
M  V30 4 O 7.432308 -1.637892 3.748916 0
M  V30 5 C 5.451623 -1.796133 1.904269 0
M  V30 6 C 4.598791 -0.963654 2.602916 0
M  V30 7 C 3.522554 -0.407756 1.912763 0
M  V30 8 C 3.298771 -0.668633 0.572753 0
M  V30 9 C 2.124260 -0.003393 0.007433 0
M  V30 10 C 1.001410 0.250572 0.770228 0
M  V30 11 C -0.058497 0.883608 0.161951 0
M  V30 12 C 0.020169 1.236727 -1.146045 0
M  V30 13 C -1.105748 1.873272 -1.619088 0
M  V30 14 C -2.381384 2.170985 -0.997783 0
M  V30 15 C -2.891764 3.447600 -0.980954 0
M  V30 16 N -4.110633 3.412399 -0.363944 0
M  V30 17 C -4.370942 2.142342 0.003267 0
M  V30 18 C -5.469644 1.606336 0.640062 0
M  V30 19 C -5.457930 0.238932 0.873771 0
M  V30 20 C -4.387031 -0.555991 0.483638 0
M  V30 21 C -4.356861 -2.006384 0.721846 0
M  V30 22 C -5.531012 -2.656411 0.429378 0
M  V30 23 C -5.720278 -4.028143 0.582404 0
M  V30 24 F -6.882461 -4.659853 0.291314 0
M  V30 25 C -4.641237 -4.742060 1.058343 0
M  V30 26 C -3.450955 -4.116952 1.360230 0
M  V30 27 C -3.290728 -2.746006 1.197545 0
M  V30 28 F -2.163528 -2.042258 1.465469 0
M  V30 29 C -3.353184 0.102379 -0.141935 0
M  V30 30 N -3.315152 1.419256 -0.390586 0
M  V30 31 C -1.051673 2.268178 -2.964098 0
M  V30 32 C 0.047240 2.037882 -3.765717 0
M  V30 33 N 1.134719 1.400704 -3.243642 0
M  V30 34 C 1.111838 1.011031 -1.955863 0
M  V30 35 C 2.182100 0.367692 -1.328103 0
M  V30 36 C 4.148262 -1.500507 -0.131820 0
M  V30 37 C 5.207997 -2.041670 0.567787 0
M  V30 38 H 6.903693 -4.214846 4.453166 0
M  V30 39 H 6.545943 -4.920571 2.788857 0
M  V30 40 H 5.295916 -4.088615 3.748315 0
M  V30 41 H 4.781313 -0.764797 3.650912 0
M  V30 42 H 2.902595 0.236168 2.542526 0
M  V30 43 H 1.025853 -0.065741 1.803281 0
M  V30 44 H -0.906998 1.075850 0.794493 0
M  V30 45 H -2.514102 4.373319 -1.343324 0
M  V30 46 H -6.313597 2.216275 0.950192 0
M  V30 47 H -6.300711 -0.258152 1.377528 0
M  V30 48 H -6.429024 -2.149884 0.047001 0
M  V30 49 H -4.670069 -5.828226 1.220249 0
M  V30 50 H -2.617358 -4.659662 1.726478 0
M  V30 51 H -2.513199 -0.494587 -0.455509 0
M  V30 52 H -1.854158 2.778530 -3.478181 0
M  V30 53 H 0.093496 2.340604 -4.803767 0
M  V30 54 H 3.078930 0.158865 -1.916184 0
M  V30 55 H 3.931421 -1.673503 -1.175779 0
M  V30 56 H 5.869340 -2.688779 0.021619 0
M  V30 END ATOM
M  V30 BEGIN BOND
M  V30 1 1 1 2
M  V30 2 2 2 3
M  V30 3 2 2 4
M  V30 4 1 2 5
M  V30 5 2 5 6
M  V30 6 1 6 7
M  V30 7 2 7 8
M  V30 8 1 8 9
M  V30 9 2 9 10
M  V30 10 1 10 11
M  V30 11 2 11 12
M  V30 12 1 12 13
M  V30 13 1 13 14
M  V30 14 2 14 15
M  V30 15 1 15 16
M  V30 16 2 16 17
M  V30 17 1 17 18
M  V30 18 2 18 19
M  V30 19 1 19 20
M  V30 20 1 20 21
M  V30 21 2 21 22
M  V30 22 1 22 23
M  V30 23 1 23 24
M  V30 24 2 23 25
M  V30 25 1 25 26
M  V30 26 2 26 27
M  V30 27 1 27 28
M  V30 28 2 20 29
M  V30 29 1 29 30
M  V30 30 2 13 31
M  V30 31 1 31 32
M  V30 32 2 32 33
M  V30 33 1 33 34
M  V30 34 2 34 35
M  V30 35 1 8 36
M  V30 36 2 36 37
M  V30 37 1 37 5
M  V30 38 1 35 9
M  V30 39 1 34 12
M  V30 40 1 30 14
M  V30 41 1 30 17
M  V30 42 1 27 21
M  V30 43 1 1 38
M  V30 44 1 1 39
M  V30 45 1 1 40
M  V30 46 1 6 41
M  V30 47 1 7 42
M  V30 48 1 10 43
M  V30 49 1 11 44
M  V30 50 1 15 45
M  V30 51 1 18 46
M  V30 52 1 19 47
M  V30 53 1 22 48
M  V30 54 1 25 49
M  V30 55 1 26 50
M  V30 56 1 29 51
M  V30 57 1 31 52
M  V30 58 1 32 53
M  V30 59 1 35 54
M  V30 60 1 36 55
M  V30 61 1 37 56
M  V30 END BOND
M  V30 END CTAB
M  END
>  <Dataset>  (827) 
ChEMBL_Kinases

>  <Ligand_Instance>  (827) 
nan

>  <PDB_ID>  (827) 
nan

>  <Standardized_SMILES>  (827) 
CS(=O)(=O)c1ccc(-c2ccc3c(-c4cnc5ccc(-c6cc(F)ccc6F)cn45)ccnc3c2)cc1

>  <Name>  (827) 
nan

>  <Pocket>  (827) 
nan

>  <ATP_Site>  (827) 
nan

>  <Peripheral>  (827) 
nan

>  <Num_H_Atoms_ProtBoundConf>  (827) 
nan

>  <Num_Resolved_Atoms>  (827) 
nan

>  <Num_Not_Resolved_Atoms>  (827) 
nan

$$$$
CHEMBL4065155
     RDKit          3D

  0  0  0  0  0  0  0  0  0  0999 V3000
M  V30 BEGIN CTAB
M  V30 COUNTS 53 55 0 0 0
M  V30 BEGIN ATOM
M  V30 1 C 3.646083 -3.240083 4.132266 0
M  V30 2 C 3.203516 -1.873205 3.635866 0
M  V30 3 C 3.509023 -0.876651 4.725157 0
M  V30 4 C 3.907870 -1.600526 2.360107 0
M  V30 5 C 3.606353 -0.301540 1.711606 0 CFG=2
M  V30 6 C 4.415762 -0.205956 0.429325 0
M  V30 7 N 4.074467 0.804173 2.554626 0
M  V30 8 C 2.181533 -0.027697 1.402995 0
M  V30 9 O 1.526177 -0.962025 0.603446 0
M  V30 10 C 0.190121 -0.735680 0.295186 0
M  V30 11 N -0.482646 0.356022 0.746348 0
M  V30 12 C -1.779583 0.553749 0.433176 0
M  V30 13 C -2.530693 -0.320386 -0.361512 0
M  V30 14 C -3.905169 0.047098 -0.578034 0
M  V30 15 C -4.594042 0.297446 0.613996 0
M  V30 16 C -5.931100 0.640265 0.611546 0
M  V30 17 N -6.600720 0.739440 -0.565766 0
M  V30 18 C -5.974691 0.508544 -1.713361 0
M  V30 19 C -6.550631 0.586276 -2.954772 0
M  V30 20 C -5.861031 0.343053 -4.144926 0
M  V30 21 C -4.518419 0.001686 -4.109071 0
M  V30 22 C -3.907449 -0.085756 -2.877141 0
M  V30 23 C -4.640337 0.165005 -1.737216 0
M  V30 24 C -1.834327 -1.422214 -0.810425 0
M  V30 25 C -0.507938 -1.628677 -0.493060 0
M  V30 26 C 0.193091 -2.830993 -1.003310 0
M  V30 27 F 1.229353 -2.448313 -1.841336 0
M  V30 28 F 0.645773 -3.617277 0.041417 0
M  V30 29 H 4.718405 -3.199967 4.469430 0
M  V30 30 H 3.055865 -3.607175 4.989983 0
M  V30 31 H 3.602992 -3.997801 3.313184 0
M  V30 32 H 2.098997 -1.933808 3.532987 0
M  V30 33 H 4.568350 -0.552859 4.719790 0
M  V30 34 H 3.339624 -1.298474 5.737558 0
M  V30 35 H 2.865088 0.023875 4.645300 0
M  V30 36 H 3.672976 -2.428427 1.662638 0
M  V30 37 H 4.995120 -1.646319 2.539459 0
M  V30 38 H 5.351926 0.368263 0.573957 0
M  V30 39 H 4.725177 -1.222272 0.074946 0
M  V30 40 H 3.847073 0.251531 -0.402562 0
M  V30 41 H 5.088346 0.741223 2.766109 0
M  V30 42 H 3.751704 1.718092 2.184383 0
M  V30 43 H 2.151841 0.940299 0.848050 0
M  V30 44 H 1.621279 0.186215 2.350131 0
M  V30 45 H -2.133997 1.474735 0.885419 0
M  V30 46 H -4.150869 0.244902 1.603805 0
M  V30 47 H -6.476894 0.836393 1.521887 0
M  V30 48 H -7.609548 0.853193 -3.026739 0
M  V30 49 H -6.403405 0.429376 -5.077721 0
M  V30 50 H -4.056317 -0.169175 -5.052215 0
M  V30 51 H -2.860674 -0.344948 -2.877729 0
M  V30 52 H -2.398700 -2.114777 -1.416762 0
M  V30 53 H -0.488642 -3.431856 -1.604816 0
M  V30 END ATOM
M  V30 BEGIN BOND
M  V30 1 1 1 2
M  V30 2 1 2 3
M  V30 3 1 2 4
M  V30 4 1 4 5
M  V30 5 1 5 6
M  V30 6 1 5 7 CFG=1
M  V30 7 1 5 8
M  V30 8 1 8 9
M  V30 9 1 9 10
M  V30 10 2 10 11
M  V30 11 1 11 12
M  V30 12 2 12 13
M  V30 13 1 13 14
M  V30 14 2 14 15
M  V30 15 1 15 16
M  V30 16 2 16 17
M  V30 17 1 17 18
M  V30 18 2 18 19
M  V30 19 1 19 20
M  V30 20 2 20 21
M  V30 21 1 21 22
M  V30 22 2 22 23
M  V30 23 1 13 24
M  V30 24 2 24 25
M  V30 25 1 25 26
M  V30 26 1 26 27
M  V30 27 1 26 28
M  V30 28 1 25 10
M  V30 29 1 23 14
M  V30 30 1 23 18
M  V30 31 1 1 29
M  V30 32 1 1 30
M  V30 33 1 1 31
M  V30 34 1 2 32
M  V30 35 1 3 33
M  V30 36 1 3 34
M  V30 37 1 3 35
M  V30 38 1 4 36
M  V30 39 1 4 37
M  V30 40 1 6 38
M  V30 41 1 6 39
M  V30 42 1 6 40
M  V30 43 1 7 41
M  V30 44 1 7 42
M  V30 45 1 8 43
M  V30 46 1 8 44
M  V30 47 1 12 45
M  V30 48 1 15 46
M  V30 49 1 16 47
M  V30 50 1 19 48
M  V30 51 1 20 49
M  V30 52 1 21 50
M  V30 53 1 22 51
M  V30 54 1 24 52
M  V30 55 1 26 53
M  V30 END BOND
M  V30 END CTAB
M  END
>  <Dataset>  (828) 
ChEMBL_Kinases

>  <Ligand_Instance>  (828) 
nan

>  <PDB_ID>  (828) 
nan

>  <Standardized_SMILES>  (828) 
CC(C)C[C@](C)(N)COc1ncc(-c2ccnc3ccccc23)cc1C(F)F

>  <Name>  (828) 
nan

>  <Pocket>  (828) 
nan

>  <ATP_Site>  (828) 
nan

>  <Peripheral>  (828) 
nan

>  <Num_H_Atoms_ProtBoundConf>  (828) 
nan

>  <Num_Resolved_Atoms>  (828) 
nan

>  <Num_Not_Resolved_Atoms>  (828) 
nan

$$$$
CHEMBL4861593
     RDKit          3D

  0  0  0  0  0  0  0  0  0  0999 V3000
M  V30 BEGIN CTAB
M  V30 COUNTS 49 52 0 0 0
M  V30 BEGIN ATOM
M  V30 1 C 3.664034 -6.928284 -2.500556 0
M  V30 2 O 3.685324 -5.567852 -2.856344 0
M  V30 3 C 3.501036 -4.607192 -1.889497 0
M  V30 4 C 3.283549 -4.759659 -0.534812 0
M  V30 5 C 3.120059 -3.657333 0.281277 0
M  V30 6 C 3.165520 -2.367472 -0.211041 0
M  V30 7 C 2.992220 -1.191313 0.652181 0 CFG=1
M  V30 8 C 4.319207 -0.664677 1.123398 0
M  V30 9 N 2.111927 -0.186378 0.118927 0
M  V30 10 C 0.868093 0.193751 0.706857 0
M  V30 11 O 0.529198 -0.388057 1.751361 0
M  V30 12 C 0.114960 1.250222 -0.003350 0
M  V30 13 C 0.447884 1.933184 -1.173298 0
M  V30 14 N -0.580837 2.789024 -1.385956 0
M  V30 15 C -1.496638 2.634872 -0.393098 0
M  V30 16 C -2.686389 3.319253 -0.244911 0
M  V30 17 C -3.491274 3.019869 0.839156 0
M  V30 18 C -3.072442 2.039990 1.740567 0
M  V30 19 C -3.876387 1.665575 2.920372 0
M  V30 20 C -3.408585 1.218888 4.144622 0
M  V30 21 N -4.471605 0.989663 4.940361 0
M  V30 22 N -5.582449 1.268545 4.281266 0
M  V30 23 C -6.908309 1.137732 4.827518 0
M  V30 24 C -5.251798 1.682046 3.049816 0
M  V30 25 C -1.860626 1.394362 1.523241 0
M  V30 26 N -1.078338 1.683951 0.471412 0
M  V30 27 C 3.385047 -2.192040 -1.582088 0
M  V30 28 C 3.549405 -3.307595 -2.401127 0
M  V30 29 H 4.703586 -7.246223 -2.250566 0
M  V30 30 H 3.357024 -7.491980 -3.409952 0
M  V30 31 H 2.953823 -7.161983 -1.703980 0
M  V30 32 H 3.259724 -5.794614 -0.217125 0
M  V30 33 H 2.953764 -3.847308 1.329135 0
M  V30 34 H 2.470682 -1.562833 1.583336 0
M  V30 35 H 4.726495 -1.438425 1.834627 0
M  V30 36 H 4.220262 0.249819 1.712603 0
M  V30 37 H 5.017722 -0.451175 0.295568 0
M  V30 38 H 2.538456 0.210103 -0.762488 0
M  V30 39 H 1.371581 1.708468 -1.683948 0
M  V30 40 H -3.000516 4.083795 -0.959267 0
M  V30 41 H -4.436900 3.515188 1.019805 0
M  V30 42 H -2.343937 1.099342 4.351600 0
M  V30 43 H -7.335690 2.142287 5.061592 0
M  V30 44 H -6.934167 0.462450 5.709141 0
M  V30 45 H -7.550182 0.666385 4.062473 0
M  V30 46 H -5.955880 1.979518 2.285050 0
M  V30 47 H -1.533814 0.626130 2.231302 0
M  V30 48 H 3.423047 -1.193170 -1.980246 0
M  V30 49 H 3.716034 -3.066300 -3.459312 0
M  V30 END ATOM
M  V30 BEGIN BOND
M  V30 1 1 1 2
M  V30 2 1 2 3
M  V30 3 2 3 4
M  V30 4 1 4 5
M  V30 5 2 5 6
M  V30 6 1 6 7
M  V30 7 1 7 8
M  V30 8 1 7 9
M  V30 9 1 9 10
M  V30 10 2 10 11
M  V30 11 1 10 12
M  V30 12 2 12 13
M  V30 13 1 13 14
M  V30 14 2 14 15
M  V30 15 1 15 16
M  V30 16 2 16 17
M  V30 17 1 17 18
M  V30 18 1 18 19
M  V30 19 1 19 20
M  V30 20 2 20 21
M  V30 21 1 21 22
M  V30 22 1 22 23
M  V30 23 1 22 24
M  V30 24 2 18 25
M  V30 25 1 25 26
M  V30 26 1 6 27
M  V30 27 2 27 28
M  V30 28 1 28 3
M  V30 29 1 26 12
M  V30 30 1 26 15
M  V30 31 2 24 19
M  V30 32 1 1 29
M  V30 33 1 1 30
M  V30 34 1 1 31
M  V30 35 1 4 32
M  V30 36 1 5 33
M  V30 37 1 7 34 CFG=1
M  V30 38 1 8 35
M  V30 39 1 8 36
M  V30 40 1 8 37
M  V30 41 1 9 38
M  V30 42 1 13 39
M  V30 43 1 16 40
M  V30 44 1 17 41
M  V30 45 1 20 42
M  V30 46 1 23 43
M  V30 47 1 23 44
M  V30 48 1 23 45
M  V30 49 1 24 46
M  V30 50 1 25 47
M  V30 51 1 27 48
M  V30 52 1 28 49
M  V30 END BOND
M  V30 END CTAB
M  END
>  <Dataset>  (829) 
ChEMBL_Kinases

>  <Ligand_Instance>  (829) 
nan

>  <PDB_ID>  (829) 
nan

>  <Standardized_SMILES>  (829) 
COc1ccc([C@@H](C)NC(=O)c2cnc3ccc(-c4cnn(C)c4)cn23)cc1

>  <Name>  (829) 
nan

>  <Pocket>  (829) 
nan

>  <ATP_Site>  (829) 
nan

>  <Peripheral>  (829) 
nan

>  <Num_H_Atoms_ProtBoundConf>  (829) 
nan

>  <Num_Resolved_Atoms>  (829) 
nan

>  <Num_Not_Resolved_Atoms>  (829) 
nan

$$$$
CHEMBL4065090
     RDKit          3D

  0  0  0  0  0  0  0  0  0  0999 V3000
M  V30 BEGIN CTAB
M  V30 COUNTS 58 61 0 0 0
M  V30 BEGIN ATOM
M  V30 1 C 7.408937 -5.094789 1.958593 0
M  V30 2 O 6.256648 -5.868053 2.225968 0
M  V30 3 C 5.045064 -5.429877 1.717724 0
M  V30 4 C 4.822946 -4.292220 0.960297 0
M  V30 5 C 3.567850 -3.951786 0.504035 0
M  V30 6 C 3.504389 -2.772269 -0.247089 0
M  V30 7 C 2.252336 -2.426063 -0.704812 0
M  V30 8 O 2.135749 -1.265567 -1.454691 0
M  V30 9 C 1.381619 -0.157487 -1.099661 0
M  V30 10 C 1.288193 0.879303 -2.003585 0
M  V30 11 C 0.559226 2.021606 -1.734249 0
M  V30 12 C -0.102250 2.146663 -0.528766 0
M  V30 13 N -0.901315 3.218781 -0.041939 0
M  V30 14 C -2.300314 3.258571 -0.284505 0
M  V30 15 O -2.712625 2.256630 -0.963464 0
M  V30 16 N -3.099949 4.310395 0.193479 0
M  V30 17 C -4.502866 4.481586 0.028461 0
M  V30 18 C -4.827233 5.202870 -1.119211 0
M  V30 19 C -6.175290 5.430107 -1.382803 0
M  V30 20 C -7.162449 4.962144 -0.544568 0
M  V30 21 C -6.831833 4.238692 0.606186 0
M  V30 22 C -7.796408 3.677390 1.591097 0
M  V30 23 F -8.049636 2.352531 1.220470 0
M  V30 24 F -7.280937 3.786845 2.849761 0
M  V30 25 F -8.981400 4.394776 1.528520 0
M  V30 26 C -5.499256 4.017530 0.861426 0
M  V30 27 C -0.031385 1.121558 0.409718 0
M  V30 28 C 0.708738 -0.024561 0.121798 0
M  V30 29 C 1.159437 -3.219764 -0.418104 0
M  V30 30 C -0.204956 -2.888111 -0.906557 0
M  V30 31 N 1.251231 -4.365848 0.318419 0
M  V30 32 C 2.472290 -4.747006 0.792292 0
M  V30 33 C 2.677340 -5.883832 1.546279 0
M  V30 34 C 3.935862 -6.217630 1.998887 0
M  V30 35 O 4.067939 -7.368277 2.747260 0
M  V30 36 C 2.959639 -8.179403 3.042987 0
M  V30 37 H 8.342475 -5.701183 2.142844 0
M  V30 38 H 7.439564 -4.295604 2.758944 0
M  V30 39 H 7.446181 -4.660449 0.951235 0
M  V30 40 H 5.676017 -3.691848 0.748956 0
M  V30 41 H 4.369706 -2.174847 -0.455056 0
M  V30 42 H 1.766820 0.893332 -2.984467 0
M  V30 43 H 0.431699 2.877419 -2.378823 0
M  V30 44 H -0.400562 3.971735 0.502015 0
M  V30 45 H -2.614002 5.075685 0.744630 0
M  V30 46 H -4.130391 5.618465 -1.848034 0
M  V30 47 H -6.490949 5.989150 -2.266679 0
M  V30 48 H -8.229885 5.110757 -0.701741 0
M  V30 49 H -5.074285 3.476922 1.706034 0
M  V30 50 H -0.512518 1.107030 1.396589 0
M  V30 51 H 0.782714 -0.835114 0.840499 0
M  V30 52 H -0.553366 -3.811867 -1.458097 0
M  V30 53 H -0.937694 -2.779315 -0.086530 0
M  V30 54 H -0.228856 -2.096273 -1.664628 0
M  V30 55 H 1.768358 -6.449284 1.725020 0
M  V30 56 H 2.620368 -8.761699 2.140522 0
M  V30 57 H 2.066439 -7.614916 3.402118 0
M  V30 58 H 3.211444 -8.891383 3.882261 0
M  V30 END ATOM
M  V30 BEGIN BOND
M  V30 1 1 1 2
M  V30 2 1 2 3
M  V30 3 2 3 4
M  V30 4 1 4 5
M  V30 5 2 5 6
M  V30 6 1 6 7
M  V30 7 1 7 8
M  V30 8 1 8 9
M  V30 9 2 9 10
M  V30 10 1 10 11
M  V30 11 2 11 12
M  V30 12 1 12 13
M  V30 13 1 13 14
M  V30 14 2 14 15
M  V30 15 1 14 16
M  V30 16 1 16 17
M  V30 17 2 17 18
M  V30 18 1 18 19
M  V30 19 2 19 20
M  V30 20 1 20 21
M  V30 21 1 21 22
M  V30 22 1 22 23
M  V30 23 1 22 24
M  V30 24 1 22 25
M  V30 25 2 21 26
M  V30 26 1 12 27
M  V30 27 2 27 28
M  V30 28 2 7 29
M  V30 29 1 29 30
M  V30 30 1 29 31
M  V30 31 2 31 32
M  V30 32 1 32 33
M  V30 33 2 33 34
M  V30 34 1 34 35
M  V30 35 1 35 36
M  V30 36 1 34 3
M  V30 37 1 32 5
M  V30 38 1 28 9
M  V30 39 1 26 17
M  V30 40 1 1 37
M  V30 41 1 1 38
M  V30 42 1 1 39
M  V30 43 1 4 40
M  V30 44 1 6 41
M  V30 45 1 10 42
M  V30 46 1 11 43
M  V30 47 1 13 44
M  V30 48 1 16 45
M  V30 49 1 18 46
M  V30 50 1 19 47
M  V30 51 1 20 48
M  V30 52 1 26 49
M  V30 53 1 27 50
M  V30 54 1 28 51
M  V30 55 1 30 52
M  V30 56 1 30 53
M  V30 57 1 30 54
M  V30 58 1 33 55
M  V30 59 1 36 56
M  V30 60 1 36 57
M  V30 61 1 36 58
M  V30 END BOND
M  V30 END CTAB
M  END
>  <Dataset>  (830) 
ChEMBL_Kinases

>  <Ligand_Instance>  (830) 
nan

>  <PDB_ID>  (830) 
nan

>  <Standardized_SMILES>  (830) 
COc1cc2cc(Oc3ccc(NC(=O)Nc4cccc(C(F)(F)F)c4)cc3)c(C)nc2cc1OC

>  <Name>  (830) 
nan

>  <Pocket>  (830) 
nan

>  <ATP_Site>  (830) 
nan

>  <Peripheral>  (830) 
nan

>  <Num_H_Atoms_ProtBoundConf>  (830) 
nan

>  <Num_Resolved_Atoms>  (830) 
nan

>  <Num_Not_Resolved_Atoms>  (830) 
nan

$$$$
CHEMBL4065087
     RDKit          3D

  0  0  0  0  0  0  0  0  0  0999 V3000
M  V30 BEGIN CTAB
M  V30 COUNTS 43 46 0 0 0
M  V30 BEGIN ATOM
M  V30 1 C 3.639657 -5.123613 -1.611406 0
M  V30 2 C 2.385142 -4.390690 -2.071577 0
M  V30 3 C 1.213721 -5.286003 -1.828176 0
M  V30 4 O 2.576579 -4.080773 -3.408561 0
M  V30 5 C 2.210590 -3.130111 -1.346018 0
M  V30 6 C 2.083742 -2.091968 -0.737095 0
M  V30 7 C 1.939328 -0.869187 0.007922 0
M  V30 8 C 0.692037 -0.598578 0.540008 0
M  V30 9 C 0.513720 0.564729 1.261116 0
M  V30 10 C 1.577358 1.460939 1.453760 0
M  V30 11 C 2.810651 1.184390 0.922499 0
M  V30 12 C 2.985547 0.017727 0.200503 0
M  V30 13 F 4.200976 -0.275427 -0.334866 0
M  V30 14 C 1.490316 2.757605 2.223722 0
M  V30 15 C 0.752232 2.554882 3.534364 0
M  V30 16 C -0.579019 2.945970 2.934457 0
M  V30 17 C 0.236719 3.457210 1.739642 0
M  V30 18 N -1.350716 1.764253 2.502591 0
M  V30 19 C -2.649897 1.533679 2.766673 0
M  V30 20 C -2.975571 0.315854 2.179023 0
M  V30 21 C -4.268586 -0.337443 2.202971 0
M  V30 22 N -5.383428 0.239973 2.866658 0
M  V30 23 O -4.462830 -1.460325 1.628897 0
M  V30 24 N -1.879779 -0.180200 1.567063 0
M  V30 25 C -0.878730 0.709982 1.765198 0
M  V30 26 H 3.403136 -6.143743 -1.237654 0
M  V30 27 H 4.438713 -5.111905 -2.351197 0
M  V30 28 H 4.014355 -4.574739 -0.706798 0
M  V30 29 H 0.382586 -4.677110 -1.416408 0
M  V30 30 H 1.471531 -6.031717 -1.022295 0
M  V30 31 H 0.867040 -5.816100 -2.738526 0
M  V30 32 H 2.378336 -4.830516 -4.007377 0
M  V30 33 H -0.171226 -1.239991 0.432957 0
M  V30 34 H 3.620370 1.900595 1.088633 0
M  V30 35 H 2.409322 3.327374 2.242091 0
M  V30 36 H 0.808156 1.545232 3.958610 0
M  V30 37 H 1.058145 3.327916 4.270698 0
M  V30 38 H -1.181652 3.679958 3.451440 0
M  V30 39 H -0.201247 3.089049 0.810813 0
M  V30 40 H 0.411389 4.551681 1.756501 0
M  V30 41 H -3.300617 2.186738 3.332142 0
M  V30 42 H -5.617511 -0.366987 3.680140 0
M  V30 43 H -5.695623 1.122011 2.385652 0
M  V30 END ATOM
M  V30 BEGIN BOND
M  V30 1 1 1 2
M  V30 2 1 2 3
M  V30 3 1 2 4
M  V30 4 1 2 5
M  V30 5 3 5 6
M  V30 6 1 6 7
M  V30 7 2 7 8
M  V30 8 1 8 9
M  V30 9 2 9 10
M  V30 10 1 10 11
M  V30 11 2 11 12
M  V30 12 1 12 13
M  V30 13 1 10 14
M  V30 14 1 14 15
M  V30 15 1 15 16
M  V30 16 1 16 17
M  V30 17 1 16 18
M  V30 18 1 18 19
M  V30 19 2 19 20
M  V30 20 1 20 21
M  V30 21 1 21 22
M  V30 22 2 21 23
M  V30 23 1 20 24
M  V30 24 2 24 25
M  V30 25 1 12 7
M  V30 26 1 17 14
M  V30 27 1 25 18
M  V30 28 1 25 9
M  V30 29 1 1 26
M  V30 30 1 1 27
M  V30 31 1 1 28
M  V30 32 1 3 29
M  V30 33 1 3 30
M  V30 34 1 3 31
M  V30 35 1 4 32
M  V30 36 1 8 33
M  V30 37 1 11 34
M  V30 38 1 14 35
M  V30 39 1 15 36
M  V30 40 1 15 37
M  V30 41 1 16 38
M  V30 42 1 17 39
M  V30 43 1 17 40
M  V30 44 1 19 41
M  V30 45 1 22 42
M  V30 46 1 22 43
M  V30 END BOND
M  V30 END CTAB
M  END
>  <Dataset>  (831) 
ChEMBL_Kinases

>  <Ligand_Instance>  (831) 
nan

>  <PDB_ID>  (831) 
nan

>  <Standardized_SMILES>  (831) 
CC(C)(O)C#Cc1cc2c(cc1F)C1CC(C1)n1cc(C(N)=O)nc1-2

>  <Name>  (831) 
nan

>  <Pocket>  (831) 
nan

>  <ATP_Site>  (831) 
nan

>  <Peripheral>  (831) 
nan

>  <Num_H_Atoms_ProtBoundConf>  (831) 
nan

>  <Num_Resolved_Atoms>  (831) 
nan

>  <Num_Not_Resolved_Atoms>  (831) 
nan

$$$$
CHEMBL4065063
     RDKit          3D

  0  0  0  0  0  0  0  0  0  0999 V3000
M  V30 BEGIN CTAB
M  V30 COUNTS 62 66 0 0 0
M  V30 BEGIN ATOM
M  V30 1 C 7.358682 -2.774986 5.143083 0
M  V30 2 N 6.450890 -1.795886 5.657133 0
M  V30 3 C 6.388710 -0.566420 4.928050 0
M  V30 4 C 5.978471 -0.831598 3.511814 0
M  V30 5 C 4.725087 -1.634367 3.373026 0
M  V30 6 O 3.607436 -0.783152 3.274341 0
M  V30 7 C 2.779645 -0.696869 2.173624 0
M  V30 8 C 1.784962 0.253845 2.449778 0
M  V30 9 C 0.795803 0.550017 1.498897 0
M  V30 10 N 0.804418 -0.085197 0.312774 0
M  V30 11 C 0.043659 -0.059613 -0.798104 0
M  V30 12 C -1.136463 0.779237 -1.010504 0
M  V30 13 C -1.214041 2.124904 -0.713699 0
M  V30 14 C -2.377294 2.848965 -0.943531 0
M  V30 15 C -3.429257 2.138495 -1.479821 0
M  V30 16 C -4.614297 2.956151 -1.694235 0
M  V30 17 N -5.930705 2.835849 -2.174901 0
M  V30 18 O -4.690104 4.170058 -1.434115 0
M  V30 19 C -3.424493 0.810639 -1.797722 0
M  V30 20 O -4.566706 0.223648 -2.335846 0
M  V30 21 C -4.499164 -1.155465 -2.644547 0
M  V30 22 C -5.787939 -1.651988 -3.211623 0
M  V30 23 C -6.721435 -2.133320 -2.298065 0
M  V30 24 C -7.945292 -2.614205 -2.730315 0
M  V30 25 C -8.264778 -2.626484 -4.072405 0
M  V30 26 C -7.309160 -2.138526 -4.955809 0
M  V30 27 C -6.084431 -1.653495 -4.564847 0
M  V30 28 C -2.232875 0.121266 -1.549715 0
M  V30 29 C 0.518220 -0.950211 -1.752987 0
M  V30 30 N 1.610756 -1.534630 -1.189909 0
M  V30 31 C 1.752282 -0.997239 0.038086 0
M  V30 32 C 2.742707 -1.318386 0.943834 0
M  V30 33 C 4.524006 -2.667581 4.437000 0
M  V30 34 C 5.115667 -2.301455 5.767129 0
M  V30 35 H 7.925999 -2.463303 4.243669 0
M  V30 36 H 6.814840 -3.695701 4.924691 0
M  V30 37 H 8.120736 -3.035724 5.912915 0
M  V30 38 H 5.656956 0.082837 5.447826 0
M  V30 39 H 7.375195 -0.065421 4.905996 0
M  V30 40 H 6.846901 -1.276359 2.983304 0
M  V30 41 H 5.810385 0.161615 3.022060 0
M  V30 42 H 4.789091 -2.190354 2.417898 0
M  V30 43 H 1.640581 0.846988 3.349353 0
M  V30 44 H 0.006223 1.271474 1.659075 0
M  V30 45 H -0.338272 2.601123 -0.296886 0
M  V30 46 H -2.406141 3.902123 -0.699884 0
M  V30 47 H -6.101369 1.890390 -1.726726 0
M  V30 48 H -6.788838 2.254481 -2.210444 0
M  V30 49 H -3.690922 -1.244602 -3.416452 0
M  V30 50 H -4.217804 -1.799347 -1.812841 0
M  V30 51 H -6.576738 -2.170313 -1.226899 0
M  V30 52 H -8.693587 -2.997265 -2.028771 0
M  V30 53 H -9.230874 -3.005951 -4.413323 0
M  V30 54 H -7.573171 -2.152714 -6.020884 0
M  V30 55 H -5.342938 -1.275642 -5.241740 0
M  V30 56 H -2.257696 -0.943872 -1.814761 0
M  V30 57 H 0.116666 -1.147368 -2.735817 0
M  V30 58 H 3.548962 -2.021661 0.847155 0
M  V30 59 H 4.927022 -3.660855 4.145814 0
M  V30 60 H 3.434694 -2.811026 4.591894 0
M  V30 61 H 5.132755 -3.198048 6.414673 0
M  V30 62 H 4.517196 -1.519746 6.306944 0
M  V30 END ATOM
M  V30 BEGIN BOND
M  V30 1 1 1 2
M  V30 2 1 2 3
M  V30 3 1 3 4
M  V30 4 1 4 5
M  V30 5 1 5 6
M  V30 6 1 6 7
M  V30 7 1 7 8
M  V30 8 2 8 9
M  V30 9 1 9 10
M  V30 10 1 10 11
M  V30 11 1 11 12
M  V30 12 2 12 13
M  V30 13 1 13 14
M  V30 14 2 14 15
M  V30 15 1 15 16
M  V30 16 1 16 17
M  V30 17 2 16 18
M  V30 18 1 15 19
M  V30 19 1 19 20
M  V30 20 1 20 21
M  V30 21 1 21 22
M  V30 22 2 22 23
M  V30 23 1 23 24
M  V30 24 2 24 25
M  V30 25 1 25 26
M  V30 26 2 26 27
M  V30 27 2 19 28
M  V30 28 2 11 29
M  V30 29 1 29 30
M  V30 30 2 30 31
M  V30 31 1 31 32
M  V30 32 1 5 33
M  V30 33 1 33 34
M  V30 34 1 34 2
M  V30 35 2 32 7
M  V30 36 1 31 10
M  V30 37 1 28 12
M  V30 38 1 27 22
M  V30 39 1 1 35
M  V30 40 1 1 36
M  V30 41 1 1 37
M  V30 42 1 3 38
M  V30 43 1 3 39
M  V30 44 1 4 40
M  V30 45 1 4 41
M  V30 46 1 5 42
M  V30 47 1 8 43
M  V30 48 1 9 44
M  V30 49 1 13 45
M  V30 50 1 14 46
M  V30 51 1 17 47
M  V30 52 1 17 48
M  V30 53 1 21 49
M  V30 54 1 21 50
M  V30 55 1 23 51
M  V30 56 1 24 52
M  V30 57 1 25 53
M  V30 58 1 26 54
M  V30 59 1 27 55
M  V30 60 1 28 56
M  V30 61 1 29 57
M  V30 62 1 32 58
M  V30 63 1 33 59
M  V30 64 1 33 60
M  V30 65 1 34 61
M  V30 66 1 34 62
M  V30 END BOND
M  V30 END CTAB
M  END
>  <Dataset>  (832) 
ChEMBL_Kinases

>  <Ligand_Instance>  (832) 
nan

>  <PDB_ID>  (832) 
nan

>  <Standardized_SMILES>  (832) 
CN1CCC(Oc2ccn3c(-c4ccc(C(N)=O)c(OCc5ccccc5)c4)cnc3c2)CC1

>  <Name>  (832) 
nan

>  <Pocket>  (832) 
nan

>  <ATP_Site>  (832) 
nan

>  <Peripheral>  (832) 
nan

>  <Num_H_Atoms_ProtBoundConf>  (832) 
nan

>  <Num_Resolved_Atoms>  (832) 
nan

>  <Num_Not_Resolved_Atoms>  (832) 
nan

$$$$
CHEMBL4065027
     RDKit          3D

  0  0  0  0  0  0  0  0  0  0999 V3000
M  V30 BEGIN CTAB
M  V30 COUNTS 33 36 0 0 0
M  V30 BEGIN ATOM
M  V30 1 C -0.040945 -5.085816 3.112082 0
M  V30 2 S -0.059241 -3.432490 3.812483 0
M  V30 3 C 0.033328 -2.146987 2.557706 0
M  V30 4 S 1.631216 -1.432215 1.916337 0
M  V30 5 C 0.935981 -0.355602 0.837793 0
M  V30 6 C 1.854008 0.477512 0.056253 0
M  V30 7 O 3.103910 0.302642 0.272704 0
M  V30 8 N 1.700360 1.485180 -0.934910 0
M  V30 9 C 2.920979 2.034811 -1.428262 0
M  V30 10 C 3.558365 1.479530 -2.519567 0
M  V30 11 C 4.718820 2.216552 -2.776478 0
M  V30 12 O 4.725493 3.159333 -1.849078 0
M  V30 13 N 3.705480 3.068627 -1.071882 0
M  V30 14 C -0.461349 -0.507109 0.935349 0
M  V30 15 C -0.844291 -1.441980 1.835876 0
M  V30 16 C -2.373565 -1.672711 1.991968 0
M  V30 17 S -3.251599 -2.701814 2.973105 0
M  V30 18 N -4.935052 -2.168587 2.375362 0
M  V30 19 C -4.546802 -1.212793 1.446042 0
M  V30 20 C -3.226851 -0.954811 1.245910 0
M  V30 21 C -2.827401 0.059133 0.251613 0
M  V30 22 C -1.392663 0.278820 0.136255 0
M  V30 23 H 0.160711 -5.109103 2.020769 0
M  V30 24 H -1.022967 -5.567555 3.354276 0
M  V30 25 H 0.744412 -5.734837 3.569837 0
M  V30 26 H 0.696116 1.668831 -1.150918 0
M  V30 27 H 3.306550 0.636731 -3.139687 0
M  V30 28 H 5.490350 2.120180 -3.527685 0
M  V30 29 H -5.488003 -0.861924 1.059662 0
M  V30 30 H -3.330014 1.052840 0.480548 0
M  V30 31 H -3.292734 -0.172936 -0.759022 0
M  V30 32 H -1.112436 0.162913 -0.958448 0
M  V30 33 H -1.139188 1.373563 0.309115 0
M  V30 END ATOM
M  V30 BEGIN BOND
M  V30 1 1 1 2
M  V30 2 1 2 3
M  V30 3 1 3 4
M  V30 4 1 4 5
M  V30 5 1 5 6
M  V30 6 2 6 7
M  V30 7 1 6 8
M  V30 8 1 8 9
M  V30 9 1 9 10
M  V30 10 2 10 11
M  V30 11 1 11 12
M  V30 12 1 12 13
M  V30 13 2 5 14
M  V30 14 1 14 15
M  V30 15 1 15 16
M  V30 16 1 16 17
M  V30 17 1 17 18
M  V30 18 2 18 19
M  V30 19 1 19 20
M  V30 20 1 20 21
M  V30 21 1 21 22
M  V30 22 2 15 3
M  V30 23 2 20 16
M  V30 24 2 13 9
M  V30 25 1 22 14
M  V30 26 1 1 23
M  V30 27 1 1 24
M  V30 28 1 1 25
M  V30 29 1 8 26
M  V30 30 1 10 27
M  V30 31 1 11 28
M  V30 32 1 19 29
M  V30 33 1 21 30
M  V30 34 1 21 31
M  V30 35 1 22 32
M  V30 36 1 22 33
M  V30 END BOND
M  V30 END CTAB
M  END
>  <Dataset>  (833) 
ChEMBL_Kinases

>  <Ligand_Instance>  (833) 
nan

>  <PDB_ID>  (833) 
nan

>  <Standardized_SMILES>  (833) 
CSc1sc(C(=O)Nc2ccon2)c2c1-c1sncc1CC2

>  <Name>  (833) 
nan

>  <Pocket>  (833) 
nan

>  <ATP_Site>  (833) 
nan

>  <Peripheral>  (833) 
nan

>  <Num_H_Atoms_ProtBoundConf>  (833) 
nan

>  <Num_Resolved_Atoms>  (833) 
nan

>  <Num_Not_Resolved_Atoms>  (833) 
nan

$$$$
CHEMBL4065023
     RDKit          3D

  0  0  0  0  0  0  0  0  0  0999 V3000
M  V30 BEGIN CTAB
M  V30 COUNTS 54 58 0 0 0
M  V30 BEGIN ATOM
M  V30 1 C -0.947984 -3.384263 7.433094 0
M  V30 2 C 0.501320 -3.518155 7.044953 0
M  V30 3 C 0.723286 -2.754919 5.793058 0
M  V30 4 C 1.115208 -1.417067 5.877953 0
M  V30 5 C 1.364250 -0.638782 4.736805 0
M  V30 6 C 1.193844 -1.290008 3.529623 0
M  V30 7 C 1.379971 -0.776989 2.242934 0
M  V30 8 C 1.768191 0.573252 1.894037 0
M  V30 9 C 1.638305 1.108866 0.708415 0
M  V30 10 O 1.103509 0.418848 -0.368185 0
M  V30 11 C 1.070265 1.201662 -1.518002 0
M  V30 12 C 1.601212 2.458070 -1.198125 0
M  V30 13 C 1.688067 3.451972 -2.167108 0
M  V30 14 C 1.235850 3.163584 -3.457183 0
M  V30 15 C 0.720702 1.909152 -3.724487 0
M  V30 16 O 0.254540 1.574622 -5.010847 0
M  V30 17 C 0.616074 0.899320 -2.799343 0
M  V30 18 C 0.114764 -0.444388 -3.044364 0
M  V30 19 N -1.162456 -0.777504 -2.525416 0
M  V30 20 C -2.265970 0.007965 -2.971411 0
M  V30 21 C -3.443775 -0.355407 -2.057539 0
M  V30 22 N -3.813083 -1.733562 -2.233839 0
M  V30 23 C -2.838270 -2.525531 -2.949549 0
M  V30 24 C -1.423442 -2.207044 -2.601605 0
M  V30 25 C 1.981253 2.451400 0.218595 0
M  V30 26 O 2.484307 3.355911 0.895996 0
M  V30 27 C 1.086554 -1.849067 1.429963 0
M  V30 28 N 0.740945 -2.956715 2.143591 0
M  V30 29 C 0.804046 -2.619370 3.450828 0
M  V30 30 N 0.573333 -3.334938 4.586581 0
M  V30 31 H -1.150906 -2.287652 7.494969 0
M  V30 32 H -1.606061 -3.779620 6.614577 0
M  V30 33 H -1.158694 -3.846404 8.419327 0
M  V30 34 H 1.110690 -3.048842 7.843199 0
M  V30 35 H 0.749879 -4.584757 6.904701 0
M  V30 36 H 1.225961 -0.988036 6.852335 0
M  V30 37 H 1.664104 0.379585 4.838044 0
M  V30 38 H 2.210017 1.194015 2.692241 0
M  V30 39 H 2.093104 4.425820 -1.941651 0
M  V30 40 H 1.285909 3.918588 -4.259754 0
M  V30 41 H 0.955412 1.158785 -5.631009 0
M  V30 42 H 0.891304 -1.152365 -2.625582 0
M  V30 43 H 0.069467 -0.643827 -4.157060 0
M  V30 44 H -2.041349 1.077272 -2.814235 0
M  V30 45 H -2.547407 -0.134947 -4.034636 0
M  V30 46 H -3.034069 -0.259803 -1.005256 0
M  V30 47 H -4.276946 0.363543 -2.206744 0
M  V30 48 H -4.066794 -2.188927 -1.310854 0
M  V30 49 H -3.026488 -2.535738 -4.032673 0
M  V30 50 H -3.017203 -3.581709 -2.605224 0
M  V30 51 H -1.132275 -2.646732 -1.634762 0
M  V30 52 H -0.774578 -2.645210 -3.418203 0
M  V30 53 H 1.125049 -1.827366 0.348488 0
M  V30 54 H 0.478012 -3.880042 1.719041 0
M  V30 END ATOM
M  V30 BEGIN BOND
M  V30 1 1 1 2
M  V30 2 1 2 3
M  V30 3 2 3 4
M  V30 4 1 4 5
M  V30 5 2 5 6
M  V30 6 1 6 7
M  V30 7 1 7 8
M  V30 8 2 8 9
M  V30 9 1 9 10
M  V30 10 1 10 11
M  V30 11 2 11 12
M  V30 12 1 12 13
M  V30 13 2 13 14
M  V30 14 1 14 15
M  V30 15 1 15 16
M  V30 16 2 15 17
M  V30 17 1 17 18
M  V30 18 1 18 19
M  V30 19 1 19 20
M  V30 20 1 20 21
M  V30 21 1 21 22
M  V30 22 1 22 23
M  V30 23 1 23 24
M  V30 24 1 12 25
M  V30 25 2 25 26
M  V30 26 2 7 27
M  V30 27 1 27 28
M  V30 28 1 28 29
M  V30 29 2 29 30
M  V30 30 1 30 3
M  V30 31 1 29 6
M  V30 32 1 25 9
M  V30 33 1 17 11
M  V30 34 1 24 19
M  V30 35 1 1 31
M  V30 36 1 1 32
M  V30 37 1 1 33
M  V30 38 1 2 34
M  V30 39 1 2 35
M  V30 40 1 4 36
M  V30 41 1 5 37
M  V30 42 1 8 38
M  V30 43 1 13 39
M  V30 44 1 14 40
M  V30 45 1 16 41
M  V30 46 1 18 42
M  V30 47 1 18 43
M  V30 48 1 20 44
M  V30 49 1 20 45
M  V30 50 1 21 46
M  V30 51 1 21 47
M  V30 52 1 22 48
M  V30 53 1 23 49
M  V30 54 1 23 50
M  V30 55 1 24 51
M  V30 56 1 24 52
M  V30 57 1 27 53
M  V30 58 1 28 54
M  V30 END BOND
M  V30 END CTAB
M  END
>  <Dataset>  (834) 
ChEMBL_Kinases

>  <Ligand_Instance>  (834) 
nan

>  <PDB_ID>  (834) 
nan

>  <Standardized_SMILES>  (834) 
CCc1ccc2c(/C=C3\Oc4c(ccc(O)c4CN4CCNCC4)C3=O)c[nH]c2n1

>  <Name>  (834) 
nan

>  <Pocket>  (834) 
nan

>  <ATP_Site>  (834) 
nan

>  <Peripheral>  (834) 
nan

>  <Num_H_Atoms_ProtBoundConf>  (834) 
nan

>  <Num_Resolved_Atoms>  (834) 
nan

>  <Num_Not_Resolved_Atoms>  (834) 
nan

$$$$
CHEMBL4861615
     RDKit          3D

  0  0  0  0  0  0  0  0  0  0999 V3000
M  V30 BEGIN CTAB
M  V30 COUNTS 33 35 0 0 0
M  V30 BEGIN ATOM
M  V30 1 C -0.891284 -3.215259 2.304870 0
M  V30 2 N 0.491707 -3.279094 1.813564 0
M  V30 3 C 1.176595 -4.528806 1.939301 0
M  V30 4 C 1.111980 -2.116207 1.232336 0
M  V30 5 N 2.374632 -2.119840 0.767770 0
M  V30 6 C 2.920354 -1.013747 0.231436 0
M  V30 7 C 2.159690 0.132491 0.164788 0
M  V30 8 C 2.723957 1.354749 -0.418142 0
M  V30 9 F 2.770022 2.367733 0.507961 0
M  V30 10 F 1.870414 1.796935 -1.445379 0
M  V30 11 F 3.964678 1.096569 -0.957905 0
M  V30 12 C 0.868161 0.179761 0.626951 0
M  V30 13 C -0.087068 1.274987 0.621428 0
M  V30 14 C -0.259618 2.554249 1.104324 0
M  V30 15 N -1.441495 3.038345 0.735217 0
M  V30 16 N -2.093316 2.132771 0.011410 0
M  V30 17 N -3.292792 2.264978 -0.522011 0
M  V30 18 C -3.852934 1.269502 -1.239881 0
M  V30 19 C -3.105048 0.120374 -1.380423 0
M  V30 20 C -1.856360 0.014321 -0.811236 0
M  V30 21 C -1.289833 1.056570 -0.069336 0
M  V30 22 N 0.409050 -0.995069 1.151989 0
M  V30 23 H -1.571840 -3.283049 1.421355 0
M  V30 24 H -1.036135 -2.168880 2.687761 0
M  V30 25 H -1.079642 -3.963955 3.073574 0
M  V30 26 H 0.565435 -5.402297 1.575374 0
M  V30 27 H 2.115218 -4.545535 1.324339 0
M  V30 28 H 1.410699 -4.689877 3.020472 0
M  V30 29 H 3.931647 -0.979366 -0.151363 0
M  V30 30 H 0.525865 2.990261 1.696426 0
M  V30 31 H -4.832689 1.307416 -1.706227 0
M  V30 32 H -3.475261 -0.741015 -1.945203 0
M  V30 33 H -1.283808 -0.892086 -0.930433 0
M  V30 END ATOM
M  V30 BEGIN BOND
M  V30 1 1 1 2
M  V30 2 1 2 3
M  V30 3 1 2 4
M  V30 4 2 4 5
M  V30 5 1 5 6
M  V30 6 2 6 7
M  V30 7 1 7 8
M  V30 8 1 8 9
M  V30 9 1 8 10
M  V30 10 1 8 11
M  V30 11 1 7 12
M  V30 12 1 12 13
M  V30 13 1 13 14
M  V30 14 2 14 15
M  V30 15 1 15 16
M  V30 16 1 16 17
M  V30 17 2 17 18
M  V30 18 1 18 19
M  V30 19 2 19 20
M  V30 20 1 20 21
M  V30 21 2 12 22
M  V30 22 1 22 4
M  V30 23 2 21 13
M  V30 24 1 21 16
M  V30 25 1 1 23
M  V30 26 1 1 24
M  V30 27 1 1 25
M  V30 28 1 3 26
M  V30 29 1 3 27
M  V30 30 1 3 28
M  V30 31 1 6 29
M  V30 32 1 14 30
M  V30 33 1 18 31
M  V30 34 1 19 32
M  V30 35 1 20 33
M  V30 END BOND
M  V30 END CTAB
M  END
>  <Dataset>  (835) 
ChEMBL_Kinases

>  <Ligand_Instance>  (835) 
nan

>  <PDB_ID>  (835) 
nan

>  <Standardized_SMILES>  (835) 
CN(C)c1ncc(C(F)(F)F)c(-c2cnn3ncccc23)n1

>  <Name>  (835) 
nan

>  <Pocket>  (835) 
nan

>  <ATP_Site>  (835) 
nan

>  <Peripheral>  (835) 
nan

>  <Num_H_Atoms_ProtBoundConf>  (835) 
nan

>  <Num_Resolved_Atoms>  (835) 
nan

>  <Num_Not_Resolved_Atoms>  (835) 
nan

$$$$
CHEMBL4064936
     RDKit          3D

  0  0  0  0  0  0  0  0  0  0999 V3000
M  V30 BEGIN CTAB
M  V30 COUNTS 46 49 0 0 0
M  V30 BEGIN ATOM
M  V30 1 C 1.376697 -3.236151 2.424579 0
M  V30 2 N 0.087739 -2.743809 1.979106 0
M  V30 3 C 0.046885 -1.834763 0.994343 0
M  V30 4 N 1.135276 -1.232943 0.318320 0
M  V30 5 C 0.790677 -0.350599 -0.795299 0
M  V30 6 C 1.806120 -0.495375 -1.911141 0
M  V30 7 N 3.115352 -0.038077 -1.472254 0
M  V30 8 C 3.248194 -0.056284 -0.053669 0
M  V30 9 C 2.910596 1.174613 0.655122 0
M  V30 10 C 2.168794 1.254946 1.837376 0
M  V30 11 C 1.857289 2.419434 2.503038 0
M  V30 12 C 2.324898 3.604603 1.942777 0
M  V30 13 C 3.063216 3.547544 0.769568 0
M  V30 14 F 3.458331 4.787287 0.331223 0
M  V30 15 C 3.363276 2.367626 0.119756 0
M  V30 16 C 2.556446 -1.287849 0.491450 0
M  V30 17 N -1.199612 -1.474000 0.661918 0
M  V30 18 C -2.328895 -1.922267 1.203136 0
M  V30 19 C -3.589968 -1.401686 0.696145 0
M  V30 20 C -4.820202 -1.788422 1.175480 0
M  V30 21 C -6.020388 -1.317097 0.719664 0
M  V30 22 N -6.001868 -0.400695 -0.278232 0
M  V30 23 C -4.809820 -0.013192 -0.756497 0
M  V30 24 N -3.617935 -0.489122 -0.295281 0
M  V30 25 C -2.232669 -2.850454 2.207170 0
M  V30 26 C -0.982366 -3.266716 2.598899 0
M  V30 27 O -0.845989 -4.122177 3.521742 0
M  V30 28 H 2.037551 -3.518971 1.580392 0
M  V30 29 H 1.240375 -4.239359 2.956072 0
M  V30 30 H 1.835795 -2.610811 3.202093 0
M  V30 31 H -0.179875 -0.694167 -1.267398 0
M  V30 32 H 0.589196 0.682924 -0.496720 0
M  V30 33 H 1.881924 -1.575108 -2.146377 0
M  V30 34 H 1.418368 0.042824 -2.781371 0
M  V30 35 H 3.343140 0.835818 -1.953428 0
M  V30 36 H 4.349337 -0.235297 0.157204 0
M  V30 37 H 1.814662 0.303258 2.253147 0
M  V30 38 H 1.266438 2.333740 3.423159 0
M  V30 39 H 2.081983 4.519822 2.464476 0
M  V30 40 H 3.949354 2.455565 -0.791850 0
M  V30 41 H 2.902127 -1.351943 1.545061 0
M  V30 42 H 3.048396 -2.142670 -0.048627 0
M  V30 43 H -4.842590 -2.517281 1.969516 0
M  V30 44 H -6.976515 -1.642942 1.118905 0
M  V30 45 H -4.634177 0.717822 -1.560983 0
M  V30 46 H -3.097268 -3.244069 2.676192 0
M  V30 END ATOM
M  V30 BEGIN BOND
M  V30 1 1 1 2
M  V30 2 1 2 3
M  V30 3 1 3 4
M  V30 4 1 4 5
M  V30 5 1 5 6
M  V30 6 1 6 7
M  V30 7 1 7 8
M  V30 8 1 8 9
M  V30 9 2 9 10
M  V30 10 1 10 11
M  V30 11 2 11 12
M  V30 12 1 12 13
M  V30 13 1 13 14
M  V30 14 2 13 15
M  V30 15 1 8 16
M  V30 16 2 3 17
M  V30 17 1 17 18
M  V30 18 1 18 19
M  V30 19 2 19 20
M  V30 20 1 20 21
M  V30 21 2 21 22
M  V30 22 1 22 23
M  V30 23 2 23 24
M  V30 24 2 18 25
M  V30 25 1 25 26
M  V30 26 2 26 27
M  V30 27 1 26 2
M  V30 28 1 16 4
M  V30 29 1 24 19
M  V30 30 1 15 9
M  V30 31 1 1 28
M  V30 32 1 1 29
M  V30 33 1 1 30
M  V30 34 1 5 31
M  V30 35 1 5 32
M  V30 36 1 6 33
M  V30 37 1 6 34
M  V30 38 1 7 35
M  V30 39 1 8 36
M  V30 40 1 10 37
M  V30 41 1 11 38
M  V30 42 1 12 39
M  V30 43 1 15 40
M  V30 44 1 16 41
M  V30 45 1 16 42
M  V30 46 1 20 43
M  V30 47 1 21 44
M  V30 48 1 23 45
M  V30 49 1 25 46
M  V30 END BOND
M  V30 END CTAB
M  END
>  <Dataset>  (836) 
ChEMBL_Kinases

>  <Ligand_Instance>  (836) 
nan

>  <PDB_ID>  (836) 
nan

>  <Standardized_SMILES>  (836) 
Cn1c(N2CCNC(c3cccc(F)c3)C2)nc(-c2ccncn2)cc1=O

>  <Name>  (836) 
nan

>  <Pocket>  (836) 
nan

>  <ATP_Site>  (836) 
nan

>  <Peripheral>  (836) 
nan

>  <Num_H_Atoms_ProtBoundConf>  (836) 
nan

>  <Num_Resolved_Atoms>  (836) 
nan

>  <Num_Not_Resolved_Atoms>  (836) 
nan

$$$$
CHEMBL4065244
     RDKit          3D

  0  0  0  0  0  0  0  0  0  0999 V3000
M  V30 BEGIN CTAB
M  V30 COUNTS 38 40 0 0 0
M  V30 BEGIN ATOM
M  V30 1 O 3.168829 0.107456 -0.851606 0
M  V30 2 C 2.002581 0.147409 -0.360176 0
M  V30 3 N 1.774455 -1.009194 0.408386 0
M  V30 4 C 2.816390 -1.974187 0.505999 0
M  V30 5 C 2.809370 -2.971733 -0.470768 0
M  V30 6 C 3.807920 -3.935931 -0.415514 0
M  V30 7 N 4.766035 -3.922868 0.549612 0
M  V30 8 N 4.740147 -2.964235 1.455835 0
M  V30 9 C 3.808777 -1.994445 1.472798 0
M  V30 10 C 1.147206 1.282034 -0.638049 0
M  V30 11 C 1.646115 2.286680 -1.438325 0
M  V30 12 C 0.906398 3.401696 -1.755905 0
M  V30 13 Br 1.685728 4.740960 -2.873130 0
M  V30 14 C -0.379843 3.586920 -1.295432 0
M  V30 15 C -0.903819 2.597979 -0.493167 0
M  V30 16 C -0.133965 1.499298 -0.198315 0
M  V30 17 O -0.710401 0.536462 0.612017 0
M  V30 18 C -1.994424 0.578414 1.154250 0
M  V30 19 C -2.295281 -0.620800 1.979523 0
M  V30 20 C -2.007161 -0.617763 3.333085 0
M  V30 21 C -2.295490 -1.749490 4.091067 0
M  V30 22 C -2.861696 -2.873893 3.524415 0
M  V30 23 C -3.146293 -2.865558 2.166184 0
M  V30 24 C -2.865866 -1.745980 1.393664 0
M  V30 25 H 0.840646 -1.085976 0.864683 0
M  V30 26 H 2.055456 -3.000829 -1.248492 0
M  V30 27 H 3.834539 -4.733357 -1.164289 0
M  V30 28 H 3.751045 -1.201297 2.186485 0
M  V30 29 H 2.662567 2.214405 -1.845007 0
M  V30 30 H -0.906026 4.480306 -1.579226 0
M  V30 31 H -1.906088 2.694921 -0.106987 0
M  V30 32 H -2.205738 1.492153 1.754620 0
M  V30 33 H -2.721667 0.555246 0.293498 0
M  V30 34 H -1.563602 0.264676 3.774021 0
M  V30 35 H -2.078242 -1.770616 5.155527 0
M  V30 36 H -3.093322 -3.770318 4.109486 0
M  V30 37 H -3.590566 -3.741842 1.710366 0
M  V30 38 H -3.089996 -1.737838 0.321051 0
M  V30 END ATOM
M  V30 BEGIN BOND
M  V30 1 2 1 2
M  V30 2 1 2 3
M  V30 3 1 3 4
M  V30 4 2 4 5
M  V30 5 1 5 6
M  V30 6 2 6 7
M  V30 7 1 7 8
M  V30 8 2 8 9
M  V30 9 1 2 10
M  V30 10 2 10 11
M  V30 11 1 11 12
M  V30 12 1 12 13
M  V30 13 2 12 14
M  V30 14 1 14 15
M  V30 15 2 15 16
M  V30 16 1 16 17
M  V30 17 1 17 18
M  V30 18 1 18 19
M  V30 19 2 19 20
M  V30 20 1 20 21
M  V30 21 2 21 22
M  V30 22 1 22 23
M  V30 23 2 23 24
M  V30 24 1 9 4
M  V30 25 1 16 10
M  V30 26 1 24 19
M  V30 27 1 3 25
M  V30 28 1 5 26
M  V30 29 1 6 27
M  V30 30 1 9 28
M  V30 31 1 11 29
M  V30 32 1 14 30
M  V30 33 1 15 31
M  V30 34 1 18 32
M  V30 35 1 18 33
M  V30 36 1 20 34
M  V30 37 1 21 35
M  V30 38 1 22 36
M  V30 39 1 23 37
M  V30 40 1 24 38
M  V30 END BOND
M  V30 END CTAB
M  END
>  <Dataset>  (837) 
ChEMBL_Kinases

>  <Ligand_Instance>  (837) 
nan

>  <PDB_ID>  (837) 
nan

>  <Standardized_SMILES>  (837) 
O=C(Nc1ccnnc1)c1cc(Br)ccc1OCc1ccccc1

>  <Name>  (837) 
nan

>  <Pocket>  (837) 
nan

>  <ATP_Site>  (837) 
nan

>  <Peripheral>  (837) 
nan

>  <Num_H_Atoms_ProtBoundConf>  (837) 
nan

>  <Num_Resolved_Atoms>  (837) 
nan

>  <Num_Not_Resolved_Atoms>  (837) 
nan

$$$$
CHEMBL4069709
     RDKit          3D

  0  0  0  0  0  0  0  0  0  0999 V3000
M  V30 BEGIN CTAB
M  V30 COUNTS 37 40 0 0 0
M  V30 BEGIN ATOM
M  V30 1 C -0.325829 -6.253413 3.052231 0
M  V30 2 O 1.031523 -6.142033 2.620078 0
M  V30 3 C 1.360841 -4.994875 1.923695 0
M  V30 4 C 0.405337 -4.024553 1.674085 0
M  V30 5 C 0.779916 -2.894962 0.974532 0
M  V30 6 C 2.085744 -2.754171 0.541018 0
M  V30 7 O 2.458475 -1.608859 -0.166332 0
M  V30 8 C 1.551379 -0.593255 -0.453167 0
M  V30 9 C 0.840836 -0.685881 -1.647809 0
M  V30 10 C -0.062893 0.313426 -1.947265 0
M  V30 11 C -0.302005 1.400278 -1.128306 0
M  V30 12 C -1.204377 2.400442 -1.424754 0
M  V30 13 C -1.343108 3.442851 -0.499862 0
M  V30 14 N -0.623377 3.477071 0.645140 0
M  V30 15 C 0.250448 2.487466 0.909188 0
M  V30 16 O 0.878081 2.596524 1.994190 0
M  V30 17 C 0.436942 1.430341 0.041727 0
M  V30 18 C 1.355998 0.468925 0.406151 0
M  V30 19 C -1.002571 4.669965 1.364299 0
M  V30 20 S -0.380149 5.128663 2.823119 0
M  V30 21 N -1.987057 5.355921 0.598334 0
M  V30 22 C -2.227611 4.607488 -0.589206 0
M  V30 23 O -3.047611 4.966510 -1.459070 0
M  V30 24 C 3.069495 -3.695640 0.767619 0
M  V30 25 C 2.648450 -4.811952 1.472940 0
M  V30 26 H -0.561507 -7.236061 3.467713 0
M  V30 27 H -0.965933 -6.115137 2.144555 0
M  V30 28 H -0.496791 -5.472622 3.815581 0
M  V30 29 H -0.614817 -4.110493 2.000060 0
M  V30 30 H 0.100095 -2.081230 0.731794 0
M  V30 31 H 0.933109 -1.479946 -2.373011 0
M  V30 32 H -0.640500 0.282241 -2.870226 0
M  V30 33 H -1.759431 2.352186 -2.331659 0
M  V30 34 H 1.920377 0.510437 1.320038 0
M  V30 35 H -2.403312 6.255744 0.940400 0
M  V30 36 H 4.076814 -3.556964 0.417324 0
M  V30 37 H 3.362663 -5.590859 1.687827 0
M  V30 END ATOM
M  V30 BEGIN BOND
M  V30 1 1 1 2
M  V30 2 1 2 3
M  V30 3 2 3 4
M  V30 4 1 4 5
M  V30 5 2 5 6
M  V30 6 1 6 7
M  V30 7 1 7 8
M  V30 8 2 8 9
M  V30 9 1 9 10
M  V30 10 2 10 11
M  V30 11 1 11 12
M  V30 12 2 12 13
M  V30 13 1 13 14
M  V30 14 1 14 15
M  V30 15 2 15 16
M  V30 16 1 15 17
M  V30 17 2 17 18
M  V30 18 1 14 19
M  V30 19 2 19 20
M  V30 20 1 19 21
M  V30 21 1 21 22
M  V30 22 2 22 23
M  V30 23 1 6 24
M  V30 24 2 24 25
M  V30 25 1 25 3
M  V30 26 1 18 8
M  V30 27 1 17 11
M  V30 28 1 22 13
M  V30 29 1 1 26
M  V30 30 1 1 27
M  V30 31 1 1 28
M  V30 32 1 4 29
M  V30 33 1 5 30
M  V30 34 1 9 31
M  V30 35 1 10 32
M  V30 36 1 12 33
M  V30 37 1 18 34
M  V30 38 1 21 35
M  V30 39 1 24 36
M  V30 40 1 25 37
M  V30 END BOND
M  V30 END CTAB
M  END
>  <Dataset>  (838) 
ChEMBL_Kinases

>  <Ligand_Instance>  (838) 
nan

>  <PDB_ID>  (838) 
nan

>  <Standardized_SMILES>  (838) 
COc1ccc(Oc2ccc3cc4n(c(=O)c3c2)C(=S)NC4=O)cc1

>  <Name>  (838) 
nan

>  <Pocket>  (838) 
nan

>  <ATP_Site>  (838) 
nan

>  <Peripheral>  (838) 
nan

>  <Num_H_Atoms_ProtBoundConf>  (838) 
nan

>  <Num_Resolved_Atoms>  (838) 
nan

>  <Num_Not_Resolved_Atoms>  (838) 
nan

$$$$
CHEMBL4069612
     RDKit          3D

  0  0  0  0  0  0  0  0  0  0999 V3000
M  V30 BEGIN CTAB
M  V30 COUNTS 63 67 0 0 0
M  V30 BEGIN ATOM
M  V30 1 O 2.090087 0.460871 -1.781554 0
M  V30 2 C 2.938725 0.325397 -2.712942 0
M  V30 3 N 4.188776 -0.199787 -2.255288 0
M  V30 4 C 4.046505 -0.402577 -0.832048 0
M  V30 5 C 3.564910 -1.639722 -0.483083 0
M  V30 6 C 3.422245 -1.849683 0.894116 0
M  V30 7 C 3.761424 -0.842453 1.770566 0
M  V30 8 C 4.249817 0.405243 1.367420 0
M  V30 9 C 4.558879 1.345275 2.472844 0
M  V30 10 N 3.346991 2.117409 2.745795 0
M  V30 11 C 2.092329 1.492717 3.094632 0
M  V30 12 N 1.184605 1.199721 2.405280 0
M  V30 13 C 0.047134 0.627368 2.727729 0
M  V30 14 C -0.972626 0.318060 1.854900 0
M  V30 15 C -2.101191 -0.272165 2.316429 0
M  V30 16 C -2.341906 -0.609300 3.629202 0
M  V30 17 O -3.275401 -1.167524 4.405336 0
M  V30 18 C -4.503349 -1.714278 4.324080 0
M  V30 19 C -4.723523 -2.930588 3.486098 0
M  V30 20 N -4.459517 -2.778523 2.078538 0
M  V30 21 C -5.437953 -1.913053 1.438367 0
M  V30 22 C -5.495452 -2.111441 -0.040881 0
M  V30 23 O -4.397563 -2.717489 -0.597944 0
M  V30 24 C -3.965700 -3.865501 0.018314 0
M  V30 25 C -4.503549 -4.065936 1.418503 0
M  V30 26 C -1.301409 -0.293854 4.522537 0
M  V30 27 C -0.114808 0.321032 4.073781 0
M  V30 28 S 1.409875 0.889862 4.790355 0
M  V30 29 C 4.390964 0.616797 0.026071 0
M  V30 30 C 2.578827 0.695718 -4.078670 0
M  V30 31 C 1.294492 1.170200 -4.233669 0
M  V30 32 C 0.870748 1.546243 -5.508776 0
M  V30 33 C 1.760005 1.425937 -6.566728 0
M  V30 34 Cl 1.270485 1.886813 -8.193826 0
M  V30 35 C 3.023518 0.945869 -6.339984 0
M  V30 36 C 3.494229 0.560016 -5.099218 0
M  V30 37 H 4.917236 -0.322286 -3.021147 0
M  V30 38 H 3.312257 -2.401240 -1.206639 0
M  V30 39 H 3.047488 -2.802950 1.239284 0
M  V30 40 H 3.620781 -1.086371 2.829448 0
M  V30 41 H 4.798316 0.807187 3.392032 0
M  V30 42 H 5.336460 2.083552 2.185590 0
M  V30 43 H 3.298110 3.158141 2.709841 0
M  V30 44 H -0.997265 0.495060 0.770054 0
M  V30 45 H -2.939316 -0.538051 1.716600 0
M  V30 46 H -4.867217 -2.009393 5.367285 0
M  V30 47 H -5.303646 -0.976026 3.976314 0
M  V30 48 H -5.794977 -3.286299 3.545558 0
M  V30 49 H -4.126674 -3.802366 3.832620 0
M  V30 50 H -5.298311 -0.875351 1.734933 0
M  V30 51 H -6.450069 -2.202626 1.849310 0
M  V30 52 H -6.460638 -2.600947 -0.361842 0
M  V30 53 H -5.566771 -1.091394 -0.518826 0
M  V30 54 H -4.186608 -4.795002 -0.550762 0
M  V30 55 H -2.851156 -3.836913 0.080627 0
M  V30 56 H -5.537851 -4.469248 1.361954 0
M  V30 57 H -3.825175 -4.775297 1.929816 0
M  V30 58 H -1.169925 -0.421660 5.597520 0
M  V30 59 H 4.767207 1.578958 -0.275806 0
M  V30 60 H 0.578725 1.275559 -3.434826 0
M  V30 61 H -0.123738 1.927506 -5.705467 0
M  V30 62 H 3.677802 0.873864 -7.208287 0
M  V30 63 H 4.497871 0.184350 -4.951175 0
M  V30 END ATOM
M  V30 BEGIN BOND
M  V30 1 2 1 2
M  V30 2 1 2 3
M  V30 3 1 3 4
M  V30 4 2 4 5
M  V30 5 1 5 6
M  V30 6 2 6 7
M  V30 7 1 7 8
M  V30 8 1 8 9
M  V30 9 1 9 10
M  V30 10 1 10 11
M  V30 11 2 11 12
M  V30 12 1 12 13
M  V30 13 2 13 14
M  V30 14 1 14 15
M  V30 15 2 15 16
M  V30 16 1 16 17
M  V30 17 1 17 18
M  V30 18 1 18 19
M  V30 19 1 19 20
M  V30 20 1 20 21
M  V30 21 1 21 22
M  V30 22 1 22 23
M  V30 23 1 23 24
M  V30 24 1 24 25
M  V30 25 1 16 26
M  V30 26 2 26 27
M  V30 27 1 27 28
M  V30 28 2 8 29
M  V30 29 1 2 30
M  V30 30 2 30 31
M  V30 31 1 31 32
M  V30 32 2 32 33
M  V30 33 1 33 34
M  V30 34 1 33 35
M  V30 35 2 35 36
M  V30 36 1 29 4
M  V30 37 1 36 30
M  V30 38 1 28 11
M  V30 39 1 27 13
M  V30 40 1 25 20
M  V30 41 1 3 37
M  V30 42 1 5 38
M  V30 43 1 6 39
M  V30 44 1 7 40
M  V30 45 1 9 41
M  V30 46 1 9 42
M  V30 47 1 10 43
M  V30 48 1 14 44
M  V30 49 1 15 45
M  V30 50 1 18 46
M  V30 51 1 18 47
M  V30 52 1 19 48
M  V30 53 1 19 49
M  V30 54 1 21 50
M  V30 55 1 21 51
M  V30 56 1 22 52
M  V30 57 1 22 53
M  V30 58 1 24 54
M  V30 59 1 24 55
M  V30 60 1 25 56
M  V30 61 1 25 57
M  V30 62 1 26 58
M  V30 63 1 29 59
M  V30 64 1 31 60
M  V30 65 1 32 61
M  V30 66 1 35 62
M  V30 67 1 36 63
M  V30 END BOND
M  V30 END CTAB
M  END
>  <Dataset>  (839) 
ChEMBL_Kinases

>  <Ligand_Instance>  (839) 
nan

>  <PDB_ID>  (839) 
nan

>  <Standardized_SMILES>  (839) 
O=C(Nc1cccc(CNc2nc3ccc(OCCN4CCOCC4)cc3s2)c1)c1ccc(Cl)cc1

>  <Name>  (839) 
nan

>  <Pocket>  (839) 
nan

>  <ATP_Site>  (839) 
nan

>  <Peripheral>  (839) 
nan

>  <Num_H_Atoms_ProtBoundConf>  (839) 
nan

>  <Num_Resolved_Atoms>  (839) 
nan

>  <Num_Not_Resolved_Atoms>  (839) 
nan

$$$$
CHEMBL4069566
     RDKit          3D

  0  0  0  0  0  0  0  0  0  0999 V3000
M  V30 BEGIN CTAB
M  V30 COUNTS 28 30 0 0 0
M  V30 BEGIN ATOM
M  V30 1 O 5.275680 -2.915443 1.885833 0
M  V30 2 C 4.265619 -2.243768 2.304389 0
M  V30 3 N 4.208173 -1.662403 3.588200 0
M  V30 4 C 3.007715 -0.946479 3.892206 0
M  V30 5 S 2.798035 0.215563 5.021971 0
M  V30 6 S 1.827515 -1.661800 2.712588 0
M  V30 7 C 3.096097 -2.034953 1.467718 0
M  V30 8 C 2.905437 -2.076633 0.176986 0
M  V30 9 C 1.572064 -1.811467 -0.359627 0
M  V30 10 C 1.221221 -2.583913 -1.451191 0
M  V30 11 S -0.505543 -1.902202 -1.773712 0
M  V30 12 C -0.367251 -0.731155 -0.368361 0
M  V30 13 C -1.494916 0.237241 0.006653 0
M  V30 14 C -1.288499 1.093010 1.076819 0
M  V30 15 C -2.360542 1.944907 1.348708 0
M  V30 16 C -3.515169 1.916262 0.601213 0
M  V30 17 C -3.647916 1.034873 -0.450558 0
M  V30 18 C -2.640599 0.173491 -0.773830 0
M  V30 19 O -2.779837 -0.701273 -1.822038 0
M  V30 20 N 0.690178 -0.912251 0.095821 0
M  V30 21 H 4.999917 -1.742049 4.295305 0
M  V30 22 H 3.803207 -2.312085 -0.375905 0
M  V30 23 H 1.616589 -3.326619 -2.035476 0
M  V30 24 H -0.339430 1.019961 1.586303 0
M  V30 25 H -2.177486 2.615140 2.198707 0
M  V30 26 H -4.276291 2.639200 0.922224 0
M  V30 27 H -4.582945 1.075273 -0.987342 0
M  V30 28 H -3.105419 -1.653415 -1.680994 0
M  V30 END ATOM
M  V30 BEGIN BOND
M  V30 1 2 1 2
M  V30 2 1 2 3
M  V30 3 1 3 4
M  V30 4 2 4 5
M  V30 5 1 4 6
M  V30 6 1 6 7
M  V30 7 2 7 8
M  V30 8 1 8 9
M  V30 9 2 9 10
M  V30 10 1 10 11
M  V30 11 1 11 12
M  V30 12 1 12 13
M  V30 13 2 13 14
M  V30 14 1 14 15
M  V30 15 2 15 16
M  V30 16 1 16 17
M  V30 17 2 17 18
M  V30 18 1 18 19
M  V30 19 2 12 20
M  V30 20 1 7 2
M  V30 21 1 20 9
M  V30 22 1 18 13
M  V30 23 1 3 21
M  V30 24 1 8 22
M  V30 25 1 10 23
M  V30 26 1 14 24
M  V30 27 1 15 25
M  V30 28 1 16 26
M  V30 29 1 17 27
M  V30 30 1 19 28
M  V30 END BOND
M  V30 END CTAB
M  END
>  <Dataset>  (840) 
ChEMBL_Kinases

>  <Ligand_Instance>  (840) 
nan

>  <PDB_ID>  (840) 
nan

>  <Standardized_SMILES>  (840) 
O=C1NC(=S)S/C1=C\c1csc(-c2ccccc2O)n1

>  <Name>  (840) 
nan

>  <Pocket>  (840) 
nan

>  <ATP_Site>  (840) 
nan

>  <Peripheral>  (840) 
nan

>  <Num_H_Atoms_ProtBoundConf>  (840) 
nan

>  <Num_Resolved_Atoms>  (840) 
nan

>  <Num_Not_Resolved_Atoms>  (840) 
nan

$$$$
CHEMBL4069560
     RDKit          3D

  0  0  0  0  0  0  0  0  0  0999 V3000
M  V30 BEGIN CTAB
M  V30 COUNTS 27 29 0 0 0
M  V30 BEGIN ATOM
M  V30 1 O 4.808458 0.536429 3.107831 0
M  V30 2 C 4.087724 -0.444093 2.789095 0
M  V30 3 N 4.192051 -1.738424 3.365555 0
M  V30 4 C 3.264129 -2.722790 2.851241 0
M  V30 5 S 3.510051 -4.340967 2.990048 0
M  V30 6 S 1.953852 -1.700986 2.117030 0
M  V30 7 C 3.064574 -0.306210 1.771417 0
M  V30 8 C 2.864250 0.531898 0.800653 0
M  V30 9 C 1.719701 0.455846 -0.117057 0
M  V30 10 C 1.953674 0.753249 -1.460292 0
M  V30 11 S 0.213108 0.533218 -2.193556 0
M  V30 12 C -0.443093 0.093667 -0.551007 0
M  V30 13 C -1.913657 -0.245447 -0.310245 0
M  V30 14 C -2.270642 -0.559113 0.982503 0
M  V30 15 C -3.628947 -0.856219 1.149120 0
M  V30 16 C -4.484918 -0.819952 0.069039 0
M  V30 17 C -4.086118 -0.499424 -1.216626 0
M  V30 18 C -2.746008 -0.201816 -1.405536 0
M  V30 19 N 0.455765 0.144173 0.167265 0
M  V30 20 H 4.887733 -1.974419 4.112085 0
M  V30 21 H 3.644232 1.302730 0.740397 0
M  V30 22 H 2.941131 1.047474 -1.955608 0
M  V30 23 H -1.526028 -0.560722 1.760765 0
M  V30 24 H -3.959215 -1.108388 2.147979 0
M  V30 25 H -5.550575 -1.056098 0.219757 0
M  V30 26 H -4.715675 -0.461572 -2.074589 0
M  V30 27 H -2.389894 0.053591 -2.379031 0
M  V30 END ATOM
M  V30 BEGIN BOND
M  V30 1 2 1 2
M  V30 2 1 2 3
M  V30 3 1 3 4
M  V30 4 2 4 5
M  V30 5 1 4 6
M  V30 6 1 6 7
M  V30 7 2 7 8
M  V30 8 1 8 9
M  V30 9 2 9 10
M  V30 10 1 10 11
M  V30 11 1 11 12
M  V30 12 1 12 13
M  V30 13 2 13 14
M  V30 14 1 14 15
M  V30 15 2 15 16
M  V30 16 1 16 17
M  V30 17 2 17 18
M  V30 18 2 12 19
M  V30 19 1 7 2
M  V30 20 1 19 9
M  V30 21 1 18 13
M  V30 22 1 3 20
M  V30 23 1 8 21
M  V30 24 1 10 22
M  V30 25 1 14 23
M  V30 26 1 15 24
M  V30 27 1 16 25
M  V30 28 1 17 26
M  V30 29 1 18 27
M  V30 END BOND
M  V30 END CTAB
M  END
>  <Dataset>  (841) 
ChEMBL_Kinases

>  <Ligand_Instance>  (841) 
nan

>  <PDB_ID>  (841) 
nan

>  <Standardized_SMILES>  (841) 
O=C1NC(=S)S/C1=C\c1csc(-c2ccccc2)n1

>  <Name>  (841) 
nan

>  <Pocket>  (841) 
nan

>  <ATP_Site>  (841) 
nan

>  <Peripheral>  (841) 
nan

>  <Num_H_Atoms_ProtBoundConf>  (841) 
nan

>  <Num_Resolved_Atoms>  (841) 
nan

>  <Num_Not_Resolved_Atoms>  (841) 
nan

$$$$
CHEMBL4069496
     RDKit          3D

  0  0  0  0  0  0  0  0  0  0999 V3000
M  V30 BEGIN CTAB
M  V30 COUNTS 65 69 0 0 0
M  V30 BEGIN ATOM
M  V30 1 C 7.373451 4.843037 6.925321 0
M  V30 2 N 6.263509 4.119576 6.390153 0
M  V30 3 C 5.606017 4.237766 5.146760 0
M  V30 4 O 6.119523 5.139233 4.434284 0
M  V30 5 C 4.475546 3.397225 4.777932 0
M  V30 6 C 3.932663 2.426894 5.566063 0
M  V30 7 C 2.865973 1.655684 5.179707 0
M  V30 8 C 2.281387 1.845575 3.924189 0
M  V30 9 C 2.846229 2.843029 3.124930 0
M  V30 10 C 3.935579 3.626271 3.526819 0
M  V30 11 C 2.402706 3.215472 1.783676 0
M  V30 12 O 2.989789 4.167157 1.195652 0
M  V30 13 C 1.312394 2.593159 1.002188 0
M  V30 14 C 1.431873 2.841833 -0.357320 0
M  V30 15 C 0.493636 2.328546 -1.230829 0
M  V30 16 C -0.531578 1.580489 -0.686104 0
M  V30 17 N -1.505975 1.039377 -1.570596 0
M  V30 18 C -2.665673 0.248175 -1.266822 0
M  V30 19 C -2.795964 -1.019877 -1.785408 0
M  V30 20 C -3.860009 -1.841825 -1.552760 0
M  V30 21 N -4.057370 -3.152669 -2.053465 0
M  V30 22 C -3.240721 -3.925274 -2.902478 0
M  V30 23 O -2.169524 -3.421713 -3.302636 0
M  V30 24 C -3.555311 -5.261312 -3.343647 0
M  V30 25 C -4.683058 -5.976117 -2.992888 0
M  V30 26 C -4.972554 -7.252728 -3.422872 0
M  V30 27 C -4.065245 -7.872311 -4.273572 0
M  V30 28 C -2.916752 -7.217252 -4.665469 0
M  V30 29 O -1.959373 -7.791608 -5.525204 0
M  V30 30 C -2.142097 -9.096689 -6.033269 0
M  V30 31 C -2.716486 -5.959576 -4.189751 0
M  V30 32 C -4.832672 -1.307294 -0.737603 0
M  V30 33 F -5.958649 -2.027459 -0.421376 0
M  V30 34 C -4.739468 -0.043569 -0.199588 0
M  V30 35 C -3.651587 0.765184 -0.452216 0
M  V30 36 F -3.588720 2.001561 0.088381 0
M  V30 37 C -0.653304 1.331179 0.666320 0
M  V30 38 C 0.285968 1.844033 1.550972 0
M  V30 39 C 0.014819 1.490709 2.950168 0
M  V30 40 C 1.163690 0.928050 3.707105 0
M  V30 41 H 7.045671 5.391710 7.847333 0
M  V30 42 H 8.172131 4.146641 7.271509 0
M  V30 43 H 7.830209 5.561852 6.215874 0
M  V30 44 H 5.950034 3.402786 7.107469 0
M  V30 45 H 4.359146 2.257627 6.535345 0
M  V30 46 H 2.476474 0.896734 5.852224 0
M  V30 47 H 4.275663 4.364945 2.809978 0
M  V30 48 H 2.264442 3.438461 -0.712170 0
M  V30 49 H 0.546288 2.496739 -2.297322 0
M  V30 50 H -1.457790 1.182846 -2.603851 0
M  V30 51 H -1.998794 -1.351859 -2.403676 0
M  V30 52 H -4.926340 -3.664503 -1.779173 0
M  V30 53 H -5.406065 -5.540065 -2.342104 0
M  V30 54 H -5.863515 -7.763974 -3.120688 0
M  V30 55 H -4.230845 -8.868999 -4.646356 0
M  V30 56 H -1.466803 -9.222143 -6.914232 0
M  V30 57 H -3.202289 -9.198877 -6.400394 0
M  V30 58 H -1.895248 -9.872061 -5.291924 0
M  V30 59 H -1.795389 -5.444041 -4.508937 0
M  V30 60 H -5.514464 0.332264 0.426156 0
M  V30 61 H -1.435720 0.753708 1.124263 0
M  V30 62 H -0.353621 2.386740 3.523455 0
M  V30 63 H -0.814133 0.762176 2.972082 0
M  V30 64 H 1.458569 -0.048652 3.251335 0
M  V30 65 H 0.768664 0.650197 4.713846 0
M  V30 END ATOM
M  V30 BEGIN BOND
M  V30 1 1 1 2
M  V30 2 1 2 3
M  V30 3 2 3 4
M  V30 4 1 3 5
M  V30 5 2 5 6
M  V30 6 1 6 7
M  V30 7 2 7 8
M  V30 8 1 8 9
M  V30 9 2 9 10
M  V30 10 1 9 11
M  V30 11 2 11 12
M  V30 12 1 11 13
M  V30 13 2 13 14
M  V30 14 1 14 15
M  V30 15 2 15 16
M  V30 16 1 16 17
M  V30 17 1 17 18
M  V30 18 2 18 19
M  V30 19 1 19 20
M  V30 20 1 20 21
M  V30 21 1 21 22
M  V30 22 2 22 23
M  V30 23 1 22 24
M  V30 24 2 24 25
M  V30 25 1 25 26
M  V30 26 2 26 27
M  V30 27 1 27 28
M  V30 28 1 28 29
M  V30 29 1 29 30
M  V30 30 2 28 31
M  V30 31 2 20 32
M  V30 32 1 32 33
M  V30 33 1 32 34
M  V30 34 2 34 35
M  V30 35 1 35 36
M  V30 36 1 16 37
M  V30 37 2 37 38
M  V30 38 1 38 39
M  V30 39 1 39 40
M  V30 40 1 10 5
M  V30 41 1 38 13
M  V30 42 1 40 8
M  V30 43 1 35 18
M  V30 44 1 31 24
M  V30 45 1 1 41
M  V30 46 1 1 42
M  V30 47 1 1 43
M  V30 48 1 2 44
M  V30 49 1 6 45
M  V30 50 1 7 46
M  V30 51 1 10 47
M  V30 52 1 14 48
M  V30 53 1 15 49
M  V30 54 1 17 50
M  V30 55 1 19 51
M  V30 56 1 21 52
M  V30 57 1 25 53
M  V30 58 1 26 54
M  V30 59 1 27 55
M  V30 60 1 30 56
M  V30 61 1 30 57
M  V30 62 1 30 58
M  V30 63 1 31 59
M  V30 64 1 34 60
M  V30 65 1 37 61
M  V30 66 1 39 62
M  V30 67 1 39 63
M  V30 68 1 40 64
M  V30 69 1 40 65
M  V30 END BOND
M  V30 END CTAB
M  END
>  <Dataset>  (842) 
ChEMBL_Kinases

>  <Ligand_Instance>  (842) 
nan

>  <PDB_ID>  (842) 
nan

>  <Standardized_SMILES>  (842) 
CNC(=O)c1ccc2c(c1)C(=O)c1ccc(Nc3cc(NC(=O)c4cccc(OC)c4)c(F)cc3F)cc1CC2

>  <Name>  (842) 
nan

>  <Pocket>  (842) 
nan

>  <ATP_Site>  (842) 
nan

>  <Peripheral>  (842) 
nan

>  <Num_H_Atoms_ProtBoundConf>  (842) 
nan

>  <Num_Resolved_Atoms>  (842) 
nan

>  <Num_Not_Resolved_Atoms>  (842) 
nan

$$$$
CHEMBL4069432
     RDKit          3D

  0  0  0  0  0  0  0  0  0  0999 V3000
M  V30 BEGIN CTAB
M  V30 COUNTS 62 65 0 0 0
M  V30 BEGIN ATOM
M  V30 1 C 7.806361 -1.389653 5.263926 0
M  V30 2 C 6.642581 -0.451457 5.075193 0
M  V30 3 O 5.529169 -1.040827 5.257370 0
M  V30 4 N 6.648410 0.928509 4.738189 0
M  V30 5 C 5.261954 1.319786 4.689676 0
M  V30 6 C 4.656517 1.176359 3.440321 0
M  V30 7 C 3.313041 1.520557 3.259513 0
M  V30 8 C 2.778805 1.333066 1.919314 0
M  V30 9 N 3.143229 0.340070 1.074821 0
M  V30 10 N 2.460471 0.483879 -0.046912 0
M  V30 11 C 1.636052 1.571443 0.038665 0
M  V30 12 C 0.830729 1.849341 -1.173384 0
M  V30 13 N -0.358617 1.035326 -1.248644 0
M  V30 14 C -1.584203 0.952908 -0.562665 0
M  V30 15 C -2.019089 1.749848 0.448545 0
M  V30 16 C -3.217720 1.651327 1.122080 0
M  V30 17 C -4.021458 0.620360 0.684585 0
M  V30 18 C -3.664750 -0.228192 -0.325139 0
M  V30 19 C -4.592855 -1.275374 -0.698543 0
M  V30 20 O -5.697812 -1.362173 -0.104630 0
M  V30 21 N -4.381190 -2.255293 -1.703901 0
M  V30 22 C -5.324788 -3.295850 -2.061697 0
M  V30 23 C -4.789605 -4.174453 -3.134213 0
M  V30 24 C -5.220412 -4.028766 -4.439454 0
M  V30 25 C -4.712432 -4.845451 -5.425363 0
M  V30 26 C -3.774624 -5.818990 -5.154032 0
M  V30 27 C -3.397642 -5.900405 -3.831216 0
M  V30 28 C -3.840701 -5.132376 -2.752232 0
M  V30 29 C -3.349203 -5.337721 -1.389420 0
M  V30 30 F -4.376452 -5.661703 -0.502231 0
M  V30 31 F -2.520314 -4.351760 -0.910207 0
M  V30 32 F -2.554058 -6.493610 -1.417077 0
M  V30 33 C -2.463623 -0.050865 -0.927494 0
M  V30 34 N 1.868754 2.058377 1.264322 0
M  V30 35 C 1.193087 3.232470 1.729040 0
M  V30 36 C 2.648947 1.997065 4.369613 0
M  V30 37 C 3.269678 2.129610 5.593672 0
M  V30 38 N 4.573329 1.787728 5.737691 0
M  V30 39 H 7.768268 -1.718556 6.313308 0
M  V30 40 H 7.600457 -2.241595 4.560615 0
M  V30 41 H 8.748081 -0.879152 5.015805 0
M  V30 42 H 7.610477 1.308057 4.612684 0
M  V30 43 H 5.233189 0.790102 2.585016 0
M  V30 44 H 0.529831 2.954442 -1.143195 0
M  V30 45 H 1.471510 1.797742 -2.058665 0
M  V30 46 H -0.196396 0.342202 -2.045735 0
M  V30 47 H -1.375836 2.552346 0.762824 0
M  V30 48 H -3.471998 2.340609 1.919716 0
M  V30 49 H -4.982501 0.502263 1.188452 0
M  V30 50 H -3.482534 -2.229201 -2.232181 0
M  V30 51 H -5.697645 -3.858716 -1.181098 0
M  V30 52 H -6.230915 -2.763861 -2.476138 0
M  V30 53 H -5.966483 -3.259998 -4.675318 0
M  V30 54 H -5.044209 -4.739584 -6.457624 0
M  V30 55 H -3.331402 -6.494285 -5.871026 0
M  V30 56 H -2.650576 -6.665089 -3.577982 0
M  V30 57 H -2.221124 -0.741775 -1.718660 0
M  V30 58 H 0.327890 3.015577 2.366903 0
M  V30 59 H 1.915216 3.845699 2.346401 0
M  V30 60 H 0.895232 3.915352 0.883237 0
M  V30 61 H 1.631364 2.254871 4.224187 0
M  V30 62 H 2.719355 2.507200 6.444097 0
M  V30 END ATOM
M  V30 BEGIN BOND
M  V30 1 1 1 2
M  V30 2 2 2 3
M  V30 3 1 2 4
M  V30 4 1 4 5
M  V30 5 2 5 6
M  V30 6 1 6 7
M  V30 7 1 7 8
M  V30 8 2 8 9
M  V30 9 1 9 10
M  V30 10 2 10 11
M  V30 11 1 11 12
M  V30 12 1 12 13
M  V30 13 1 13 14
M  V30 14 2 14 15
M  V30 15 1 15 16
M  V30 16 2 16 17
M  V30 17 1 17 18
M  V30 18 1 18 19
M  V30 19 2 19 20
M  V30 20 1 19 21
M  V30 21 1 21 22
M  V30 22 1 22 23
M  V30 23 2 23 24
M  V30 24 1 24 25
M  V30 25 2 25 26
M  V30 26 1 26 27
M  V30 27 2 27 28
M  V30 28 1 28 29
M  V30 29 1 29 30
M  V30 30 1 29 31
M  V30 31 1 29 32
M  V30 32 2 18 33
M  V30 33 1 11 34
M  V30 34 1 34 35
M  V30 35 2 7 36
M  V30 36 1 36 37
M  V30 37 2 37 38
M  V30 38 1 38 5
M  V30 39 1 34 8
M  V30 40 1 33 14
M  V30 41 1 28 23
M  V30 42 1 1 39
M  V30 43 1 1 40
M  V30 44 1 1 41
M  V30 45 1 4 42
M  V30 46 1 6 43
M  V30 47 1 12 44
M  V30 48 1 12 45
M  V30 49 1 13 46
M  V30 50 1 15 47
M  V30 51 1 16 48
M  V30 52 1 17 49
M  V30 53 1 21 50
M  V30 54 1 22 51
M  V30 55 1 22 52
M  V30 56 1 24 53
M  V30 57 1 25 54
M  V30 58 1 26 55
M  V30 59 1 27 56
M  V30 60 1 33 57
M  V30 61 1 35 58
M  V30 62 1 35 59
M  V30 63 1 35 60
M  V30 64 1 36 61
M  V30 65 1 37 62
M  V30 END BOND
M  V30 END CTAB
M  END
>  <Dataset>  (843) 
ChEMBL_Kinases

>  <Ligand_Instance>  (843) 
nan

>  <PDB_ID>  (843) 
nan

>  <Standardized_SMILES>  (843) 
CC(=O)Nc1cc(-c2nnc(CNc3cccc(C(=O)NCc4ccccc4C(F)(F)F)c3)n2C)ccn1

>  <Name>  (843) 
nan

>  <Pocket>  (843) 
nan

>  <ATP_Site>  (843) 
nan

>  <Peripheral>  (843) 
nan

>  <Num_H_Atoms_ProtBoundConf>  (843) 
nan

>  <Num_Resolved_Atoms>  (843) 
nan

>  <Num_Not_Resolved_Atoms>  (843) 
nan

$$$$
CHEMBL4069405
     RDKit          3D

  0  0  0  0  0  0  0  0  0  0999 V3000
M  V30 BEGIN CTAB
M  V30 COUNTS 59 62 0 0 0
M  V30 BEGIN ATOM
M  V30 1 N -2.748050 -3.411853 6.944410 0
M  V30 2 C -1.944406 -2.558843 6.139465 0
M  V30 3 C -0.925855 -1.897055 6.772152 0
M  V30 4 C -0.133729 -1.067271 6.021301 0
M  V30 5 C -0.382058 -0.926459 4.675259 0
M  V30 6 N 0.399203 -0.109771 3.945004 0
M  V30 7 C 0.167578 0.040667 2.617089 0
M  V30 8 C 1.032281 0.939247 1.820452 0
M  V30 9 C 0.902000 1.160656 0.527818 0
M  V30 10 C 1.737080 2.038392 -0.282804 0
M  V30 11 C 2.786241 2.745412 0.262222 0
M  V30 12 C 3.532434 3.562196 -0.595758 0
M  V30 13 C 3.283996 3.703871 -1.951377 0
M  V30 14 C 4.137400 4.600370 -2.782537 0
M  V30 15 F 4.975113 3.767654 -3.517820 0
M  V30 16 F 4.957562 5.343761 -1.948878 0
M  V30 17 F 3.389732 5.424937 -3.595320 0
M  V30 18 C 2.223008 2.973066 -2.440071 0
M  V30 19 C 1.461542 2.155696 -1.628476 0
M  V30 20 N -0.832769 -0.616058 2.022739 0
M  V30 21 C -1.659687 -1.449225 2.672952 0
M  V30 22 N -2.717784 -2.124114 1.992439 0
M  V30 23 C -2.930730 -1.939449 0.578493 0
M  V30 24 C -1.757339 -2.426184 -0.243197 0
M  V30 25 C -2.117782 -2.173113 -1.685903 0
M  V30 26 N -1.155295 -2.554714 -2.644053 0
M  V30 27 C -0.886785 -3.925909 -2.837129 0
M  V30 28 C 0.538473 -4.278998 -2.526362 0
M  V30 29 O 1.284324 -3.230579 -2.001116 0
M  V30 30 C 1.222240 -2.095684 -2.803797 0
M  V30 31 C -0.170009 -1.611274 -3.019630 0
M  V30 32 C -1.396156 -1.576154 4.009506 0
M  V30 33 C -2.177030 -2.402901 4.784206 0
M  V30 34 H -2.527856 -4.444018 6.815686 0
M  V30 35 H -3.509943 -3.449731 7.651813 0
M  V30 36 H -0.712981 -1.991778 7.822550 0
M  V30 37 H 0.675909 -0.534715 6.498464 0
M  V30 38 H 1.839014 1.459547 2.337029 0
M  V30 39 H 0.081806 0.611337 0.086220 0
M  V30 40 H 3.048632 2.696123 1.295709 0
M  V30 41 H 4.355999 4.111389 -0.145513 0
M  V30 42 H 1.999631 3.061097 -3.502749 0
M  V30 43 H 0.623330 1.585626 -2.044497 0
M  V30 44 H -3.370883 -2.765718 2.468591 0
M  V30 45 H -3.116275 -0.839674 0.390141 0
M  V30 46 H -3.819930 -2.491500 0.250748 0
M  V30 47 H -0.847740 -1.887873 0.054898 0
M  V30 48 H -1.606025 -3.481263 -0.008199 0
M  V30 49 H -3.104211 -2.588689 -1.951844 0
M  V30 50 H -2.239439 -1.059189 -1.767725 0
M  V30 51 H -1.612887 -4.608742 -2.345131 0
M  V30 52 H -1.039502 -4.133751 -3.938355 0
M  V30 53 H 0.515682 -5.074016 -1.729162 0
M  V30 54 H 1.051607 -4.761464 -3.389440 0
M  V30 55 H 1.822664 -1.303994 -2.319603 0
M  V30 56 H 1.722101 -2.335357 -3.780674 0
M  V30 57 H -0.324796 -0.705754 -2.359187 0
M  V30 58 H -0.325349 -1.192254 -4.050644 0
M  V30 59 H -3.004435 -2.970895 4.389143 0
M  V30 END ATOM
M  V30 BEGIN BOND
M  V30 1 1 1 2
M  V30 2 2 2 3
M  V30 3 1 3 4
M  V30 4 2 4 5
M  V30 5 1 5 6
M  V30 6 2 6 7
M  V30 7 1 7 8
M  V30 8 2 8 9
M  V30 9 1 9 10
M  V30 10 2 10 11
M  V30 11 1 11 12
M  V30 12 2 12 13
M  V30 13 1 13 14
M  V30 14 1 14 15
M  V30 15 1 14 16
M  V30 16 1 14 17
M  V30 17 1 13 18
M  V30 18 2 18 19
M  V30 19 1 7 20
M  V30 20 2 20 21
M  V30 21 1 21 22
M  V30 22 1 22 23
M  V30 23 1 23 24
M  V30 24 1 24 25
M  V30 25 1 25 26
M  V30 26 1 26 27
M  V30 27 1 27 28
M  V30 28 1 28 29
M  V30 29 1 29 30
M  V30 30 1 30 31
M  V30 31 1 21 32
M  V30 32 2 32 33
M  V30 33 1 33 2
M  V30 34 1 32 5
M  V30 35 1 19 10
M  V30 36 1 31 26
M  V30 37 1 1 34
M  V30 38 1 1 35
M  V30 39 1 3 36
M  V30 40 1 4 37
M  V30 41 1 8 38
M  V30 42 1 9 39
M  V30 43 1 11 40
M  V30 44 1 12 41
M  V30 45 1 18 42
M  V30 46 1 19 43
M  V30 47 1 22 44
M  V30 48 1 23 45
M  V30 49 1 23 46
M  V30 50 1 24 47
M  V30 51 1 24 48
M  V30 52 1 25 49
M  V30 53 1 25 50
M  V30 54 1 27 51
M  V30 55 1 27 52
M  V30 56 1 28 53
M  V30 57 1 28 54
M  V30 58 1 30 55
M  V30 59 1 30 56
M  V30 60 1 31 57
M  V30 61 1 31 58
M  V30 62 1 33 59
M  V30 END BOND
M  V30 END CTAB
M  END
>  <Dataset>  (844) 
ChEMBL_Kinases

>  <Ligand_Instance>  (844) 
nan

>  <PDB_ID>  (844) 
nan

>  <Standardized_SMILES>  (844) 
Nc1ccc2nc(/C=C/c3ccc(C(F)(F)F)cc3)nc(NCCCN3CCOCC3)c2c1

>  <Name>  (844) 
nan

>  <Pocket>  (844) 
nan

>  <ATP_Site>  (844) 
nan

>  <Peripheral>  (844) 
nan

>  <Num_H_Atoms_ProtBoundConf>  (844) 
nan

>  <Num_Resolved_Atoms>  (844) 
nan

>  <Num_Not_Resolved_Atoms>  (844) 
nan

$$$$
CHEMBL4069384
     RDKit          3D

  0  0  0  0  0  0  0  0  0  0999 V3000
M  V30 BEGIN CTAB
M  V30 COUNTS 35 37 0 0 0
M  V30 BEGIN ATOM
M  V30 1 C -1.474709 -3.866298 4.851724 0
M  V30 2 C -0.786277 -3.321247 3.642605 0
M  V30 3 C -1.504412 -2.373476 2.903200 0
M  V30 4 C -0.885852 -1.850660 1.773983 0
M  V30 5 C 0.387576 -2.244264 1.387799 0
M  V30 6 C 0.953256 -1.632616 0.180564 0
M  V30 7 C 1.835248 -2.227855 -0.700388 0
M  V30 8 N 2.282534 -1.555385 -1.777320 0
M  V30 9 C 1.903153 -0.291733 -2.050046 0
M  V30 10 N 2.408059 0.368340 -3.202663 0
M  V30 11 C 1.026738 0.364307 -1.216299 0
M  V30 12 N 0.588441 1.697659 -1.447337 0
M  V30 13 C -0.257883 2.390116 -0.680686 0
M  V30 14 C -0.472446 3.654662 -1.189164 0
M  V30 15 C -1.351709 4.745302 -0.631668 0
M  V30 16 N 0.285143 3.692529 -2.300068 0
M  V30 17 N 0.905437 2.513976 -2.428806 0
M  V30 18 C 0.576886 -0.331566 -0.120408 0
M  V30 19 C 1.030328 -3.181963 2.167529 0
M  V30 20 C 0.487441 -3.741613 3.291774 0
M  V30 21 H -0.795302 -4.429458 5.491557 0
M  V30 22 H -2.356423 -4.459645 4.548712 0
M  V30 23 H -1.894484 -3.023047 5.467470 0
M  V30 24 H -2.496636 -2.072657 3.212034 0
M  V30 25 H -1.507649 -1.115452 1.244981 0
M  V30 26 H 2.114247 -3.244095 -0.443299 0
M  V30 27 H 2.149832 0.402658 -4.233004 0
M  V30 28 H 3.233493 0.940366 -2.878070 0
M  V30 29 H -0.769424 2.091239 0.247009 0
M  V30 30 H -0.735996 5.664142 -0.497403 0
M  V30 31 H -2.246673 4.900270 -1.242079 0
M  V30 32 H -1.655934 4.426423 0.394334 0
M  V30 33 H -0.108114 0.182519 0.531572 0
M  V30 34 H 2.010711 -3.465943 1.844944 0
M  V30 35 H 1.015563 -4.476989 3.886208 0
M  V30 END ATOM
M  V30 BEGIN BOND
M  V30 1 1 1 2
M  V30 2 2 2 3
M  V30 3 1 3 4
M  V30 4 2 4 5
M  V30 5 1 5 6
M  V30 6 2 6 7
M  V30 7 1 7 8
M  V30 8 2 8 9
M  V30 9 1 9 10
M  V30 10 1 9 11
M  V30 11 1 11 12
M  V30 12 1 12 13
M  V30 13 2 13 14
M  V30 14 1 14 15
M  V30 15 1 14 16
M  V30 16 2 16 17
M  V30 17 2 11 18
M  V30 18 1 5 19
M  V30 19 2 19 20
M  V30 20 1 20 2
M  V30 21 1 18 6
M  V30 22 1 17 12
M  V30 23 1 1 21
M  V30 24 1 1 22
M  V30 25 1 1 23
M  V30 26 1 3 24
M  V30 27 1 4 25
M  V30 28 1 7 26
M  V30 29 1 10 27
M  V30 30 1 10 28
M  V30 31 1 13 29
M  V30 32 1 15 30
M  V30 33 1 15 31
M  V30 34 1 15 32
M  V30 35 1 18 33
M  V30 36 1 19 34
M  V30 37 1 20 35
M  V30 END BOND
M  V30 END CTAB
M  END
>  <Dataset>  (845) 
ChEMBL_Kinases

>  <Ligand_Instance>  (845) 
nan

>  <PDB_ID>  (845) 
nan

>  <Standardized_SMILES>  (845) 
Cc1ccc(-c2cnc(N)c(-n3cc(C)nn3)c2)cc1

>  <Name>  (845) 
nan

>  <Pocket>  (845) 
nan

>  <ATP_Site>  (845) 
nan

>  <Peripheral>  (845) 
nan

>  <Num_H_Atoms_ProtBoundConf>  (845) 
nan

>  <Num_Resolved_Atoms>  (845) 
nan

>  <Num_Not_Resolved_Atoms>  (845) 
nan

$$$$
CHEMBL4069382
     RDKit          3D

  0  0  0  0  0  0  0  0  0  0999 V3000
M  V30 BEGIN CTAB
M  V30 COUNTS 63 64 0 0 0
M  V30 BEGIN ATOM
M  V30 1 C 0.670746 2.233798 1.763923 0
M  V30 2 C 1.390977 1.363377 2.706194 0
M  V30 3 C 2.500782 0.513877 2.156288 0
M  V30 4 C 3.584709 1.321868 1.507950 0
M  V30 5 C 4.692802 0.473112 1.065275 0
M  V30 6 C 4.461226 -0.592566 0.078829 0
M  V30 7 C 3.996767 -0.383423 -1.265748 0
M  V30 8 C 2.591562 0.011126 -1.589098 0
M  V30 9 C 2.533667 0.254324 -3.077208 0
M  V30 10 C 1.300614 0.567054 -3.791514 0
M  V30 11 C 0.423411 1.676038 -3.312801 0
M  V30 12 C -0.339018 1.350054 -2.103505 0
M  V30 13 O -0.160936 0.132348 -2.493821 0
M  V30 14 N -1.070017 1.471226 -0.913053 0
M  V30 15 N -1.591725 0.412572 -0.224995 0
M  V30 16 C -1.605505 -0.634280 0.677413 0
M  V30 17 O -0.504120 -0.748727 1.254733 0
M  V30 18 C -2.690353 -1.530176 0.984342 0
M  V30 19 C -2.372983 -2.471440 1.940164 0
M  V30 20 O -1.146257 -2.590937 2.577245 0
M  V30 21 C -3.356720 -3.394166 2.314301 0
M  V30 22 C -3.063690 -4.346094 3.268815 0
M  V30 23 C -3.970472 -5.294060 3.698335 0
M  V30 24 Cl -3.569696 -6.475153 4.898806 0
M  V30 25 C -5.233368 -5.290552 3.146317 0
M  V30 26 C -5.552685 -4.365054 2.203342 0
M  V30 27 C -4.631521 -3.428465 1.789957 0
M  V30 28 N -4.894614 -2.491379 0.861355 0
M  V30 29 C -6.206690 -2.440919 0.247138 0
M  V30 30 C -3.966350 -1.597776 0.488410 0
M  V30 31 O -4.261424 -0.745767 -0.380178 0
M  V30 32 H 1.030943 2.230798 0.726516 0
M  V30 33 H -0.410278 1.989517 1.744228 0
M  V30 34 H 0.698787 3.317711 2.084394 0
M  V30 35 H 1.807933 2.015624 3.532476 0
M  V30 36 H 0.691742 0.689706 3.242763 0
M  V30 37 H 2.167297 -0.232322 1.414849 0
M  V30 38 H 2.947927 -0.039861 3.004683 0
M  V30 39 H 4.030428 2.026036 2.300753 0
M  V30 40 H 3.230675 1.954289 0.670169 0
M  V30 41 H 5.249583 0.022407 1.977864 0
M  V30 42 H 5.533178 1.123972 0.589611 0
M  V30 43 H 5.473105 -1.163484 -0.010958 0
M  V30 44 H 3.854164 -1.453640 0.575155 0
M  V30 45 H 4.159442 -1.358761 -1.834410 0
M  V30 46 H 4.722844 0.309586 -1.814520 0
M  V30 47 H 1.961431 -0.859433 -1.264805 0
M  V30 48 H 2.320318 0.952771 -1.113113 0
M  V30 49 H 3.088897 -0.621471 -3.580001 0
M  V30 50 H 3.271259 1.102942 -3.332568 0
M  V30 51 H 0.697370 -0.348579 -4.066449 0
M  V30 52 H 1.631756 0.907827 -4.844342 0
M  V30 53 H -0.290656 1.979219 -4.121882 0
M  V30 54 H 1.024490 2.602521 -3.072209 0
M  V30 55 H -1.000225 2.499297 -0.863571 0
M  V30 56 H -2.480717 0.599569 -0.768274 0
M  V30 57 H -0.810672 -2.019680 3.316519 0
M  V30 58 H -2.100833 -4.401323 3.735354 0
M  V30 59 H -6.010456 -5.982567 3.409816 0
M  V30 60 H -6.527914 -4.312598 1.733839 0
M  V30 61 H -6.277470 -1.593125 -0.447977 0
M  V30 62 H -7.018464 -2.459447 1.006566 0
M  V30 63 H -6.280463 -3.369908 -0.387396 0
M  V30 END ATOM
M  V30 BEGIN BOND
M  V30 1 1 1 2
M  V30 2 1 2 3
M  V30 3 1 3 4
M  V30 4 1 4 5
M  V30 5 1 5 6
M  V30 6 1 6 7
M  V30 7 1 7 8
M  V30 8 1 8 9
M  V30 9 1 9 10
M  V30 10 1 10 11
M  V30 11 1 11 12
M  V30 12 2 12 13
M  V30 13 1 12 14
M  V30 14 1 14 15
M  V30 15 1 15 16
M  V30 16 2 16 17
M  V30 17 1 16 18
M  V30 18 2 18 19
M  V30 19 1 19 20
M  V30 20 1 19 21
M  V30 21 2 21 22
M  V30 22 1 22 23
M  V30 23 1 23 24
M  V30 24 2 23 25
M  V30 25 1 25 26
M  V30 26 2 26 27
M  V30 27 1 27 28
M  V30 28 1 28 29
M  V30 29 1 28 30
M  V30 30 2 30 31
M  V30 31 1 30 18
M  V30 32 1 27 21
M  V30 33 1 1 32
M  V30 34 1 1 33
M  V30 35 1 1 34
M  V30 36 1 2 35
M  V30 37 1 2 36
M  V30 38 1 3 37
M  V30 39 1 3 38
M  V30 40 1 4 39
M  V30 41 1 4 40
M  V30 42 1 5 41
M  V30 43 1 5 42
M  V30 44 1 6 43
M  V30 45 1 6 44
M  V30 46 1 7 45
M  V30 47 1 7 46
M  V30 48 1 8 47
M  V30 49 1 8 48
M  V30 50 1 9 49
M  V30 51 1 9 50
M  V30 52 1 10 51
M  V30 53 1 10 52
M  V30 54 1 11 53
M  V30 55 1 11 54
M  V30 56 1 14 55
M  V30 57 1 15 56
M  V30 58 1 20 57
M  V30 59 1 22 58
M  V30 60 1 25 59
M  V30 61 1 26 60
M  V30 62 1 29 61
M  V30 63 1 29 62
M  V30 64 1 29 63
M  V30 END BOND
M  V30 END CTAB
M  END
>  <Dataset>  (846) 
ChEMBL_Kinases

>  <Ligand_Instance>  (846) 
nan

>  <PDB_ID>  (846) 
nan

>  <Standardized_SMILES>  (846) 
CCCCCCCCCCCC(=O)NNC(=O)c1c(O)c2cc(Cl)ccc2n(C)c1=O

>  <Name>  (846) 
nan

>  <Pocket>  (846) 
nan

>  <ATP_Site>  (846) 
nan

>  <Peripheral>  (846) 
nan

>  <Num_H_Atoms_ProtBoundConf>  (846) 
nan

>  <Num_Resolved_Atoms>  (846) 
nan

>  <Num_Not_Resolved_Atoms>  (846) 
nan

$$$$
CHEMBL406938
     RDKit          3D

  0  0  0  0  0  0  0  0  0  0999 V3000
M  V30 BEGIN CTAB
M  V30 COUNTS 31 35 0 0 0
M  V30 BEGIN ATOM
M  V30 1 O 1.785900 -5.053512 0.595259 0
M  V30 2 C 2.054982 -3.868510 0.915894 0
M  V30 3 N 3.262917 -3.410892 1.509314 0
M  V30 4 C 3.108009 -2.022603 1.684978 0
M  V30 5 O 3.955174 -1.239470 2.181581 0
M  V30 6 C 1.776335 -1.659649 1.181700 0
M  V30 7 C 1.115356 -2.773518 0.706743 0
M  V30 8 C -0.160348 -2.627158 0.189582 0
M  V30 9 C -0.748235 -1.386733 0.155354 0
M  V30 10 C -0.108805 -0.291792 0.617852 0
M  V30 11 C 1.159703 -0.426739 1.133933 0
M  V30 12 N 1.559345 0.789095 1.515479 0
M  V30 13 C 0.554352 1.673284 1.241854 0
M  V30 14 C 0.549236 3.035379 1.476682 0
M  V30 15 C -0.563465 3.807176 1.137677 0
M  V30 16 C -1.647351 3.151898 0.562621 0
M  V30 17 C -1.577757 1.794022 0.355958 0
M  V30 18 C -0.510981 1.009210 0.673162 0
M  V30 19 C -2.037694 -1.625986 -0.434719 0
M  V30 20 O -3.012271 -0.922574 -0.726859 0
M  V30 21 N -2.189910 -3.000694 -0.738645 0
M  V30 22 C -1.002273 -3.740070 -0.362183 0
M  V30 23 H 4.083797 -4.011215 1.754041 0
M  V30 24 H 2.502947 1.003467 1.954141 0
M  V30 25 H 1.408199 3.513109 1.925178 0
M  V30 26 H -0.491376 4.864132 1.352251 0
M  V30 27 H -2.501878 3.763003 0.305474 0
M  V30 28 H -2.431831 1.376217 -0.080023 0
M  V30 29 H -2.943328 -3.583871 -1.160535 0
M  V30 30 H -0.517785 -4.259813 -1.197561 0
M  V30 31 H -1.276329 -4.399504 0.489281 0
M  V30 END ATOM
M  V30 BEGIN BOND
M  V30 1 2 1 2
M  V30 2 1 2 3
M  V30 3 1 3 4
M  V30 4 2 4 5
M  V30 5 1 4 6
M  V30 6 2 6 7
M  V30 7 1 7 8
M  V30 8 2 8 9
M  V30 9 1 9 10
M  V30 10 2 10 11
M  V30 11 1 11 12
M  V30 12 1 12 13
M  V30 13 2 13 14
M  V30 14 1 14 15
M  V30 15 2 15 16
M  V30 16 1 16 17
M  V30 17 2 17 18
M  V30 18 1 9 19
M  V30 19 2 19 20
M  V30 20 1 19 21
M  V30 21 1 21 22
M  V30 22 1 7 2
M  V30 23 1 22 8
M  V30 24 1 11 6
M  V30 25 1 18 13
M  V30 26 1 18 10
M  V30 27 1 3 23
M  V30 28 1 12 24
M  V30 29 1 14 25
M  V30 30 1 15 26
M  V30 31 1 16 27
M  V30 32 1 17 28
M  V30 33 1 21 29
M  V30 34 1 22 30
M  V30 35 1 22 31
M  V30 END BOND
M  V30 END CTAB
M  END
>  <Dataset>  (847) 
ChEMBL_Kinases

>  <Ligand_Instance>  (847) 
nan

>  <PDB_ID>  (847) 
nan

>  <Standardized_SMILES>  (847) 
O=C1NC(=O)c2c1c1c(c3c2[nH]c2ccccc23)C(=O)NC1

>  <Name>  (847) 
nan

>  <Pocket>  (847) 
nan

>  <ATP_Site>  (847) 
nan

>  <Peripheral>  (847) 
nan

>  <Num_H_Atoms_ProtBoundConf>  (847) 
nan

>  <Num_Resolved_Atoms>  (847) 
nan

>  <Num_Not_Resolved_Atoms>  (847) 
nan

$$$$
CHEMBL4860716
     RDKit          3D

  0  0  0  0  0  0  0  0  0  0999 V3000
M  V30 BEGIN CTAB
M  V30 COUNTS 45 48 0 0 0
M  V30 BEGIN ATOM
M  V30 1 C 2.359736 -4.639659 0.909811 0
M  V30 2 O 2.406828 -3.244586 0.672204 0
M  V30 3 C 3.188449 -2.656795 -0.312863 0
M  V30 4 N 4.003849 -3.332755 -1.171494 0
M  V30 5 N 4.594649 -2.439904 -1.974879 0
M  V30 6 C 5.535851 -2.815801 -3.019007 0
M  V30 7 C 4.150528 -1.226597 -1.618009 0
M  V30 8 C 3.257444 -1.305279 -0.570199 0
M  V30 9 C 2.578192 -0.183861 0.071871 0
M  V30 10 O 2.799814 0.983011 -0.338549 0
M  V30 11 N 1.672398 -0.353727 1.146390 0
M  V30 12 C 0.983640 0.701309 1.808218 0
M  V30 13 C 1.555096 1.313303 2.906565 0
M  V30 14 C 0.934357 2.344506 3.592048 0
M  V30 15 C -0.305539 2.805292 3.190140 0
M  V30 16 C -0.847878 2.170638 2.088115 0
M  V30 17 C -2.168259 2.562855 1.551059 0
M  V30 18 N -2.544930 3.794422 1.161789 0
M  V30 19 N -3.781361 3.712175 0.753663 0
M  V30 20 C -4.202556 2.440015 0.876938 0
M  V30 21 N -3.202107 1.695827 1.378100 0
M  V30 22 C -3.147085 0.293560 1.692678 0
M  V30 23 C -2.875071 -0.646651 0.545688 0
M  V30 24 C -3.892614 -1.602591 1.162886 0
M  V30 25 F -3.320855 -2.479130 2.042803 0
M  V30 26 F -4.769461 -2.167236 0.263208 0
M  V30 27 C -4.456875 -0.393188 1.894911 0
M  V30 28 N -0.229640 1.181859 1.447784 0
M  V30 29 H 1.861513 -4.774818 1.912841 0
M  V30 30 H 3.395676 -4.992169 1.039767 0
M  V30 31 H 1.807937 -5.200991 0.124622 0
M  V30 32 H 6.090008 -3.714981 -2.673845 0
M  V30 33 H 6.210286 -1.978073 -3.281633 0
M  V30 34 H 4.925889 -3.064082 -3.913492 0
M  V30 35 H 4.484668 -0.314862 -2.125703 0
M  V30 36 H 1.452759 -1.300162 1.525610 0
M  V30 37 H 2.531943 0.948241 3.220947 0
M  V30 38 H 1.380974 2.823239 4.450937 0
M  V30 39 H -0.863376 3.602577 3.662807 0
M  V30 40 H -5.164055 1.959904 0.647303 0
M  V30 41 H -2.466029 0.109874 2.547163 0
M  V30 42 H -1.834072 -1.008284 0.581783 0
M  V30 43 H -3.197453 -0.313560 -0.443885 0
M  V30 44 H -5.339433 -0.006243 1.358622 0
M  V30 45 H -4.725003 -0.659628 2.934433 0
M  V30 END ATOM
M  V30 BEGIN BOND
M  V30 1 1 1 2
M  V30 2 1 2 3
M  V30 3 2 3 4
M  V30 4 1 4 5
M  V30 5 1 5 6
M  V30 6 1 5 7
M  V30 7 2 7 8
M  V30 8 1 8 9
M  V30 9 2 9 10
M  V30 10 1 9 11
M  V30 11 1 11 12
M  V30 12 2 12 13
M  V30 13 1 13 14
M  V30 14 2 14 15
M  V30 15 1 15 16
M  V30 16 1 16 17
M  V30 17 2 17 18
M  V30 18 1 18 19
M  V30 19 2 19 20
M  V30 20 1 20 21
M  V30 21 1 21 22
M  V30 22 1 22 23
M  V30 23 1 23 24
M  V30 24 1 24 25
M  V30 25 1 24 26
M  V30 26 1 24 27
M  V30 27 2 16 28
M  V30 28 1 8 3
M  V30 29 1 28 12
M  V30 30 1 21 17
M  V30 31 1 27 22
M  V30 32 1 1 29
M  V30 33 1 1 30
M  V30 34 1 1 31
M  V30 35 1 6 32
M  V30 36 1 6 33
M  V30 37 1 6 34
M  V30 38 1 7 35
M  V30 39 1 11 36
M  V30 40 1 13 37
M  V30 41 1 14 38
M  V30 42 1 15 39
M  V30 43 1 20 40
M  V30 44 1 22 41
M  V30 45 1 23 42
M  V30 46 1 23 43
M  V30 47 1 27 44
M  V30 48 1 27 45
M  V30 END BOND
M  V30 END CTAB
M  END
>  <Dataset>  (848) 
ChEMBL_Kinases

>  <Ligand_Instance>  (848) 
nan

>  <PDB_ID>  (848) 
nan

>  <Standardized_SMILES>  (848) 
COc1nn(C)cc1C(=O)Nc1cccc(-c2nncn2C2CC(F)(F)C2)n1

>  <Name>  (848) 
nan

>  <Pocket>  (848) 
nan

>  <ATP_Site>  (848) 
nan

>  <Peripheral>  (848) 
nan

>  <Num_H_Atoms_ProtBoundConf>  (848) 
nan

>  <Num_Resolved_Atoms>  (848) 
nan

>  <Num_Not_Resolved_Atoms>  (848) 
nan

$$$$
CHEMBL4861078
     RDKit          3D

  0  0  0  0  0  0  0  0  0  0999 V3000
M  V30 BEGIN CTAB
M  V30 COUNTS 44 47 0 0 0
M  V30 BEGIN ATOM
M  V30 1 C -1.364015 -6.686854 -0.633292 0
M  V30 2 N -0.854796 -5.355290 -0.720685 0
M  V30 3 C -0.148945 -4.566052 -1.665658 0
M  V30 4 O 0.071560 -5.279802 -2.688475 0
M  V30 5 C 0.218748 -3.196812 -1.424029 0
M  V30 6 C 1.068653 -2.529192 -2.277117 0
M  V30 7 C 1.456097 -1.233611 -2.105636 0
M  V30 8 C 1.020910 -0.479775 -1.049330 0
M  V30 9 C 1.402665 0.908246 -0.753200 0
M  V30 10 C 2.333572 1.541933 -1.546195 0
M  V30 11 C 2.703254 2.846446 -1.186087 0
M  V30 12 C 2.095703 3.363105 -0.070954 0
M  V30 13 N 2.488403 4.628401 0.260760 0
M  V30 14 C 1.950468 5.234512 1.363570 0
M  V30 15 N 1.035228 4.626839 2.147103 0
M  V30 16 C 0.615383 3.359452 1.848350 0
M  V30 17 N -0.315901 2.531293 2.488849 0
M  V30 18 C -0.400410 1.353195 3.257696 0
M  V30 19 C -1.665763 1.012776 3.714095 0
M  V30 20 C -1.808983 -0.140193 4.447489 0
M  V30 21 C -0.678690 -0.925003 4.707159 0
M  V30 22 C 0.548814 -0.537622 4.230708 0
M  V30 23 C 0.743650 0.612916 3.487509 0
M  V30 24 C 1.154679 2.723951 0.729076 0
M  V30 25 N 0.845193 1.477994 0.329057 0
M  V30 26 C 0.157786 -1.140285 -0.169238 0
M  V30 27 C -0.205127 -2.441717 -0.379082 0
M  V30 28 H -0.707100 -7.355133 -0.015122 0
M  V30 29 H -1.504738 -7.186728 -1.615979 0
M  V30 30 H -2.329682 -6.677169 -0.069846 0
M  V30 31 H -1.070320 -4.830668 0.191285 0
M  V30 32 H 1.476652 -3.038986 -3.151406 0
M  V30 33 H 2.123880 -0.753509 -2.798699 0
M  V30 34 H 2.790499 1.116751 -2.401570 0
M  V30 35 H 3.436607 3.394823 -1.773985 0
M  V30 36 H 2.225642 6.239686 1.679540 0
M  V30 37 H -1.164121 3.103215 2.225217 0
M  V30 38 H -2.540273 1.632432 3.511372 0
M  V30 39 H -2.823999 -0.386935 4.793891 0
M  V30 40 H -0.931464 -1.791515 5.287080 0
M  V30 41 H 1.331708 -1.237483 4.503968 0
M  V30 42 H 1.715243 0.862377 3.143760 0
M  V30 43 H -0.215694 -0.609833 0.672798 0
M  V30 44 H -0.883088 -2.860995 0.352846 0
M  V30 END ATOM
M  V30 BEGIN BOND
M  V30 1 1 1 2
M  V30 2 1 2 3
M  V30 3 2 3 4
M  V30 4 1 3 5
M  V30 5 2 5 6
M  V30 6 1 6 7
M  V30 7 2 7 8
M  V30 8 1 8 9
M  V30 9 2 9 10
M  V30 10 1 10 11
M  V30 11 2 11 12
M  V30 12 1 12 13
M  V30 13 2 13 14
M  V30 14 1 14 15
M  V30 15 2 15 16
M  V30 16 1 16 17
M  V30 17 1 17 18
M  V30 18 2 18 19
M  V30 19 1 19 20
M  V30 20 2 20 21
M  V30 21 1 21 22
M  V30 22 2 22 23
M  V30 23 1 16 24
M  V30 24 2 24 25
M  V30 25 1 8 26
M  V30 26 2 26 27
M  V30 27 1 27 5
M  V30 28 1 25 9
M  V30 29 1 24 12
M  V30 30 1 23 18
M  V30 31 1 1 28
M  V30 32 1 1 29
M  V30 33 1 1 30
M  V30 34 1 2 31
M  V30 35 1 6 32
M  V30 36 1 7 33
M  V30 37 1 10 34
M  V30 38 1 11 35
M  V30 39 1 14 36
M  V30 40 1 17 37
M  V30 41 1 19 38
M  V30 42 1 20 39
M  V30 43 1 21 40
M  V30 44 1 22 41
M  V30 45 1 23 42
M  V30 46 1 26 43
M  V30 47 1 27 44
M  V30 END BOND
M  V30 END CTAB
M  END
>  <Dataset>  (849) 
ChEMBL_Kinases

>  <Ligand_Instance>  (849) 
nan

>  <PDB_ID>  (849) 
nan

>  <Standardized_SMILES>  (849) 
CNC(=O)c1ccc(-c2ccc3ncnc(Nc4ccccc4)c3n2)cc1

>  <Name>  (849) 
nan

>  <Pocket>  (849) 
nan

>  <ATP_Site>  (849) 
nan

>  <Peripheral>  (849) 
nan

>  <Num_H_Atoms_ProtBoundConf>  (849) 
nan

>  <Num_Resolved_Atoms>  (849) 
nan

>  <Num_Not_Resolved_Atoms>  (849) 
nan

$$$$
CHEMBL4069269
     RDKit          3D

  0  0  0  0  0  0  0  0  0  0999 V3000
M  V30 BEGIN CTAB
M  V30 COUNTS 27 29 0 0 0
M  V30 BEGIN ATOM
M  V30 1 C 0.899670 -4.217121 -1.598200 0
M  V30 2 S 2.138845 -2.933720 -1.214819 0
M  V30 3 C 1.542811 -2.001903 0.141103 0
M  V30 4 S 1.840325 -2.360876 1.917023 0
M  V30 5 C 0.937645 -1.010799 2.553800 0
M  V30 6 C 0.861193 -0.837007 3.978372 0
M  V30 7 N 0.146588 0.234550 4.564681 0
M  V30 8 O 1.440259 -1.651576 4.738458 0
M  V30 9 C 0.448792 -0.342416 1.448497 0
M  V30 10 C 0.758266 -0.849442 0.212744 0
M  V30 11 C 0.260739 -0.176607 -0.979763 0
M  V30 12 O 0.347918 -0.361105 -2.270788 0
M  V30 13 N -0.301159 0.557436 -2.916290 0
M  V30 14 C -0.877156 1.436291 -2.050585 0
M  V30 15 C -0.507353 0.951365 -0.816708 0
M  V30 16 C -0.880220 1.551129 0.473108 0
M  V30 17 C -0.370345 0.869926 1.683184 0
M  V30 18 H 0.034943 -4.188141 -0.898747 0
M  V30 19 H 0.503616 -4.079533 -2.640689 0
M  V30 20 H 1.339240 -5.233314 -1.547640 0
M  V30 21 H 0.939021 0.926500 4.507273 0
M  V30 22 H -0.619623 0.796167 5.008179 0
M  V30 23 H -1.446645 2.248896 -2.464732 0
M  V30 24 H -2.007890 1.673713 0.532453 0
M  V30 25 H -0.536277 2.632020 0.500181 0
M  V30 26 H -1.272830 0.603454 2.320835 0
M  V30 27 H 0.225286 1.617750 2.297304 0
M  V30 END ATOM
M  V30 BEGIN BOND
M  V30 1 1 1 2
M  V30 2 1 2 3
M  V30 3 1 3 4
M  V30 4 1 4 5
M  V30 5 1 5 6
M  V30 6 1 6 7
M  V30 7 2 6 8
M  V30 8 2 5 9
M  V30 9 1 9 10
M  V30 10 1 10 11
M  V30 11 1 11 12
M  V30 12 1 12 13
M  V30 13 2 13 14
M  V30 14 1 14 15
M  V30 15 1 15 16
M  V30 16 1 16 17
M  V30 17 2 10 3
M  V30 18 2 15 11
M  V30 19 1 17 9
M  V30 20 1 1 18
M  V30 21 1 1 19
M  V30 22 1 1 20
M  V30 23 1 7 21
M  V30 24 1 7 22
M  V30 25 1 14 23
M  V30 26 1 16 24
M  V30 27 1 16 25
M  V30 28 1 17 26
M  V30 29 1 17 27
M  V30 END BOND
M  V30 END CTAB
M  END
>  <Dataset>  (850) 
ChEMBL_Kinases

>  <Ligand_Instance>  (850) 
nan

>  <PDB_ID>  (850) 
nan

>  <Standardized_SMILES>  (850) 
CSc1sc(C(N)=O)c2c1-c1oncc1CC2

>  <Name>  (850) 
nan

>  <Pocket>  (850) 
nan

>  <ATP_Site>  (850) 
nan

>  <Peripheral>  (850) 
nan

>  <Num_H_Atoms_ProtBoundConf>  (850) 
nan

>  <Num_Resolved_Atoms>  (850) 
nan

>  <Num_Not_Resolved_Atoms>  (850) 
nan

$$$$
CHEMBL4069244
     RDKit          3D

  0  0  0  0  0  0  0  0  0  0999 V3000
M  V30 BEGIN CTAB
M  V30 COUNTS 54 57 0 0 0
M  V30 BEGIN ATOM
M  V30 1 C 4.559805 -4.551003 0.610195 0
M  V30 2 N 4.503866 -3.104562 0.707673 0
M  V30 3 C 4.810946 -2.229926 1.702200 0
M  V30 4 C 4.558956 -0.934402 1.234077 0
M  V30 5 C 4.800895 0.229495 2.075859 0
M  V30 6 C 6.043307 0.279439 2.710353 0
M  V30 7 C 6.432878 1.317865 3.527926 0
M  V30 8 N 5.559953 2.324761 3.712581 0
M  V30 9 C 4.370978 2.284581 3.110563 0
M  V30 10 C 3.931064 1.278664 2.288311 0
M  V30 11 C 2.632847 1.239152 1.650649 0
M  V30 12 C 1.711289 2.159680 1.746552 0
M  V30 13 C 0.391796 2.171998 1.130113 0
M  V30 14 O -0.449922 3.113503 1.271611 0
M  V30 15 N -0.018978 1.095136 0.319556 0
M  V30 16 C -1.195014 0.784592 -0.413972 0
M  V30 17 C -1.434589 1.122147 -1.745173 0
M  V30 18 C -2.622788 0.766938 -2.369392 0
M  V30 19 C -3.549666 0.070192 -1.619750 0
M  V30 20 C -3.334097 -0.273645 -0.302875 0
M  V30 21 C -2.145598 0.088454 0.301651 0
M  V30 22 C -4.500615 -1.016933 0.247061 0
M  V30 23 N -4.870598 -2.126673 -0.593497 0
M  V30 24 C -5.991839 -2.882244 -0.148393 0
M  V30 25 C -5.777986 -3.678057 1.109689 0
M  V30 26 F -6.994953 -4.332693 1.353080 0
M  V30 27 F -4.834942 -4.651061 0.967308 0
M  V30 28 F -5.532889 -2.920653 2.222211 0
M  V30 29 C -5.049455 -1.781424 -1.984888 0
M  V30 30 C -4.825963 -0.315156 -2.276664 0
M  V30 31 C 4.099504 -1.099085 -0.055652 0
M  V30 32 N 4.080291 -2.414252 -0.335939 0
M  V30 33 H 3.559439 -5.021062 0.740610 0
M  V30 34 H 5.038689 -4.870846 -0.337848 0
M  V30 35 H 5.182249 -4.908055 1.468342 0
M  V30 36 H 5.181072 -2.580557 2.659606 0
M  V30 37 H 6.781153 -0.518174 2.586227 0
M  V30 38 H 7.404387 1.319824 4.002132 0
M  V30 39 H 3.725868 3.122867 3.304592 0
M  V30 40 H 2.337747 0.403628 1.034626 0
M  V30 41 H 1.932205 3.031289 2.355187 0
M  V30 42 H 0.548449 0.254642 0.106896 0
M  V30 43 H -0.631955 1.671961 -2.235366 0
M  V30 44 H -2.765359 1.048727 -3.403688 0
M  V30 45 H -2.095813 -0.240043 1.340763 0
M  V30 46 H -4.223892 -1.312235 1.262889 0
M  V30 47 H -5.357285 -0.292105 0.271534 0
M  V30 48 H -6.182263 -3.653005 -0.951917 0
M  V30 49 H -6.946475 -2.300625 -0.109535 0
M  V30 50 H -6.060982 -2.097545 -2.326341 0
M  V30 51 H -4.269460 -2.322001 -2.598883 0
M  V30 52 H -4.762084 -0.231420 -3.381507 0
M  V30 53 H -5.689136 0.241316 -1.851659 0
M  V30 54 H 3.825922 -0.284862 -0.680987 0
M  V30 END ATOM
M  V30 BEGIN BOND
M  V30 1 1 1 2
M  V30 2 1 2 3
M  V30 3 2 3 4
M  V30 4 1 4 5
M  V30 5 2 5 6
M  V30 6 1 6 7
M  V30 7 2 7 8
M  V30 8 1 8 9
M  V30 9 2 9 10
M  V30 10 1 10 11
M  V30 11 2 11 12
M  V30 12 1 12 13
M  V30 13 2 13 14
M  V30 14 1 13 15
M  V30 15 1 15 16
M  V30 16 2 16 17
M  V30 17 1 17 18
M  V30 18 2 18 19
M  V30 19 1 19 20
M  V30 20 2 20 21
M  V30 21 1 20 22
M  V30 22 1 22 23
M  V30 23 1 23 24
M  V30 24 1 24 25
M  V30 25 1 25 26
M  V30 26 1 25 27
M  V30 27 1 25 28
M  V30 28 1 23 29
M  V30 29 1 29 30
M  V30 30 1 4 31
M  V30 31 2 31 32
M  V30 32 1 32 2
M  V30 33 1 10 5
M  V30 34 1 21 16
M  V30 35 1 30 19
M  V30 36 1 1 33
M  V30 37 1 1 34
M  V30 38 1 1 35
M  V30 39 1 3 36
M  V30 40 1 6 37
M  V30 41 1 7 38
M  V30 42 1 9 39
M  V30 43 1 11 40
M  V30 44 1 12 41
M  V30 45 1 15 42
M  V30 46 1 17 43
M  V30 47 1 18 44
M  V30 48 1 21 45
M  V30 49 1 22 46
M  V30 50 1 22 47
M  V30 51 1 24 48
M  V30 52 1 24 49
M  V30 53 1 29 50
M  V30 54 1 29 51
M  V30 55 1 30 52
M  V30 56 1 30 53
M  V30 57 1 31 54
M  V30 END BOND
M  V30 END CTAB
M  END
>  <Dataset>  (851) 
ChEMBL_Kinases

>  <Ligand_Instance>  (851) 
nan

>  <PDB_ID>  (851) 
nan

>  <Standardized_SMILES>  (851) 
Cn1cc(-c2ccncc2/C=C/C(=O)Nc2ccc3c(c2)CN(CC(F)(F)F)CC3)cn1

>  <Name>  (851) 
nan

>  <Pocket>  (851) 
nan

>  <ATP_Site>  (851) 
nan

>  <Peripheral>  (851) 
nan

>  <Num_H_Atoms_ProtBoundConf>  (851) 
nan

>  <Num_Resolved_Atoms>  (851) 
nan

>  <Num_Not_Resolved_Atoms>  (851) 
nan

$$$$
CHEMBL4069201
     RDKit          3D

  0  0  0  0  0  0  0  0  0  0999 V3000
M  V30 BEGIN CTAB
M  V30 COUNTS 44 46 0 0 0
M  V30 BEGIN ATOM
M  V30 1 C 0.466476 -6.166845 1.816252 0
M  V30 2 C 0.338687 -4.720344 1.437483 0
M  V30 3 C -0.168695 -4.416884 0.190364 0
M  V30 4 C -0.319270 -3.113959 -0.236959 0
M  V30 5 C 0.053508 -2.098371 0.620878 0
M  V30 6 C -0.023718 -0.646636 0.364802 0
M  V30 7 C 0.902653 0.229706 -0.194045 0
M  V30 8 C 2.180547 -0.289537 -0.617822 0
M  V30 9 C 3.249540 0.284553 -1.099763 0
M  V30 10 C 4.483350 -0.324930 -1.497204 0
M  V30 11 N 5.468292 -0.833142 -1.811702 0
M  V30 12 N 0.313861 1.404660 -0.184245 0
M  V30 13 C 0.861512 2.619789 -0.695153 0
M  V30 14 C 1.710468 3.386917 0.299778 0
M  V30 15 C 0.889741 3.767960 1.525205 0
M  V30 16 O 1.712523 4.479302 2.427984 0
M  V30 17 C -0.942520 1.362268 0.347275 0
M  V30 18 N -1.890848 2.291614 0.557131 0
M  V30 19 C -3.072378 1.968897 1.113022 0
M  V30 20 N -3.289222 0.687338 1.458120 0
M  V30 21 C -2.368670 -0.271062 1.265613 0
M  V30 22 N -2.601211 -1.607621 1.628296 0
M  V30 23 C -1.156859 0.051428 0.697166 0
M  V30 24 C 0.565776 -2.388109 1.879223 0
M  V30 25 C 0.711593 -3.704024 2.295599 0
M  V30 26 H -0.558134 -6.625322 1.916982 0
M  V30 27 H 0.958846 -6.695676 0.981336 0
M  V30 28 H 0.944121 -6.274997 2.791521 0
M  V30 29 H -0.478438 -5.167849 -0.526808 0
M  V30 30 H -0.704986 -2.780396 -1.189891 0
M  V30 31 H 2.408826 -1.366330 -0.572172 0
M  V30 32 H 3.208829 1.353482 -1.201106 0
M  V30 33 H 1.372807 2.562750 -1.660737 0
M  V30 34 H 0.009568 3.362701 -0.924385 0
M  V30 35 H 2.008214 4.331481 -0.192340 0
M  V30 36 H 2.631162 2.843375 0.592081 0
M  V30 37 H 0.471806 2.890019 2.017371 0
M  V30 38 H 0.078009 4.460163 1.271360 0
M  V30 39 H 2.150890 3.760576 2.974191 0
M  V30 40 H -3.785986 2.777950 1.249109 0
M  V30 41 H -2.559253 -1.841549 2.650872 0
M  V30 42 H -2.822440 -2.554436 1.229633 0
M  V30 43 H 0.884773 -1.666537 2.620266 0
M  V30 44 H 1.104135 -3.993193 3.263005 0
M  V30 END ATOM
M  V30 BEGIN BOND
M  V30 1 1 1 2
M  V30 2 2 2 3
M  V30 3 1 3 4
M  V30 4 2 4 5
M  V30 5 1 5 6
M  V30 6 2 6 7
M  V30 7 1 7 8
M  V30 8 2 8 9
M  V30 9 1 9 10
M  V30 10 3 10 11
M  V30 11 1 7 12
M  V30 12 1 12 13
M  V30 13 1 13 14
M  V30 14 1 14 15
M  V30 15 1 15 16
M  V30 16 1 12 17
M  V30 17 2 17 18
M  V30 18 1 18 19
M  V30 19 2 19 20
M  V30 20 1 20 21
M  V30 21 1 21 22
M  V30 22 2 21 23
M  V30 23 1 5 24
M  V30 24 2 24 25
M  V30 25 1 25 2
M  V30 26 1 23 6
M  V30 27 1 23 17
M  V30 28 1 1 26
M  V30 29 1 1 27
M  V30 30 1 1 28
M  V30 31 1 3 29
M  V30 32 1 4 30
M  V30 33 1 8 31
M  V30 34 1 9 32
M  V30 35 1 13 33
M  V30 36 1 13 34
M  V30 37 1 14 35
M  V30 38 1 14 36
M  V30 39 1 15 37
M  V30 40 1 15 38
M  V30 41 1 16 39
M  V30 42 1 19 40
M  V30 43 1 22 41
M  V30 44 1 22 42
M  V30 45 1 24 43
M  V30 46 1 25 44
M  V30 END BOND
M  V30 END CTAB
M  END
>  <Dataset>  (852) 
ChEMBL_Kinases

>  <Ligand_Instance>  (852) 
nan

>  <PDB_ID>  (852) 
nan

>  <Standardized_SMILES>  (852) 
Cc1ccc(-c2c(/C=C/C#N)n(CCCO)c3ncnc(N)c23)cc1

>  <Name>  (852) 
nan

>  <Pocket>  (852) 
nan

>  <ATP_Site>  (852) 
nan

>  <Peripheral>  (852) 
nan

>  <Num_H_Atoms_ProtBoundConf>  (852) 
nan

>  <Num_Resolved_Atoms>  (852) 
nan

>  <Num_Not_Resolved_Atoms>  (852) 
nan

$$$$
CHEMBL4860731
     RDKit          3D

  0  0  0  0  0  0  0  0  0  0999 V3000
M  V30 BEGIN CTAB
M  V30 COUNTS 46 49 0 0 0
M  V30 BEGIN ATOM
M  V30 1 C 2.451504 -1.355010 4.815579 0
M  V30 2 O 2.322767 -0.805529 3.515366 0
M  V30 3 C 3.184532 -1.103397 2.484096 0
M  V30 4 N 4.238232 -1.936724 2.574067 0
M  V30 5 N 4.860278 -2.004336 1.405209 0
M  V30 6 C 6.041726 -2.798208 1.101567 0
M  V30 7 C 4.188290 -1.199889 0.561666 0
M  V30 8 C 3.119074 -0.607574 1.199747 0
M  V30 9 C 2.164771 0.323940 0.608997 0
M  V30 10 O 2.291865 0.646939 -0.599614 0
M  V30 11 N 1.094944 0.886349 1.334269 0
M  V30 12 C 0.225361 1.794219 0.625984 0
M  V30 13 C 0.338293 3.160261 0.492692 0
M  V30 14 C -0.626385 3.819725 -0.240325 0
M  V30 15 C -1.677872 3.151847 -0.828780 0
M  V30 16 C -1.766859 1.781003 -0.679047 0
M  V30 17 C -2.863035 0.994039 -1.278789 0
M  V30 18 N -3.641211 1.343635 -2.316604 0
M  V30 19 N -4.518137 0.381747 -2.572472 0
M  V30 20 C -4.260121 -0.575230 -1.661614 0
M  V30 21 N -3.238957 -0.223613 -0.845813 0
M  V30 22 C -2.691910 -0.991581 0.235632 0 CFG=2
M  V30 23 C -1.649128 -1.997053 -0.192674 0
M  V30 24 C -1.902712 -3.179040 0.722279 0
M  V30 25 O -2.977227 -2.861611 1.529594 0
M  V30 26 C -3.734867 -1.929593 0.856716 0
M  V30 27 N -0.811809 1.154329 0.042670 0
M  V30 28 H 1.669225 -2.115839 5.027628 0
M  V30 29 H 2.324554 -0.496920 5.532885 0
M  V30 30 H 3.472714 -1.778934 4.972775 0
M  V30 31 H 5.663979 -3.778152 0.722739 0
M  V30 32 H 6.591527 -2.319111 0.283897 0
M  V30 33 H 6.638715 -3.021791 1.988011 0
M  V30 34 H 4.503426 -1.079899 -0.474581 0
M  V30 35 H 0.940377 0.655168 2.338710 0
M  V30 36 H 1.196686 3.570456 0.993588 0
M  V30 37 H -0.498870 4.890502 -0.319227 0
M  V30 38 H -2.422312 3.682087 -1.397701 0
M  V30 39 H -4.847066 -1.483171 -1.654874 0
M  V30 40 H -2.314228 -0.386308 1.070753 0
M  V30 41 H -0.623242 -1.639029 0.000782 0
M  V30 42 H -1.754389 -2.331244 -1.241508 0
M  V30 43 H -1.000811 -3.395609 1.362854 0
M  V30 44 H -2.136385 -4.086411 0.153969 0
M  V30 45 H -4.361034 -1.367213 1.567147 0
M  V30 46 H -4.315976 -2.434697 0.069655 0
M  V30 END ATOM
M  V30 BEGIN BOND
M  V30 1 1 1 2
M  V30 2 1 2 3
M  V30 3 2 3 4
M  V30 4 1 4 5
M  V30 5 1 5 6
M  V30 6 1 5 7
M  V30 7 2 7 8
M  V30 8 1 8 9
M  V30 9 2 9 10
M  V30 10 1 9 11
M  V30 11 1 11 12
M  V30 12 2 12 13
M  V30 13 1 13 14
M  V30 14 2 14 15
M  V30 15 1 15 16
M  V30 16 1 16 17
M  V30 17 2 17 18
M  V30 18 1 18 19
M  V30 19 2 19 20
M  V30 20 1 20 21
M  V30 21 1 21 22
M  V30 22 1 22 23
M  V30 23 1 23 24
M  V30 24 1 24 25
M  V30 25 1 25 26
M  V30 26 2 16 27
M  V30 27 1 8 3
M  V30 28 1 27 12
M  V30 29 1 21 17
M  V30 30 1 26 22
M  V30 31 1 1 28
M  V30 32 1 1 29
M  V30 33 1 1 30
M  V30 34 1 6 31
M  V30 35 1 6 32
M  V30 36 1 6 33
M  V30 37 1 7 34
M  V30 38 1 11 35
M  V30 39 1 13 36
M  V30 40 1 14 37
M  V30 41 1 15 38
M  V30 42 1 20 39
M  V30 43 1 22 40 CFG=1
M  V30 44 1 23 41
M  V30 45 1 23 42
M  V30 46 1 24 43
M  V30 47 1 24 44
M  V30 48 1 26 45
M  V30 49 1 26 46
M  V30 END BOND
M  V30 END CTAB
M  END
>  <Dataset>  (853) 
ChEMBL_Kinases

>  <Ligand_Instance>  (853) 
nan

>  <PDB_ID>  (853) 
nan

>  <Standardized_SMILES>  (853) 
COc1nn(C)cc1C(=O)Nc1cccc(-c2nncn2[C@@H]2CCOC2)n1

>  <Name>  (853) 
nan

>  <Pocket>  (853) 
nan

>  <ATP_Site>  (853) 
nan

>  <Peripheral>  (853) 
nan

>  <Num_H_Atoms_ProtBoundConf>  (853) 
nan

>  <Num_Resolved_Atoms>  (853) 
nan

>  <Num_Not_Resolved_Atoms>  (853) 
nan

$$$$
CHEMBL4860741
     RDKit          3D

  0  0  0  0  0  0  0  0  0  0999 V3000
M  V30 BEGIN CTAB
M  V30 COUNTS 55 58 0 0 0
M  V30 BEGIN ATOM
M  V30 1 C 0.104943 -3.701164 4.919541 0
M  V30 2 C -0.547415 -4.063244 3.612973 0
M  V30 3 C 0.238501 -3.592242 2.444950 0
M  V30 4 C -0.290321 -3.919331 1.200512 0
M  V30 5 C 0.581018 -3.408750 0.252875 0
M  V30 6 N 0.857514 -3.271820 -1.153357 0
M  V30 7 C 0.083822 -2.180572 -1.635742 0
M  V30 8 N 0.385621 -0.893595 -1.383782 0
M  V30 9 C -0.329180 0.148872 -1.843160 0
M  V30 10 N -0.021932 1.506450 -1.555439 0
M  V30 11 C 1.028852 1.981591 -0.688071 0 CFG=1
M  V30 12 C 1.081718 3.466873 -0.647577 0
M  V30 13 C 0.970752 1.346680 0.693657 0
M  V30 14 C 2.011835 1.796639 1.637077 0
M  V30 15 C 1.606101 2.610189 2.815677 0
M  V30 16 C 0.204082 2.436871 3.265929 0
M  V30 17 C -0.809560 2.368951 2.166547 0
M  V30 18 C -0.401343 1.257160 1.265854 0
M  V30 19 N -1.394313 -0.171273 -2.590455 0
M  V30 20 C -1.761458 -1.410703 -2.885805 0
M  V30 21 C -2.899401 -1.583355 -3.678722 0
M  V30 22 C -3.296774 -2.884643 -3.996730 0
M  V30 23 C -2.531913 -3.919827 -3.501913 0
M  V30 24 C -1.408349 -3.758811 -2.720106 0
M  V30 25 C -1.010611 -2.473095 -2.402281 0
M  V30 26 N 1.590711 -2.800325 0.907285 0
M  V30 27 N 1.374392 -2.917130 2.216142 0
M  V30 28 H 0.142201 -4.580430 5.615725 0
M  V30 29 H -0.431064 -2.914356 5.466097 0
M  V30 30 H 1.161815 -3.425023 4.755334 0
M  V30 31 H -1.531715 -3.511536 3.577928 0
M  V30 32 H -0.799515 -5.121744 3.568842 0
M  V30 33 H -1.120020 -4.418839 0.718338 0
M  V30 34 H 1.543780 -3.944867 -1.602403 0
M  V30 35 H -0.623622 2.240562 -2.024058 0
M  V30 36 H 1.978627 1.657641 -1.197753 0
M  V30 37 H 1.034970 3.803388 -1.726462 0
M  V30 38 H 2.090796 3.854656 -0.320913 0
M  V30 39 H 0.260118 3.984776 -0.162727 0
M  V30 40 H 1.230822 0.261532 0.459959 0
M  V30 41 H 2.670085 0.972074 1.989781 0
M  V30 42 H 2.722327 2.450060 1.045137 0
M  V30 43 H 2.257083 2.374876 3.687708 0
M  V30 44 H 1.770818 3.703053 2.655593 0
M  V30 45 H -0.088249 3.294807 3.917118 0
M  V30 46 H 0.095965 1.524774 3.894287 0
M  V30 47 H -1.052071 3.321877 1.705340 0
M  V30 48 H -1.771140 2.028068 2.654535 0
M  V30 49 H -0.447642 0.319325 1.897601 0
M  V30 50 H -1.172682 1.103424 0.498380 0
M  V30 51 H -3.448256 -0.733395 -4.029783 0
M  V30 52 H -4.182674 -3.072117 -4.618439 0
M  V30 53 H -2.849458 -4.921346 -3.756047 0
M  V30 54 H -0.829689 -4.575539 -2.347533 0
M  V30 55 H 1.916180 -2.587030 3.069785 0
M  V30 END ATOM
M  V30 BEGIN BOND
M  V30 1 1 1 2
M  V30 2 1 2 3
M  V30 3 2 3 4
M  V30 4 1 4 5
M  V30 5 1 5 6
M  V30 6 1 6 7
M  V30 7 2 7 8
M  V30 8 1 8 9
M  V30 9 1 9 10
M  V30 10 1 10 11
M  V30 11 1 11 12
M  V30 12 1 11 13
M  V30 13 1 13 14
M  V30 14 1 14 15
M  V30 15 1 15 16
M  V30 16 1 16 17
M  V30 17 1 17 18
M  V30 18 2 9 19
M  V30 19 1 19 20
M  V30 20 2 20 21
M  V30 21 1 21 22
M  V30 22 2 22 23
M  V30 23 1 23 24
M  V30 24 2 24 25
M  V30 25 2 5 26
M  V30 26 1 26 27
M  V30 27 1 27 3
M  V30 28 1 25 7
M  V30 29 1 18 13
M  V30 30 1 25 20
M  V30 31 1 1 28
M  V30 32 1 1 29
M  V30 33 1 1 30
M  V30 34 1 2 31
M  V30 35 1 2 32
M  V30 36 1 4 33
M  V30 37 1 6 34
M  V30 38 1 10 35
M  V30 39 1 11 36 CFG=3
M  V30 40 1 12 37
M  V30 41 1 12 38
M  V30 42 1 12 39
M  V30 43 1 13 40
M  V30 44 1 14 41
M  V30 45 1 14 42
M  V30 46 1 15 43
M  V30 47 1 15 44
M  V30 48 1 16 45
M  V30 49 1 16 46
M  V30 50 1 17 47
M  V30 51 1 17 48
M  V30 52 1 18 49
M  V30 53 1 18 50
M  V30 54 1 21 51
M  V30 55 1 22 52
M  V30 56 1 23 53
M  V30 57 1 24 54
M  V30 58 1 27 55
M  V30 END BOND
M  V30 END CTAB
M  END
>  <Dataset>  (854) 
ChEMBL_Kinases

>  <Ligand_Instance>  (854) 
nan

>  <PDB_ID>  (854) 
nan

>  <Standardized_SMILES>  (854) 
CCc1cc(Nc2nc(N[C@@H](C)C3CCCCC3)nc3ccccc23)n[nH]1

>  <Name>  (854) 
nan

>  <Pocket>  (854) 
nan

>  <ATP_Site>  (854) 
nan

>  <Peripheral>  (854) 
nan

>  <Num_H_Atoms_ProtBoundConf>  (854) 
nan

>  <Num_Resolved_Atoms>  (854) 
nan

>  <Num_Not_Resolved_Atoms>  (854) 
nan

$$$$
CHEMBL4860744
     RDKit          3D

  0  0  0  0  0  0  0  0  0  0999 V3000
M  V30 BEGIN CTAB
M  V30 COUNTS 43 46 0 0 0
M  V30 BEGIN ATOM
M  V30 1 C -1.275046 -4.700467 1.078037 0
M  V30 2 C -0.297031 -4.000366 0.201477 0
M  V30 3 C -0.623656 -3.489801 -1.040856 0
M  V30 4 C 0.320296 -2.846816 -1.819374 0
M  V30 5 C 1.631969 -2.689423 -1.383225 0
M  V30 6 N 2.610711 -2.024884 -2.186011 0
M  V30 7 S 3.645386 -0.861269 -1.395927 0
M  V30 8 O 4.500928 -1.491464 -0.368561 0
M  V30 9 O 4.498394 -0.255439 -2.490947 0
M  V30 10 C 2.601978 0.400196 -0.774600 0
M  V30 11 C 2.289490 1.517172 -1.557064 0
M  V30 12 C 1.474352 2.534605 -1.113534 0
M  V30 13 C 0.932677 2.469234 0.152749 0
M  V30 14 C 1.217130 1.370816 0.971999 0
M  V30 15 C 0.678153 1.237595 2.321256 0
M  V30 16 N 1.327644 0.869036 3.429972 0
M  V30 17 N 0.490483 0.867053 4.466327 0
M  V30 18 C -0.754746 1.238479 4.072990 0
M  V30 19 C -1.949766 1.391719 4.745711 0
M  V30 20 C -3.100338 1.796848 4.062138 0
M  V30 21 F -4.230697 1.924703 4.786751 0
M  V30 22 C -2.979381 2.031661 2.700325 0
M  V30 23 C -1.769070 1.868996 2.057570 0
M  V30 24 C -0.626584 1.470348 2.717557 0
M  V30 25 C 2.039257 0.379471 0.479048 0
M  V30 26 C 1.949733 -3.201940 -0.142006 0
M  V30 27 C 1.008556 -3.845600 0.639513 0
M  V30 28 H -0.709714 -5.376216 1.740031 0
M  V30 29 H -1.793054 -3.945127 1.704557 0
M  V30 30 H -2.027299 -5.258277 0.490009 0
M  V30 31 H -1.644179 -3.623928 -1.356128 0
M  V30 32 H 0.030047 -2.452592 -2.800702 0
M  V30 33 H 2.670901 -2.259785 -3.215458 0
M  V30 34 H 2.723410 1.554549 -2.551806 0
M  V30 35 H 1.269060 3.370804 -1.761750 0
M  V30 36 H 0.289593 3.254911 0.524946 0
M  V30 37 H 0.671721 0.627126 5.484198 0
M  V30 38 H -1.996810 1.195384 5.818043 0
M  V30 39 H -3.896890 2.342369 2.219039 0
M  V30 40 H -1.739171 2.065671 1.004478 0
M  V30 41 H 2.272087 -0.475503 1.091824 0
M  V30 42 H 2.948301 -3.119325 0.266754 0
M  V30 43 H 1.296145 -4.239903 1.619441 0
M  V30 END ATOM
M  V30 BEGIN BOND
M  V30 1 1 1 2
M  V30 2 2 2 3
M  V30 3 1 3 4
M  V30 4 2 4 5
M  V30 5 1 5 6
M  V30 6 1 6 7
M  V30 7 2 7 8
M  V30 8 2 7 9
M  V30 9 1 7 10
M  V30 10 2 10 11
M  V30 11 1 11 12
M  V30 12 2 12 13
M  V30 13 1 13 14
M  V30 14 1 14 15
M  V30 15 2 15 16
M  V30 16 1 16 17
M  V30 17 1 17 18
M  V30 18 2 18 19
M  V30 19 1 19 20
M  V30 20 1 20 21
M  V30 21 2 20 22
M  V30 22 1 22 23
M  V30 23 2 23 24
M  V30 24 2 14 25
M  V30 25 1 5 26
M  V30 26 2 26 27
M  V30 27 1 27 2
M  V30 28 1 25 10
M  V30 29 1 24 15
M  V30 30 1 24 18
M  V30 31 1 1 28
M  V30 32 1 1 29
M  V30 33 1 1 30
M  V30 34 1 3 31
M  V30 35 1 4 32
M  V30 36 1 6 33
M  V30 37 1 11 34
M  V30 38 1 12 35
M  V30 39 1 13 36
M  V30 40 1 17 37
M  V30 41 1 19 38
M  V30 42 1 22 39
M  V30 43 1 23 40
M  V30 44 1 25 41
M  V30 45 1 26 42
M  V30 46 1 27 43
M  V30 END BOND
M  V30 END CTAB
M  END
>  <Dataset>  (855) 
ChEMBL_Kinases

>  <Ligand_Instance>  (855) 
nan

>  <PDB_ID>  (855) 
nan

>  <Standardized_SMILES>  (855) 
Cc1ccc(NS(=O)(=O)c2cccc(-c3n[nH]c4cc(F)ccc34)c2)cc1

>  <Name>  (855) 
nan

>  <Pocket>  (855) 
nan

>  <ATP_Site>  (855) 
nan

>  <Peripheral>  (855) 
nan

>  <Num_H_Atoms_ProtBoundConf>  (855) 
nan

>  <Num_Resolved_Atoms>  (855) 
nan

>  <Num_Not_Resolved_Atoms>  (855) 
nan

$$$$
CHEMBL4069112
     RDKit          3D

  0  0  0  0  0  0  0  0  0  0999 V3000
M  V30 BEGIN CTAB
M  V30 COUNTS 92 94 0 0 0
M  V30 BEGIN ATOM
M  V30 1 O 2.187670 -5.809328 8.836468 0
M  V30 2 C 2.755340 -5.187023 7.879832 0
M  V30 3 O 3.926506 -5.758183 7.405394 0
M  V30 4 C 2.127890 -3.930733 7.366862 0
M  V30 5 C 2.955639 -3.414664 6.233946 0 CFG=2
M  V30 6 N 2.382401 -2.185040 5.704664 0
M  V30 7 C 3.253209 -1.129211 5.376079 0
M  V30 8 O 4.509266 -1.327871 5.569712 0
M  V30 9 C 3.083219 0.262175 4.822877 0 CFG=2
M  V30 10 C 3.874409 1.282334 5.599162 0
M  V30 11 C 3.704925 2.653266 5.063015 0
M  V30 12 O 2.909087 2.750914 4.073252 0
M  V30 13 O 4.361662 3.747802 5.596130 0
M  V30 14 N 1.708744 0.598806 4.633896 0
M  V30 15 C 1.179833 0.516855 3.316014 0
M  V30 16 O 1.785781 0.164959 2.248359 0
M  V30 17 C -0.221590 0.820094 2.828421 0 CFG=2
M  V30 18 C -1.270712 0.130046 3.625061 0
M  V30 19 C -2.605542 0.480370 3.076794 0
M  V30 20 O -2.850929 1.225077 2.112090 0
M  V30 21 O -3.676252 -0.111278 3.745122 0
M  V30 22 N -0.206239 0.484755 1.420755 0
M  V30 23 C -0.109898 1.447614 0.400241 0
M  V30 24 O -0.035040 2.605825 0.876927 0
M  V30 25 C -0.099211 1.087730 -1.060148 0
M  V30 26 C 0.227819 2.366195 -1.787891 0
M  V30 27 C 0.275855 2.175111 -3.312037 0
M  V30 28 C 0.650548 3.477430 -3.962309 0
M  V30 29 C 0.797721 3.478731 -5.430478 0
M  V30 30 C -0.300846 3.208885 -6.345686 0
M  V30 31 C -1.039536 1.939778 -6.368423 0
M  V30 32 C -0.189701 0.712549 -6.588045 0
M  V30 33 O -0.974822 -0.401631 -6.649011 0
M  V30 34 C -1.848809 -1.016447 -5.827503 0
M  V30 35 N -2.285878 -0.738263 -4.586997 0
M  V30 36 C -3.177902 -1.481121 -3.915239 0
M  V30 37 C -3.541065 -1.068675 -2.627318 0
M  V30 38 C -4.461993 -1.888232 -2.008480 0
M  V30 39 C -4.871321 -1.493205 -0.664165 0
M  V30 40 O -4.379586 -0.452687 -0.150590 0
M  V30 41 O -5.752866 -2.082065 0.210107 0
M  V30 42 C -5.022184 -3.040281 -2.558714 0
M  V30 43 C -4.629592 -3.400772 -3.828828 0
M  V30 44 C -3.716127 -2.613845 -4.480773 0
M  V30 45 C -3.320906 -2.966396 -5.745059 0
M  V30 46 C -3.826049 -4.089250 -6.355341 0
M  V30 47 N -3.442966 -4.439911 -7.588483 0
M  V30 48 C -2.554691 -3.741589 -8.314891 0
M  V30 49 C -2.052830 -2.616890 -7.696293 0
M  V30 50 C -2.390446 -2.168411 -6.413134 0
M  V30 51 C 2.836921 -4.406774 5.101548 0
M  V30 52 O 2.307572 -3.465515 4.469534 0
M  V30 53 O 2.977775 -5.634464 4.465186 0
M  V30 54 H 4.233464 -6.679701 7.664518 0
M  V30 55 H 2.035926 -3.163303 8.135668 0
M  V30 56 H 1.109478 -4.181669 6.947565 0
M  V30 57 H 4.019845 -3.311507 6.417483 0
M  V30 58 H 1.419474 -1.893045 5.501089 0
M  V30 59 H 3.600731 0.172916 3.811434 0
M  V30 60 H 4.977170 1.061101 5.478763 0
M  V30 61 H 3.683464 1.213548 6.692010 0
M  V30 62 H 4.446605 4.609519 5.054693 0
M  V30 63 H 1.012157 0.904028 5.319063 0
M  V30 64 H -0.340980 1.923198 2.935030 0
M  V30 65 H -1.185155 0.484503 4.669143 0
M  V30 66 H -1.185120 -0.957733 3.649535 0
M  V30 67 H -4.634340 0.087088 3.487328 0
M  V30 68 H -0.272726 -0.545159 1.157621 0
M  V30 69 H 0.584909 0.283317 -1.309155 0
M  V30 70 H -1.165404 0.851707 -1.318218 0
M  V30 71 H -0.431462 3.206264 -1.521591 0
M  V30 72 H 1.261939 2.657292 -1.435467 0
M  V30 73 H 0.942427 1.347232 -3.593595 0
M  V30 74 H -0.744903 1.862103 -3.568709 0
M  V30 75 H -0.003500 4.313527 -3.588946 0
M  V30 76 H 1.656369 3.756063 -3.484976 0
M  V30 77 H 1.245843 4.498624 -5.727192 0
M  V30 78 H 1.702913 2.809150 -5.632762 0
M  V30 79 H 0.003422 3.478174 -7.426104 0
M  V30 80 H -1.077111 4.041105 -6.170088 0
M  V30 81 H -1.742349 2.031199 -7.288756 0
M  V30 82 H -1.763143 1.854969 -5.552399 0
M  V30 83 H 0.674309 0.667333 -5.906816 0
M  V30 84 H 0.274975 0.854202 -7.608868 0
M  V30 85 H -3.143007 -0.198263 -2.164589 0
M  V30 86 H -5.393070 -2.361746 1.131250 0
M  V30 87 H -5.744850 -3.589705 -1.940404 0
M  V30 88 H -5.099861 -4.295534 -4.189680 0
M  V30 89 H -4.540431 -4.775933 -5.949242 0
M  V30 90 H -2.228382 -4.000699 -9.307854 0
M  V30 91 H -1.335647 -2.035689 -8.257682 0
M  V30 92 H 3.401677 -5.640448 3.522636 0
M  V30 END ATOM
M  V30 BEGIN BOND
M  V30 1 2 1 2
M  V30 2 1 2 3
M  V30 3 1 2 4
M  V30 4 1 4 5
M  V30 5 1 5 6
M  V30 6 1 6 7
M  V30 7 2 7 8
M  V30 8 1 7 9
M  V30 9 1 9 10
M  V30 10 1 10 11
M  V30 11 2 11 12
M  V30 12 1 11 13
M  V30 13 1 9 14
M  V30 14 1 14 15
M  V30 15 2 15 16
M  V30 16 1 15 17
M  V30 17 1 17 18
M  V30 18 1 18 19
M  V30 19 2 19 20
M  V30 20 1 19 21
M  V30 21 1 17 22
M  V30 22 1 22 23
M  V30 23 2 23 24
M  V30 24 1 23 25
M  V30 25 1 25 26
M  V30 26 1 26 27
M  V30 27 1 27 28
M  V30 28 1 28 29
M  V30 29 1 29 30
M  V30 30 1 30 31
M  V30 31 1 31 32
M  V30 32 1 32 33
M  V30 33 1 33 34
M  V30 34 2 34 35
M  V30 35 1 35 36
M  V30 36 2 36 37
M  V30 37 1 37 38
M  V30 38 1 38 39
M  V30 39 2 39 40
M  V30 40 1 39 41
M  V30 41 2 38 42
M  V30 42 1 42 43
M  V30 43 2 43 44
M  V30 44 1 44 45
M  V30 45 2 45 46
M  V30 46 1 46 47
M  V30 47 2 47 48
M  V30 48 1 48 49
M  V30 49 2 49 50
M  V30 50 1 5 51
M  V30 51 2 51 52
M  V30 52 1 51 53
M  V30 53 1 50 34
M  V30 54 1 44 36
M  V30 55 1 50 45
M  V30 56 1 3 54
M  V30 57 1 4 55
M  V30 58 1 4 56
M  V30 59 1 5 57 CFG=1
M  V30 60 1 6 58
M  V30 61 1 9 59 CFG=3
M  V30 62 1 10 60
M  V30 63 1 10 61
M  V30 64 1 13 62
M  V30 65 1 14 63
M  V30 66 1 17 64 CFG=3
M  V30 67 1 18 65
M  V30 68 1 18 66
M  V30 69 1 21 67
M  V30 70 1 22 68
M  V30 71 1 25 69
M  V30 72 1 25 70
M  V30 73 1 26 71
M  V30 74 1 26 72
M  V30 75 1 27 73
M  V30 76 1 27 74
M  V30 77 1 28 75
M  V30 78 1 28 76
M  V30 79 1 29 77
M  V30 80 1 29 78
M  V30 81 1 30 79
M  V30 82 1 30 80
M  V30 83 1 31 81
M  V30 84 1 31 82
M  V30 85 1 32 83
M  V30 86 1 32 84
M  V30 87 1 37 85
M  V30 88 1 41 86
M  V30 89 1 42 87
M  V30 90 1 43 88
M  V30 91 1 46 89
M  V30 92 1 48 90
M  V30 93 1 49 91
M  V30 94 1 53 92
M  V30 END BOND
M  V30 END CTAB
M  END
>  <Dataset>  (856) 
ChEMBL_Kinases

>  <Ligand_Instance>  (856) 
nan

>  <PDB_ID>  (856) 
nan

>  <Standardized_SMILES>  (856) 
O=C(O)C[C@H](NC(=O)[C@H](CC(=O)O)NC(=O)[C@H](CC(=O)O)NC(=O)CCCCCCCCOc1nc2cc(C(=O)O)ccc2c2cnccc12)C(=O)O

>  <Name>  (856) 
nan

>  <Pocket>  (856) 
nan

>  <ATP_Site>  (856) 
nan

>  <Peripheral>  (856) 
nan

>  <Num_H_Atoms_ProtBoundConf>  (856) 
nan

>  <Num_Resolved_Atoms>  (856) 
nan

>  <Num_Not_Resolved_Atoms>  (856) 
nan

$$$$
CHEMBL4069101
     RDKit          3D

  0  0  0  0  0  0  0  0  0  0999 V3000
M  V30 BEGIN CTAB
M  V30 COUNTS 45 48 0 0 0
M  V30 BEGIN ATOM
M  V30 1 C -2.627727 1.759260 0.285132 0
M  V30 2 C -1.168003 1.589177 0.087941 0
M  V30 3 C -0.597167 1.816975 -1.133771 0
M  V30 4 N 0.718112 1.682147 -1.382985 0
M  V30 5 C 1.597632 1.305699 -0.436184 0
M  V30 6 C 3.022910 1.159504 -0.705795 0
M  V30 7 C 3.964281 0.777822 0.224544 0
M  V30 8 C 5.300765 0.657453 -0.093180 0
M  V30 9 Cl 6.450080 0.172207 1.117551 0
M  V30 10 C 5.744880 0.924014 -1.390461 0
M  V30 11 C 4.798843 1.308429 -2.328697 0
M  V30 12 C 3.459520 1.423109 -1.987185 0
M  V30 13 F 2.564005 1.803103 -2.937951 0
M  V30 14 C 1.032935 1.073284 0.799862 0
M  V30 15 C -0.307523 1.200945 1.091767 0
M  V30 16 N -0.814640 0.944974 2.385677 0
M  V30 17 C -1.778272 0.021203 2.913847 0
M  V30 18 C -2.954696 0.331439 3.584429 0
M  V30 19 C -3.748487 -0.712676 4.014481 0
M  V30 20 N -3.388499 -1.991521 3.788103 0
M  V30 21 C -2.247668 -2.311771 3.137462 0
M  V30 22 C -1.724920 -3.549219 2.819812 0
M  V30 23 N -0.569713 -3.263653 2.171878 0
M  V30 24 C 0.362088 -4.233795 1.627774 0
M  V30 25 C -0.018902 -4.542445 0.206423 0
M  V30 26 N -0.958858 -4.247854 -0.838768 0
M  V30 27 O 0.684579 -5.365288 -0.415322 0
M  V30 28 N -0.394196 -1.951043 2.096142 0
M  V30 29 C -1.415145 -1.295818 2.685010 0
M  V30 30 H -2.890614 2.116022 1.293831 0
M  V30 31 H -3.152478 0.829291 0.003226 0
M  V30 32 H -2.956849 2.532058 -0.461408 0
M  V30 33 H -1.199559 2.130644 -1.999395 0
M  V30 34 H 3.643384 0.570741 1.218150 0
M  V30 35 H 6.766613 0.847165 -1.692346 0
M  V30 36 H 5.077282 1.530836 -3.356941 0
M  V30 37 H 1.657220 0.766185 1.627074 0
M  V30 38 H -0.341768 1.605910 3.042921 0
M  V30 39 H -3.129772 1.392238 3.702375 0
M  V30 40 H -4.646913 -0.431260 4.527397 0
M  V30 41 H -2.119455 -4.523686 3.025406 0
M  V30 42 H 1.375293 -3.786781 1.598658 0
M  V30 43 H 0.315582 -5.163537 2.210265 0
M  V30 44 H -0.745603 -3.423692 -1.437373 0
M  V30 45 H -1.809743 -4.850800 -0.969232 0
M  V30 END ATOM
M  V30 BEGIN BOND
M  V30 1 1 1 2
M  V30 2 2 2 3
M  V30 3 1 3 4
M  V30 4 2 4 5
M  V30 5 1 5 6
M  V30 6 2 6 7
M  V30 7 1 7 8
M  V30 8 1 8 9
M  V30 9 2 8 10
M  V30 10 1 10 11
M  V30 11 2 11 12
M  V30 12 1 12 13
M  V30 13 1 5 14
M  V30 14 2 14 15
M  V30 15 1 15 16
M  V30 16 1 16 17
M  V30 17 2 17 18
M  V30 18 1 18 19
M  V30 19 2 19 20
M  V30 20 1 20 21
M  V30 21 2 21 22
M  V30 22 1 22 23
M  V30 23 1 23 24
M  V30 24 1 24 25
M  V30 25 1 25 26
M  V30 26 2 25 27
M  V30 27 1 23 28
M  V30 28 2 28 29
M  V30 29 1 15 2
M  V30 30 1 29 17
M  V30 31 1 12 6
M  V30 32 1 29 21
M  V30 33 1 1 30
M  V30 34 1 1 31
M  V30 35 1 1 32
M  V30 36 1 3 33
M  V30 37 1 7 34
M  V30 38 1 10 35
M  V30 39 1 11 36
M  V30 40 1 14 37
M  V30 41 1 16 38
M  V30 42 1 18 39
M  V30 43 1 19 40
M  V30 44 1 22 41
M  V30 45 1 24 42
M  V30 46 1 24 43
M  V30 47 1 26 44
M  V30 48 1 26 45
M  V30 END BOND
M  V30 END CTAB
M  END
>  <Dataset>  (857) 
ChEMBL_Kinases

>  <Ligand_Instance>  (857) 
nan

>  <PDB_ID>  (857) 
nan

>  <Standardized_SMILES>  (857) 
Cc1cnc(-c2cc(Cl)ccc2F)cc1Nc1ccnc2cn(CC(N)=O)nc12

>  <Name>  (857) 
nan

>  <Pocket>  (857) 
nan

>  <ATP_Site>  (857) 
nan

>  <Peripheral>  (857) 
nan

>  <Num_H_Atoms_ProtBoundConf>  (857) 
nan

>  <Num_Resolved_Atoms>  (857) 
nan

>  <Num_Not_Resolved_Atoms>  (857) 
nan

$$$$
CHEMBL406910
     RDKit          3D

  0  0  0  0  0  0  0  0  0  0999 V3000
M  V30 BEGIN CTAB
M  V30 COUNTS 66 70 0 0 0
M  V30 BEGIN ATOM
M  V30 1 C 4.013014 1.939711 1.139060 0
M  V30 2 C 3.802286 1.862030 -0.346861 0
M  V30 3 N 2.874434 0.798744 -0.676206 0
M  V30 4 C 3.420909 -0.494215 -0.413511 0
M  V30 5 C 3.400808 -1.292589 -1.685668 0 CFG=2
M  V30 6 O 4.618981 -1.859235 -1.970839 0
M  V30 7 C 2.995326 -0.317059 -2.758809 0
M  V30 8 C 2.349881 0.844995 -1.987316 0 CFG=1
M  V30 9 C 0.889860 0.703831 -2.172017 0
M  V30 10 N 0.042973 1.671857 -1.542175 0
M  V30 11 C -1.289715 1.211210 -1.958028 0
M  V30 12 C -2.418648 1.881364 -1.273025 0
M  V30 13 C -2.301485 1.994028 0.202334 0
M  V30 14 C -2.236474 0.676142 0.889314 0
M  V30 15 C -2.794100 -0.434935 0.289325 0
M  V30 16 C -2.607849 -1.548981 1.105043 0
M  V30 17 C -3.052608 -2.932569 0.832223 0
M  V30 18 C -2.601060 -3.604924 -0.297367 0
M  V30 19 C -3.046100 -4.897809 -0.509990 0
M  V30 20 N -3.903270 -5.535963 0.337039 0
M  V30 21 C -4.327128 -4.868101 1.423014 0
M  V30 22 C -3.928950 -3.572578 1.707022 0
M  V30 23 C -1.918082 -1.059532 2.213728 0
M  V30 24 C -1.492628 -1.864542 3.355243 0
M  V30 25 C -1.821591 -1.731863 4.686266 0
M  V30 26 C -1.295619 -2.615401 5.597583 0
M  V30 27 C -0.439967 -3.635964 5.192229 0
M  V30 28 F 0.079747 -4.511309 6.102924 0
M  V30 29 C -0.103097 -3.780311 3.865316 0
M  V30 30 C -0.631895 -2.892794 2.953462 0
M  V30 31 N -1.711935 0.269423 2.055740 0
M  V30 32 C -0.911667 2.616292 0.435094 0
M  V30 33 C 0.051572 1.577361 -0.099973 0
M  V30 34 H 3.084027 1.612359 1.654616 0
M  V30 35 H 4.178367 3.028464 1.373270 0
M  V30 36 H 4.877546 1.377244 1.515780 0
M  V30 37 H 4.754046 1.715696 -0.911612 0
M  V30 38 H 3.349366 2.808346 -0.710365 0
M  V30 39 H 2.714719 -0.997195 0.298542 0
M  V30 40 H 4.413383 -0.529162 0.027099 0
M  V30 41 H 2.653767 -2.124986 -1.654715 0
M  V30 42 H 4.640325 -2.813663 -1.762973 0
M  V30 43 H 2.281747 -0.786521 -3.466223 0
M  V30 44 H 3.857254 -0.003263 -3.346253 0
M  V30 45 H 2.730815 1.754871 -2.494961 0
M  V30 46 H 0.682317 0.762070 -3.262981 0
M  V30 47 H 0.505219 -0.292857 -1.868263 0
M  V30 48 H -1.322664 0.117166 -1.785004 0
M  V30 49 H -1.363022 1.383908 -3.049785 0
M  V30 50 H -2.582463 2.889535 -1.690449 0
M  V30 51 H -3.330688 1.296561 -1.511059 0
M  V30 52 H -3.083146 2.665129 0.601942 0
M  V30 53 H -3.315236 -0.549905 -0.649957 0
M  V30 54 H -1.922822 -3.120407 -0.980153 0
M  V30 55 H -2.715173 -5.459736 -1.386872 0
M  V30 56 H -5.006213 -5.370434 2.095082 0
M  V30 57 H -4.292855 -3.054900 2.602494 0
M  V30 58 H -2.481025 -0.916215 4.872660 0
M  V30 59 H -1.571712 -2.480983 6.618026 0
M  V30 60 H 0.566075 -4.589851 3.603127 0
M  V30 61 H -0.303121 -3.091091 1.927957 0
M  V30 62 H -1.228651 0.929611 2.700253 0
M  V30 63 H -0.896037 3.530036 -0.188582 0
M  V30 64 H -0.763254 2.811186 1.521556 0
M  V30 65 H -0.262213 0.549267 0.148120 0
M  V30 66 H 1.002180 1.779105 0.386745 0
M  V30 END ATOM
M  V30 BEGIN BOND
M  V30 1 1 1 2
M  V30 2 1 2 3
M  V30 3 1 3 4
M  V30 4 1 4 5
M  V30 5 1 5 6
M  V30 6 1 5 7
M  V30 7 1 7 8
M  V30 8 1 8 9
M  V30 9 1 9 10
M  V30 10 1 10 11
M  V30 11 1 11 12
M  V30 12 1 12 13
M  V30 13 1 13 14
M  V30 14 2 14 15
M  V30 15 1 15 16
M  V30 16 1 16 17
M  V30 17 2 17 18
M  V30 18 1 18 19
M  V30 19 2 19 20
M  V30 20 1 20 21
M  V30 21 2 21 22
M  V30 22 2 16 23
M  V30 23 1 23 24
M  V30 24 2 24 25
M  V30 25 1 25 26
M  V30 26 2 26 27
M  V30 27 1 27 28
M  V30 28 1 27 29
M  V30 29 2 29 30
M  V30 30 1 23 31
M  V30 31 1 13 32
M  V30 32 1 32 33
M  V30 33 1 8 3
M  V30 34 1 33 10
M  V30 35 1 31 14
M  V30 36 1 22 17
M  V30 37 1 30 24
M  V30 38 1 1 34
M  V30 39 1 1 35
M  V30 40 1 1 36
M  V30 41 1 2 37
M  V30 42 1 2 38
M  V30 43 1 4 39
M  V30 44 1 4 40
M  V30 45 1 5 41 CFG=1
M  V30 46 1 6 42
M  V30 47 1 7 43
M  V30 48 1 7 44
M  V30 49 1 8 45 CFG=3
M  V30 50 1 9 46
M  V30 51 1 9 47
M  V30 52 1 11 48
M  V30 53 1 11 49
M  V30 54 1 12 50
M  V30 55 1 12 51
M  V30 56 1 13 52
M  V30 57 1 15 53
M  V30 58 1 18 54
M  V30 59 1 19 55
M  V30 60 1 21 56
M  V30 61 1 22 57
M  V30 62 1 25 58
M  V30 63 1 26 59
M  V30 64 1 29 60
M  V30 65 1 30 61
M  V30 66 1 31 62
M  V30 67 1 32 63
M  V30 68 1 32 64
M  V30 69 1 33 65
M  V30 70 1 33 66
M  V30 END BOND
M  V30 END CTAB
M  END
>  <Dataset>  (858) 
ChEMBL_Kinases

>  <Ligand_Instance>  (858) 
nan

>  <PDB_ID>  (858) 
nan

>  <Standardized_SMILES>  (858) 
CCN1C[C@H](O)C[C@H]1CN1CCC(c2cc(-c3ccncc3)c(-c3ccc(F)cc3)[nH]2)CC1

>  <Name>  (858) 
nan

>  <Pocket>  (858) 
nan

>  <ATP_Site>  (858) 
nan

>  <Peripheral>  (858) 
nan

>  <Num_H_Atoms_ProtBoundConf>  (858) 
nan

>  <Num_Resolved_Atoms>  (858) 
nan

>  <Num_Not_Resolved_Atoms>  (858) 
nan

$$$$
CHEMBL4069095
     RDKit          3D

  0  0  0  0  0  0  0  0  0  0999 V3000
M  V30 BEGIN CTAB
M  V30 COUNTS 47 50 0 0 0
M  V30 BEGIN ATOM
M  V30 1 O -1.540018 -6.110527 0.816208 0
M  V30 2 C -0.726680 -5.158081 0.888709 0
M  V30 3 N 0.638840 -5.323918 1.233647 0
M  V30 4 C 1.199266 -4.016919 1.204057 0
M  V30 5 C 2.487277 -3.595273 1.453932 0
M  V30 6 C 2.862343 -2.247036 1.370967 0
M  V30 7 C 1.921427 -1.300750 1.028878 0
M  V30 8 C 2.361060 0.085946 0.943347 0
M  V30 9 O 3.604816 0.265105 1.188436 0
M  V30 10 N 1.640673 1.254612 0.636211 0
M  V30 11 C 2.307163 2.542503 0.609455 0 CFG=1
M  V30 12 C 2.380872 3.047501 -0.827259 0
M  V30 13 O 3.109986 2.097730 -1.570569 0
M  V30 14 C 1.630683 3.573024 1.398503 0
M  V30 15 C 0.266069 3.741137 1.297051 0
M  V30 16 C -0.392392 4.708558 2.023211 0
M  V30 17 C 0.292009 5.548143 2.881838 0
M  V30 18 C 1.662982 5.410466 3.012002 0
M  V30 19 C 2.300688 4.435181 2.275011 0
M  V30 20 C 0.623716 -1.711426 0.775803 0
M  V30 21 C 0.282195 -3.044476 0.864846 0
M  V30 22 C -0.975566 -3.744465 0.652851 0
M  V30 23 C -2.156077 -3.281041 0.296161 0
M  V30 24 C -3.397660 -3.992623 0.062523 0
M  V30 25 C -4.582872 -3.554889 0.644089 0
M  V30 26 C -5.620778 -4.374187 0.247703 0
M  V30 27 C -5.067313 -5.329347 -0.589446 0
M  V30 28 N -3.761071 -5.060824 -0.665531 0
M  V30 29 H 1.110718 -6.223550 1.457590 0
M  V30 30 H 3.232080 -4.352711 1.725151 0
M  V30 31 H 3.903957 -2.061573 1.593351 0
M  V30 32 H 0.634183 1.078848 0.443288 0
M  V30 33 H 3.362763 2.399958 0.930935 0
M  V30 34 H 1.380264 3.167681 -1.276279 0
M  V30 35 H 2.918982 4.017405 -0.781138 0
M  V30 36 H 3.495341 2.589779 -2.353156 0
M  V30 37 H -0.369940 3.135201 0.651410 0
M  V30 38 H -1.452892 4.839381 1.944333 0
M  V30 39 H -0.138549 6.320494 3.476955 0
M  V30 40 H 2.302063 6.023343 3.665075 0
M  V30 41 H 3.383746 4.321542 2.373449 0
M  V30 42 H -0.116922 -0.986870 0.509118 0
M  V30 43 H -2.180452 -2.195586 0.160341 0
M  V30 44 H -4.836462 -2.754133 1.301677 0
M  V30 45 H -6.679155 -4.370844 0.475689 0
M  V30 46 H -5.590533 -6.138281 -1.087696 0
M  V30 47 H -3.120742 -5.618477 -1.241130 0
M  V30 END ATOM
M  V30 BEGIN BOND
M  V30 1 2 1 2
M  V30 2 1 2 3
M  V30 3 1 3 4
M  V30 4 2 4 5
M  V30 5 1 5 6
M  V30 6 2 6 7
M  V30 7 1 7 8
M  V30 8 2 8 9
M  V30 9 1 8 10
M  V30 10 1 10 11
M  V30 11 1 11 12
M  V30 12 1 12 13
M  V30 13 1 11 14
M  V30 14 2 14 15
M  V30 15 1 15 16
M  V30 16 2 16 17
M  V30 17 1 17 18
M  V30 18 2 18 19
M  V30 19 1 7 20
M  V30 20 2 20 21
M  V30 21 1 21 22
M  V30 22 2 22 23
M  V30 23 1 23 24
M  V30 24 2 24 25
M  V30 25 1 25 26
M  V30 26 2 26 27
M  V30 27 1 27 28
M  V30 28 1 22 2
M  V30 29 1 28 24
M  V30 30 1 21 4
M  V30 31 1 19 14
M  V30 32 1 3 29
M  V30 33 1 5 30
M  V30 34 1 6 31
M  V30 35 1 10 32
M  V30 36 1 11 33 CFG=1
M  V30 37 1 12 34
M  V30 38 1 12 35
M  V30 39 1 13 36
M  V30 40 1 15 37
M  V30 41 1 16 38
M  V30 42 1 17 39
M  V30 43 1 18 40
M  V30 44 1 19 41
M  V30 45 1 20 42
M  V30 46 1 23 43
M  V30 47 1 25 44
M  V30 48 1 26 45
M  V30 49 1 27 46
M  V30 50 1 28 47
M  V30 END BOND
M  V30 END CTAB
M  END
>  <Dataset>  (859) 
ChEMBL_Kinases

>  <Ligand_Instance>  (859) 
nan

>  <PDB_ID>  (859) 
nan

>  <Standardized_SMILES>  (859) 
O=C1Nc2ccc(C(=O)N[C@@H](CO)c3ccccc3)cc2/C1=C/c1ccc[nH]1

>  <Name>  (859) 
nan

>  <Pocket>  (859) 
nan

>  <ATP_Site>  (859) 
nan

>  <Peripheral>  (859) 
nan

>  <Num_H_Atoms_ProtBoundConf>  (859) 
nan

>  <Num_Resolved_Atoms>  (859) 
nan

>  <Num_Not_Resolved_Atoms>  (859) 
nan

$$$$
CHEMBL4069088
     RDKit          3D

  0  0  0  0  0  0  0  0  0  0999 V3000
M  V30 BEGIN CTAB
M  V30 COUNTS 27 29 0 0 0
M  V30 BEGIN ATOM
M  V30 1 N -2.134333 -4.116864 2.665009 0
M  V30 2 C -1.083009 -3.566568 1.864543 0
M  V30 3 C -0.869525 -2.199453 1.937643 0
M  V30 4 C 0.143699 -1.626874 1.174094 0
M  V30 5 C 0.394194 -0.191018 1.228284 0
M  V30 6 C 0.462974 0.613683 2.350870 0
M  V30 7 N 0.713933 1.906858 2.012845 0
M  V30 8 C 0.811950 1.956583 0.651946 0
M  V30 9 C 1.058750 3.039449 -0.190248 0
M  V30 10 C 1.102700 2.781678 -1.556341 0
M  V30 11 Cl 1.407379 4.078088 -2.705394 0
M  V30 12 C 0.913973 1.512016 -2.104126 0
M  V30 13 C 0.674742 0.498730 -1.189624 0
M  V30 14 C 0.616363 0.675304 0.177417 0
M  V30 15 C 0.901586 -2.451570 0.367768 0
M  V30 16 C 0.674089 -3.799410 0.310335 0
M  V30 17 N -0.307922 -4.338612 1.053312 0
M  V30 18 H -1.786097 -4.613846 3.526752 0
M  V30 19 H -3.137283 -4.001355 2.366084 0
M  V30 20 H -1.490392 -1.579938 2.587645 0
M  V30 21 H 0.331322 0.250514 3.378995 0
M  V30 22 H 0.805594 2.684210 2.712698 0
M  V30 23 H 1.210307 4.038786 0.195000 0
M  V30 24 H 0.956272 1.357720 -3.165826 0
M  V30 25 H 0.528524 -0.484250 -1.612100 0
M  V30 26 H 1.703935 -2.073444 -0.250991 0
M  V30 27 H 1.241934 -4.494781 -0.308354 0
M  V30 END ATOM
M  V30 BEGIN BOND
M  V30 1 1 1 2
M  V30 2 2 2 3
M  V30 3 1 3 4
M  V30 4 1 4 5
M  V30 5 2 5 6
M  V30 6 1 6 7
M  V30 7 1 7 8
M  V30 8 2 8 9
M  V30 9 1 9 10
M  V30 10 1 10 11
M  V30 11 2 10 12
M  V30 12 1 12 13
M  V30 13 2 13 14
M  V30 14 2 4 15
M  V30 15 1 15 16
M  V30 16 2 16 17
M  V30 17 1 17 2
M  V30 18 1 14 5
M  V30 19 1 14 8
M  V30 20 1 1 18
M  V30 21 1 1 19
M  V30 22 1 3 20
M  V30 23 1 6 21
M  V30 24 1 7 22
M  V30 25 1 9 23
M  V30 26 1 12 24
M  V30 27 1 13 25
M  V30 28 1 15 26
M  V30 29 1 16 27
M  V30 END BOND
M  V30 END CTAB
M  END
>  <Dataset>  (860) 
ChEMBL_Kinases

>  <Ligand_Instance>  (860) 
nan

>  <PDB_ID>  (860) 
nan

>  <Standardized_SMILES>  (860) 
Nc1cc(-c2c[nH]c3cc(Cl)ccc23)ccn1

>  <Name>  (860) 
nan

>  <Pocket>  (860) 
nan

>  <ATP_Site>  (860) 
nan

>  <Peripheral>  (860) 
nan

>  <Num_H_Atoms_ProtBoundConf>  (860) 
nan

>  <Num_Resolved_Atoms>  (860) 
nan

>  <Num_Not_Resolved_Atoms>  (860) 
nan

$$$$
CHEMBL4069325
     RDKit          3D

  0  0  0  0  0  0  0  0  0  0999 V3000
M  V30 BEGIN CTAB
M  V30 COUNTS 24 26 0 0 0
M  V30 BEGIN ATOM
M  V30 1 O 0.243450 -4.485507 0.650651 0
M  V30 2 C 1.044516 -3.539478 0.983397 0
M  V30 3 N 2.151490 -3.839209 1.759375 0
M  V30 4 C 2.970574 -2.740218 2.072054 0
M  V30 5 S 4.256833 -2.382237 3.016641 0
M  V30 6 S 2.361226 -1.357088 1.108450 0
M  V30 7 C 0.857437 -2.170458 0.592639 0
M  V30 8 C -0.179223 -1.697493 -0.032490 0
M  V30 9 C -0.273893 -0.287643 -0.381464 0
M  V30 10 C -0.550683 0.266780 -1.638328 0
M  V30 11 O -0.577951 1.589608 -1.563423 0
M  V30 12 C -0.339726 1.979807 -0.340265 0
M  V30 13 C -0.273843 3.267520 0.197754 0
M  V30 14 C -0.004774 3.336651 1.545623 0
M  V30 15 C 0.196932 2.238604 2.364648 0
M  V30 16 C 0.113268 1.011152 1.743816 0
M  V30 17 C -0.149436 0.837183 0.406380 0
M  V30 18 H 2.479204 -4.749688 2.154522 0
M  V30 19 H -1.035256 -2.315814 -0.329456 0
M  V30 20 H -0.709485 -0.375607 -2.511627 0
M  V30 21 H -0.425103 4.150923 -0.404878 0
M  V30 22 H 0.044328 4.331928 1.952994 0
M  V30 23 H 0.403503 2.363952 3.417064 0
M  V30 24 H 0.248750 0.158077 2.389935 0
M  V30 END ATOM
M  V30 BEGIN BOND
M  V30 1 2 1 2
M  V30 2 1 2 3
M  V30 3 1 3 4
M  V30 4 2 4 5
M  V30 5 1 4 6
M  V30 6 1 6 7
M  V30 7 2 7 8
M  V30 8 1 8 9
M  V30 9 2 9 10
M  V30 10 1 10 11
M  V30 11 1 11 12
M  V30 12 2 12 13
M  V30 13 1 13 14
M  V30 14 2 14 15
M  V30 15 1 15 16
M  V30 16 2 16 17
M  V30 17 1 7 2
M  V30 18 1 17 9
M  V30 19 1 17 12
M  V30 20 1 3 18
M  V30 21 1 8 19
M  V30 22 1 10 20
M  V30 23 1 13 21
M  V30 24 1 14 22
M  V30 25 1 15 23
M  V30 26 1 16 24
M  V30 END BOND
M  V30 END CTAB
M  END
>  <Dataset>  (861) 
ChEMBL_Kinases

>  <Ligand_Instance>  (861) 
nan

>  <PDB_ID>  (861) 
nan

>  <Standardized_SMILES>  (861) 
O=C1NC(=S)S/C1=C\c1coc2ccccc12

>  <Name>  (861) 
nan

>  <Pocket>  (861) 
nan

>  <ATP_Site>  (861) 
nan

>  <Peripheral>  (861) 
nan

>  <Num_H_Atoms_ProtBoundConf>  (861) 
nan

>  <Num_Resolved_Atoms>  (861) 
nan

>  <Num_Not_Resolved_Atoms>  (861) 
nan

$$$$
CHEMBL4070454
     RDKit          3D

  0  0  0  0  0  0  0  0  0  0999 V3000
M  V30 BEGIN CTAB
M  V30 COUNTS 53 58 0 0 0
M  V30 BEGIN ATOM
M  V30 1 O 0.879223 -5.016181 6.464152 0
M  V30 2 C 1.007213 -4.036980 5.459843 0
M  V30 3 C -0.128403 -3.297267 5.181859 0
M  V30 4 C 0.018272 -2.329766 4.181359 0
M  V30 5 C 1.233445 -2.166350 3.547836 0
M  V30 6 C 1.349684 -1.147031 2.508271 0
M  V30 7 N 2.444480 -0.844830 1.780116 0
M  V30 8 C 2.172188 0.151336 0.914326 0
M  V30 9 C 2.983496 0.844151 -0.082287 0
M  V30 10 C 2.626032 0.765006 -1.397851 0
M  V30 11 C 3.464702 1.461133 -2.273211 0
M  V30 12 C 4.578155 2.182016 -1.857097 0
M  V30 13 C 4.866928 2.207197 -0.493370 0
M  V30 14 C 4.075844 1.543019 0.390480 0
M  V30 15 C 0.829006 0.503648 1.101206 0
M  V30 16 C -0.046536 1.510117 0.460153 0
M  V30 17 C 0.108325 2.885943 0.450773 0
M  V30 18 C -0.821406 3.646341 -0.205068 0
M  V30 19 N -1.870747 3.088813 -0.833524 0
M  V30 20 C -2.087626 1.746590 -0.866557 0
M  V30 21 N -3.030383 0.952897 -1.406977 0
M  V30 22 C -2.768156 -0.334245 -1.136414 0
M  V30 23 C -3.543573 -1.502327 -1.540549 0
M  V30 24 C -4.687274 -1.339428 -2.294651 0
M  V30 25 C -5.392343 -2.475455 -2.654444 0
M  V30 26 C -4.961673 -3.732346 -2.268864 0
M  V30 27 C -3.806015 -3.909791 -1.505771 0
M  V30 28 C -3.125365 -2.761101 -1.162899 0
M  V30 29 C -1.606610 -0.341060 -0.392089 0
M  V30 30 C -1.152303 0.964592 -0.205373 0
M  V30 31 N 0.396149 -0.308779 2.066076 0
M  V30 32 C 2.328278 -2.932415 3.867344 0
M  V30 33 C 2.246158 -3.917846 4.860188 0
M  V30 34 H 0.022450 -5.567294 6.544004 0
M  V30 35 H -1.046354 -3.481618 5.719769 0
M  V30 36 H -0.864803 -1.741595 3.952918 0
M  V30 37 H 1.776011 0.221960 -1.773126 0
M  V30 38 H 3.216890 1.426070 -3.338674 0
M  V30 39 H 5.193092 2.704124 -2.586114 0
M  V30 40 H 5.757873 2.795984 -0.253333 0
M  V30 41 H 4.344356 1.594471 1.438233 0
M  V30 42 H 0.986798 3.220356 0.987394 0
M  V30 43 H -0.671375 4.706047 -0.191906 0
M  V30 44 H -3.856402 1.311015 -1.964634 0
M  V30 45 H -5.058217 -0.376539 -2.616497 0
M  V30 46 H -6.304134 -2.474547 -3.244776 0
M  V30 47 H -5.473272 -4.658397 -2.520941 0
M  V30 48 H -3.459664 -4.885696 -1.198851 0
M  V30 49 H -2.216150 -2.896707 -0.562450 0
M  V30 50 H -1.134759 -1.237490 -0.018545 0
M  V30 51 H -0.564751 -0.340898 2.477393 0
M  V30 52 H 3.298591 -2.835942 3.395545 0
M  V30 53 H 3.060720 -4.556888 5.165206 0
M  V30 END ATOM
M  V30 BEGIN BOND
M  V30 1 1 1 2
M  V30 2 2 2 3
M  V30 3 1 3 4
M  V30 4 2 4 5
M  V30 5 1 5 6
M  V30 6 2 6 7
M  V30 7 1 7 8
M  V30 8 1 8 9
M  V30 9 2 9 10
M  V30 10 1 10 11
M  V30 11 2 11 12
M  V30 12 1 12 13
M  V30 13 2 13 14
M  V30 14 2 8 15
M  V30 15 1 15 16
M  V30 16 2 16 17
M  V30 17 1 17 18
M  V30 18 2 18 19
M  V30 19 1 19 20
M  V30 20 1 20 21
M  V30 21 1 21 22
M  V30 22 1 22 23
M  V30 23 2 23 24
M  V30 24 1 24 25
M  V30 25 2 25 26
M  V30 26 1 26 27
M  V30 27 2 27 28
M  V30 28 2 22 29
M  V30 29 1 29 30
M  V30 30 1 15 31
M  V30 31 1 5 32
M  V30 32 2 32 33
M  V30 33 1 33 2
M  V30 34 1 31 6
M  V30 35 1 14 9
M  V30 36 1 30 16
M  V30 37 2 30 20
M  V30 38 1 28 23
M  V30 39 1 1 34
M  V30 40 1 3 35
M  V30 41 1 4 36
M  V30 42 1 10 37
M  V30 43 1 11 38
M  V30 44 1 12 39
M  V30 45 1 13 40
M  V30 46 1 14 41
M  V30 47 1 17 42
M  V30 48 1 18 43
M  V30 49 1 21 44
M  V30 50 1 24 45
M  V30 51 1 25 46
M  V30 52 1 26 47
M  V30 53 1 27 48
M  V30 54 1 28 49
M  V30 55 1 29 50
M  V30 56 1 31 51
M  V30 57 1 32 52
M  V30 58 1 33 53
M  V30 END BOND
M  V30 END CTAB
M  END
>  <Dataset>  (862) 
ChEMBL_Kinases

>  <Ligand_Instance>  (862) 
nan

>  <PDB_ID>  (862) 
nan

>  <Standardized_SMILES>  (862) 
Oc1ccc(-c2nc(-c3ccccc3)c(-c3ccnc4[nH]c(-c5ccccc5)cc34)[nH]2)cc1

>  <Name>  (862) 
nan

>  <Pocket>  (862) 
nan

>  <ATP_Site>  (862) 
nan

>  <Peripheral>  (862) 
nan

>  <Num_H_Atoms_ProtBoundConf>  (862) 
nan

>  <Num_Resolved_Atoms>  (862) 
nan

>  <Num_Not_Resolved_Atoms>  (862) 
nan

$$$$
CHEMBL4860406
     RDKit          3D

  0  0  0  0  0  0  0  0  0  0999 V3000
M  V30 BEGIN CTAB
M  V30 COUNTS 53 56 0 0 0
M  V30 BEGIN ATOM
M  V30 1 C -3.278351 0.345317 3.875681 0
M  V30 2 C -1.779314 0.317155 4.112059 0
M  V30 3 C -1.140069 -0.921482 3.597873 0
M  V30 4 C -0.603815 -1.188437 2.355928 0
M  V30 5 C -0.101045 -2.474477 2.282002 0
M  V30 6 N 0.518078 -3.053614 1.137177 0
M  V30 7 C 0.612303 -2.206611 -0.003249 0
M  V30 8 N 1.182954 -0.988785 0.005998 0
M  V30 9 C 1.252157 -0.205370 -1.083186 0
M  V30 10 N 1.892730 1.046293 -0.920310 0
M  V30 11 C 1.625361 2.362402 -0.420630 0 CFG=1
M  V30 12 C 0.419237 3.008038 -1.053454 0
M  V30 13 C 1.587046 2.423007 1.051069 0
M  V30 14 C 0.727087 3.016206 1.942438 0
M  V30 15 C 0.959645 2.898169 3.295861 0
M  V30 16 C 2.016068 2.212241 3.815657 0
M  V30 17 F 2.197686 2.128683 5.145906 0
M  V30 18 C 2.896120 1.606241 2.941116 0
M  V30 19 C 2.678283 1.714426 1.574111 0
M  V30 20 N 0.727912 -0.648175 -2.250549 0
M  V30 21 C 0.137264 -1.871570 -2.326392 0
M  V30 22 C -0.368216 -2.262931 -3.547103 0
M  V30 23 C -0.962296 -3.502763 -3.642611 0
M  V30 24 C -1.056346 -4.339550 -2.555968 0
M  V30 25 O -1.597273 -5.600008 -2.418610 0
M  V30 26 C -2.183052 -6.238417 -3.531687 0
M  V30 27 C -0.530775 -3.904247 -1.333847 0
M  V30 28 C 0.077870 -2.659212 -1.194545 0
M  V30 29 N -0.345394 -2.985259 3.513931 0
M  V30 30 N -0.948552 -2.082922 4.276969 0
M  V30 31 H -3.597703 1.397588 3.914893 0
M  V30 32 H -3.759499 -0.232581 4.682261 0
M  V30 33 H -3.487281 -0.107180 2.882131 0
M  V30 34 H -1.375117 1.228552 3.627858 0
M  V30 35 H -1.585653 0.451260 5.202723 0
M  V30 36 H -0.628836 -0.398414 1.592025 0
M  V30 37 H 0.829354 -4.048282 1.282779 0
M  V30 38 H 2.826464 0.749025 -1.335903 0
M  V30 39 H 2.519259 2.985402 -0.726281 0
M  V30 40 H 0.383776 2.657665 -2.119001 0
M  V30 41 H 0.579005 4.100466 -1.108322 0
M  V30 42 H -0.525200 2.740567 -0.525515 0
M  V30 43 H -0.070862 3.528591 1.415887 0
M  V30 44 H 0.230819 3.396626 3.916793 0
M  V30 45 H 3.717976 1.073771 3.395816 0
M  V30 46 H 3.455550 1.184684 1.020731 0
M  V30 47 H -0.342142 -1.681746 -4.452540 0
M  V30 48 H -1.401338 -3.943621 -4.526635 0
M  V30 49 H -1.409098 -6.806293 -4.103992 0
M  V30 50 H -2.633350 -5.543259 -4.267913 0
M  V30 51 H -2.990414 -6.953699 -3.219920 0
M  V30 52 H -0.536042 -4.460494 -0.395237 0
M  V30 53 H -1.226903 -2.276959 5.273330 0
M  V30 END ATOM
M  V30 BEGIN BOND
M  V30 1 1 1 2
M  V30 2 1 2 3
M  V30 3 2 3 4
M  V30 4 1 4 5
M  V30 5 1 5 6
M  V30 6 1 6 7
M  V30 7 2 7 8
M  V30 8 1 8 9
M  V30 9 1 9 10
M  V30 10 1 10 11
M  V30 11 1 11 12
M  V30 12 1 11 13
M  V30 13 2 13 14
M  V30 14 1 14 15
M  V30 15 2 15 16
M  V30 16 1 16 17
M  V30 17 1 16 18
M  V30 18 2 18 19
M  V30 19 2 9 20
M  V30 20 1 20 21
M  V30 21 2 21 22
M  V30 22 1 22 23
M  V30 23 2 23 24
M  V30 24 1 24 25
M  V30 25 1 25 26
M  V30 26 1 24 27
M  V30 27 2 27 28
M  V30 28 2 5 29
M  V30 29 1 29 30
M  V30 30 1 30 3
M  V30 31 1 28 7
M  V30 32 1 19 13
M  V30 33 1 28 21
M  V30 34 1 1 31
M  V30 35 1 1 32
M  V30 36 1 1 33
M  V30 37 1 2 34
M  V30 38 1 2 35
M  V30 39 1 4 36
M  V30 40 1 6 37
M  V30 41 1 10 38
M  V30 42 1 11 39 CFG=3
M  V30 43 1 12 40
M  V30 44 1 12 41
M  V30 45 1 12 42
M  V30 46 1 14 43
M  V30 47 1 15 44
M  V30 48 1 18 45
M  V30 49 1 19 46
M  V30 50 1 22 47
M  V30 51 1 23 48
M  V30 52 1 26 49
M  V30 53 1 26 50
M  V30 54 1 26 51
M  V30 55 1 27 52
M  V30 56 1 30 53
M  V30 END BOND
M  V30 END CTAB
M  END
>  <Dataset>  (863) 
ChEMBL_Kinases

>  <Ligand_Instance>  (863) 
nan

>  <PDB_ID>  (863) 
nan

>  <Standardized_SMILES>  (863) 
CCc1cc(Nc2nc(N[C@@H](C)c3ccc(F)cc3)nc3ccc(OC)cc23)n[nH]1

>  <Name>  (863) 
nan

>  <Pocket>  (863) 
nan

>  <ATP_Site>  (863) 
nan

>  <Peripheral>  (863) 
nan

>  <Num_H_Atoms_ProtBoundConf>  (863) 
nan

>  <Num_Resolved_Atoms>  (863) 
nan

>  <Num_Not_Resolved_Atoms>  (863) 
nan

$$$$
CHEMBL4070436
     RDKit          3D

  0  0  0  0  0  0  0  0  0  0999 V3000
M  V30 BEGIN CTAB
M  V30 COUNTS 22 24 0 0 0
M  V30 BEGIN ATOM
M  V30 1 O -0.204416 -3.826111 1.744804 0
M  V30 2 C 0.567529 -2.862266 1.987629 0
M  V30 3 N 1.714174 -2.927307 2.827565 0
M  V30 4 C 2.242962 -1.596335 2.779137 0
M  V30 5 S 3.588384 -1.068458 3.571235 0
M  V30 6 N 1.413870 -0.806000 1.933811 0
M  V30 7 C 0.399571 -1.525167 1.439516 0
M  V30 8 C -0.561143 -0.998397 0.584558 0
M  V30 9 C -0.471213 0.338405 0.220764 0
M  V30 10 C -1.404192 0.928514 -0.634670 0
M  V30 11 C -1.270897 2.256211 -0.964580 0
M  V30 12 C -0.228024 3.036954 -0.469590 0
M  V30 13 Cl -0.049147 4.727977 -0.883279 0
M  V30 14 C 0.646965 2.381865 0.365225 0
M  V30 15 C 0.580503 1.058784 0.741399 0
M  V30 16 C 1.510121 0.489113 1.587879 0
M  V30 17 O 2.436219 1.263269 2.001558 0
M  V30 18 H 2.090151 -3.755233 3.361242 0
M  V30 19 H -1.367088 -1.613828 0.205881 0
M  V30 20 H -2.222601 0.339166 -1.030591 0
M  V30 21 H -1.992453 2.683901 -1.616973 0
M  V30 22 H 1.467252 2.967359 0.763736 0
M  V30 END ATOM
M  V30 BEGIN BOND
M  V30 1 2 1 2
M  V30 2 1 2 3
M  V30 3 1 3 4
M  V30 4 2 4 5
M  V30 5 1 4 6
M  V30 6 1 6 7
M  V30 7 2 7 8
M  V30 8 1 8 9
M  V30 9 2 9 10
M  V30 10 1 10 11
M  V30 11 2 11 12
M  V30 12 1 12 13
M  V30 13 1 12 14
M  V30 14 2 14 15
M  V30 15 1 15 16
M  V30 16 2 16 17
M  V30 17 1 7 2
M  V30 18 1 15 9
M  V30 19 1 16 6
M  V30 20 1 3 18
M  V30 21 1 8 19
M  V30 22 1 10 20
M  V30 23 1 11 21
M  V30 24 1 14 22
M  V30 END BOND
M  V30 END CTAB
M  END
>  <Dataset>  (864) 
ChEMBL_Kinases

>  <Ligand_Instance>  (864) 
nan

>  <PDB_ID>  (864) 
nan

>  <Standardized_SMILES>  (864) 
O=C1NC(=S)n2c1cc1ccc(Cl)cc1c2=O

>  <Name>  (864) 
nan

>  <Pocket>  (864) 
nan

>  <ATP_Site>  (864) 
nan

>  <Peripheral>  (864) 
nan

>  <Num_H_Atoms_ProtBoundConf>  (864) 
nan

>  <Num_Resolved_Atoms>  (864) 
nan

>  <Num_Not_Resolved_Atoms>  (864) 
nan

$$$$
CHEMBL4070408
     RDKit          3D

  0  0  0  0  0  0  0  0  0  0999 V3000
M  V30 BEGIN CTAB
M  V30 COUNTS 36 39 0 0 0
M  V30 BEGIN ATOM
M  V30 1 C 0.471285 -4.671278 1.771964 0
M  V30 2 C 1.717866 -3.842288 1.881185 0
M  V30 3 N 2.699531 -4.640975 2.389372 0
M  V30 4 C 3.949338 -4.222201 2.619031 0
M  V30 5 C 4.244716 -2.911523 2.321066 0
M  V30 6 C 3.259078 -2.108898 1.810601 0
M  V30 7 C 1.972650 -2.499437 1.562415 0
M  V30 8 O 0.824550 -1.967448 1.084883 0
M  V30 9 C 0.702146 -0.661382 0.671494 0
M  V30 10 S 1.950269 0.621468 0.652211 0
M  V30 11 C 0.930472 1.898563 -0.006232 0
M  V30 12 C 1.499058 3.208955 -0.225313 0
M  V30 13 N 0.727521 4.280357 -0.753917 0
M  V30 14 O 2.688953 3.451436 0.040736 0
M  V30 15 C -0.298658 1.307470 -0.182333 0
M  V30 16 C -0.396308 -0.006511 0.171064 0
M  V30 17 C -1.735002 -0.673080 -0.018146 0
M  V30 18 S -2.354889 -2.209004 0.249496 0
M  V30 19 N -4.091995 -1.875383 -0.344611 0
M  V30 20 C -3.908390 -0.539741 -0.679107 0
M  V30 21 C -2.745430 0.128033 -0.539640 0
M  V30 22 C -2.702149 1.539653 -0.938181 0
M  V30 23 C -1.381386 2.144141 -0.736021 0
M  V30 24 H 0.701285 -5.531957 1.131144 0
M  V30 25 H 0.248227 -5.037836 2.810603 0
M  V30 26 H -0.370436 -4.070315 1.439442 0
M  V30 27 H 4.758886 -4.814188 3.018736 0
M  V30 28 H 5.200010 -2.454675 2.456867 0
M  V30 29 H 3.436782 -1.092511 1.565062 0
M  V30 30 H 0.076765 4.989076 -1.150770 0
M  V30 31 H 0.069332 4.972578 -1.149123 0
M  V30 32 H -4.931427 -0.357398 -1.024861 0
M  V30 33 H -2.948573 1.651109 -2.027163 0
M  V30 34 H -3.493689 2.152889 -0.434683 0
M  V30 35 H -1.531208 2.996382 0.006805 0
M  V30 36 H -1.025512 2.719048 -1.649097 0
M  V30 END ATOM
M  V30 BEGIN BOND
M  V30 1 1 1 2
M  V30 2 2 2 3
M  V30 3 1 3 4
M  V30 4 2 4 5
M  V30 5 1 5 6
M  V30 6 2 6 7
M  V30 7 1 7 8
M  V30 8 1 8 9
M  V30 9 1 9 10
M  V30 10 1 10 11
M  V30 11 1 11 12
M  V30 12 1 12 13
M  V30 13 2 12 14
M  V30 14 2 11 15
M  V30 15 1 15 16
M  V30 16 1 16 17
M  V30 17 1 17 18
M  V30 18 1 18 19
M  V30 19 2 19 20
M  V30 20 1 20 21
M  V30 21 1 21 22
M  V30 22 1 22 23
M  V30 23 1 7 2
M  V30 24 2 16 9
M  V30 25 2 21 17
M  V30 26 1 23 15
M  V30 27 1 1 24
M  V30 28 1 1 25
M  V30 29 1 1 26
M  V30 30 1 4 27
M  V30 31 1 5 28
M  V30 32 1 6 29
M  V30 33 1 13 30
M  V30 34 1 13 31
M  V30 35 1 20 32
M  V30 36 1 22 33
M  V30 37 1 22 34
M  V30 38 1 23 35
M  V30 39 1 23 36
M  V30 END BOND
M  V30 END CTAB
M  END
>  <Dataset>  (865) 
ChEMBL_Kinases

>  <Ligand_Instance>  (865) 
nan

>  <PDB_ID>  (865) 
nan

>  <Standardized_SMILES>  (865) 
Cc1ncccc1Oc1sc(C(N)=O)c2c1-c1sncc1CC2

>  <Name>  (865) 
nan

>  <Pocket>  (865) 
nan

>  <ATP_Site>  (865) 
nan

>  <Peripheral>  (865) 
nan

>  <Num_H_Atoms_ProtBoundConf>  (865) 
nan

>  <Num_Resolved_Atoms>  (865) 
nan

>  <Num_Not_Resolved_Atoms>  (865) 
nan

$$$$
CHEMBL4070402
     RDKit          3D

  0  0  0  0  0  0  0  0  0  0999 V3000
M  V30 BEGIN CTAB
M  V30 COUNTS 50 53 0 0 0
M  V30 BEGIN ATOM
M  V30 1 O -1.462886 -5.535403 3.772511 0
M  V30 2 C -1.218049 -4.409846 3.317019 0
M  V30 3 N -1.660504 -3.193719 3.859127 0
M  V30 4 C -1.153247 -2.156574 3.023087 0
M  V30 5 C -1.343056 -0.803451 3.182592 0
M  V30 6 C -0.754782 0.022032 2.246906 0
M  V30 7 C -0.006463 -0.446325 1.189963 0
M  V30 8 C 0.624655 0.407690 0.190197 0
M  V30 9 O 1.313691 -0.005648 -0.775108 0
M  V30 10 N 0.506565 1.828434 0.228925 0
M  V30 11 C 1.086174 2.767307 -0.701254 0 CFG=2
M  V30 12 C 1.958883 3.787861 -0.019860 0
M  V30 13 C 3.109245 3.145564 0.721172 0
M  V30 14 O 3.957382 2.412538 -0.082884 0
M  V30 15 C -0.024009 3.404954 -1.454264 0
M  V30 16 C -0.013578 3.588003 -2.819552 0
M  V30 17 C -1.069067 4.190256 -3.502970 0
M  V30 18 C -2.182842 4.630133 -2.805555 0
M  V30 19 C -2.188693 4.444880 -1.441278 0
M  V30 20 C -1.131646 3.843388 -0.768061 0
M  V30 21 C 0.172081 -1.826473 1.049288 0
M  V30 22 C -0.412026 -2.670338 1.980572 0
M  V30 23 C -0.435091 -4.129943 2.144045 0
M  V30 24 C 0.142965 -5.027383 1.400259 0
M  V30 25 C 0.162609 -6.472514 1.538600 0
M  V30 26 C -0.106470 -7.292270 0.433449 0
M  V30 27 C -0.013445 -8.626880 0.762377 0
M  V30 28 C 0.320124 -8.619050 2.097079 0
M  V30 29 N 0.416155 -7.351393 2.521816 0
M  V30 30 H -2.246025 -3.103555 4.709735 0
M  V30 31 H -1.917044 -0.379921 3.986807 0
M  V30 32 H -0.896346 1.081061 2.360930 0
M  V30 33 H -0.039469 2.303751 0.980221 0
M  V30 34 H 1.685034 2.216689 -1.453867 0
M  V30 35 H 1.421893 4.447605 0.657178 0
M  V30 36 H 2.443761 4.408927 -0.823022 0
M  V30 37 H 3.670732 3.986916 1.212752 0
M  V30 38 H 2.728764 2.511091 1.557586 0
M  V30 39 H 4.892728 2.669146 0.131872 0
M  V30 40 H 0.858511 3.241658 -3.352954 0
M  V30 41 H -0.985161 4.299194 -4.587864 0
M  V30 42 H -2.993404 5.096250 -3.360074 0
M  V30 43 H -3.096724 4.816694 -0.966910 0
M  V30 44 H -1.274503 3.765882 0.294185 0
M  V30 45 H 0.736102 -2.292922 0.262471 0
M  V30 46 H 0.698991 -4.617526 0.539548 0
M  V30 47 H -0.362508 -6.977363 -0.580842 0
M  V30 48 H -0.173561 -9.467476 0.095434 0
M  V30 49 H 0.484795 -9.481844 2.727900 0
M  V30 50 H 0.670282 -7.071522 3.489978 0
M  V30 END ATOM
M  V30 BEGIN BOND
M  V30 1 2 1 2
M  V30 2 1 2 3
M  V30 3 1 3 4
M  V30 4 2 4 5
M  V30 5 1 5 6
M  V30 6 2 6 7
M  V30 7 1 7 8
M  V30 8 2 8 9
M  V30 9 1 8 10
M  V30 10 1 10 11
M  V30 11 1 11 12
M  V30 12 1 12 13
M  V30 13 1 13 14
M  V30 14 1 11 15
M  V30 15 2 15 16
M  V30 16 1 16 17
M  V30 17 2 17 18
M  V30 18 1 18 19
M  V30 19 2 19 20
M  V30 20 1 7 21
M  V30 21 2 21 22
M  V30 22 1 22 23
M  V30 23 2 23 24
M  V30 24 1 24 25
M  V30 25 2 25 26
M  V30 26 1 26 27
M  V30 27 2 27 28
M  V30 28 1 28 29
M  V30 29 1 23 2
M  V30 30 1 29 25
M  V30 31 1 22 4
M  V30 32 1 20 15
M  V30 33 1 3 30
M  V30 34 1 5 31
M  V30 35 1 6 32
M  V30 36 1 10 33
M  V30 37 1 11 34 CFG=3
M  V30 38 1 12 35
M  V30 39 1 12 36
M  V30 40 1 13 37
M  V30 41 1 13 38
M  V30 42 1 14 39
M  V30 43 1 16 40
M  V30 44 1 17 41
M  V30 45 1 18 42
M  V30 46 1 19 43
M  V30 47 1 20 44
M  V30 48 1 21 45
M  V30 49 1 24 46
M  V30 50 1 26 47
M  V30 51 1 27 48
M  V30 52 1 28 49
M  V30 53 1 29 50
M  V30 END BOND
M  V30 END CTAB
M  END
>  <Dataset>  (866) 
ChEMBL_Kinases

>  <Ligand_Instance>  (866) 
nan

>  <PDB_ID>  (866) 
nan

>  <Standardized_SMILES>  (866) 
O=C1Nc2ccc(C(=O)N[C@H](CCO)c3ccccc3)cc2/C1=C/c1ccc[nH]1

>  <Name>  (866) 
nan

>  <Pocket>  (866) 
nan

>  <ATP_Site>  (866) 
nan

>  <Peripheral>  (866) 
nan

>  <Num_H_Atoms_ProtBoundConf>  (866) 
nan

>  <Num_Resolved_Atoms>  (866) 
nan

>  <Num_Not_Resolved_Atoms>  (866) 
nan

$$$$
CHEMBL4070389
     RDKit          3D

  0  0  0  0  0  0  0  0  0  0999 V3000
M  V30 BEGIN CTAB
M  V30 COUNTS 60 62 0 0 0
M  V30 BEGIN ATOM
M  V30 1 O -0.420793 -1.761160 3.810833 0
M  V30 2 C 0.230684 -2.623660 3.129344 0
M  V30 3 C 1.701445 -2.375307 2.986314 0
M  V30 4 C 1.988113 -1.107046 3.708186 0
M  V30 5 N 3.324326 -0.646289 3.720499 0
M  V30 6 C 3.888720 -0.198899 2.499898 0
M  V30 7 C 3.196526 0.929760 1.847220 0
M  V30 8 C 3.466398 2.264591 2.070335 0
M  V30 9 C 2.764239 3.277941 1.408195 0
M  V30 10 C 1.758557 2.954616 0.492203 0
M  V30 11 C 1.024519 4.009606 -0.198898 0
M  V30 12 C 1.711349 5.082754 -0.751338 0
M  V30 13 C 1.052511 6.093664 -1.408074 0
M  V30 14 C -0.334010 6.081130 -1.545634 0
M  V30 15 C -1.034052 5.020382 -1.001740 0
M  V30 16 C -0.346085 4.022044 -0.349178 0
M  V30 17 C 1.451323 1.634182 0.234539 0
M  V30 18 Cl 0.209116 1.147350 -0.898234 0
M  V30 19 C 2.191718 0.696960 0.930382 0
M  V30 20 N -0.456404 -3.721999 2.571367 0
M  V30 21 C -1.875189 -3.612978 2.930125 0
M  V30 22 C -2.668248 -4.760092 2.355456 0
M  V30 23 C -2.580514 -4.789203 0.872925 0
M  V30 24 O -1.824151 -3.757838 0.854181 0
M  V30 25 N -3.074031 -5.570596 -0.193079 0
M  V30 26 C -2.566075 -4.998071 -1.397277 0
M  V30 27 C -1.364586 -5.415959 -1.931760 0
M  V30 28 C -0.949272 -4.807554 -3.096291 0
M  V30 29 C -1.734285 -3.838910 -3.652230 0
M  V30 30 C -2.939141 -3.401577 -3.139921 0
M  V30 31 C -3.749915 -2.363649 -3.761463 0
M  V30 32 O -4.846437 -1.982051 -3.274333 0
M  V30 33 O -3.295015 -1.771851 -4.937996 0
M  V30 34 C -3.345683 -4.016888 -1.974393 0
M  V30 35 H 2.012743 -2.396579 1.938487 0
M  V30 36 H 2.165695 -3.245401 3.537075 0
M  V30 37 H 1.677007 -1.253785 4.772158 0
M  V30 38 H 1.281112 -0.331733 3.291852 0
M  V30 39 H 3.475396 -0.025707 4.528567 0
M  V30 40 H 4.917313 0.177973 2.738289 0
M  V30 41 H 4.050654 -1.036992 1.796355 0
M  V30 42 H 4.255551 2.495163 2.789440 0
M  V30 43 H 3.023267 4.303543 1.627227 0
M  V30 44 H 2.782795 5.156270 -0.682314 0
M  V30 45 H 1.536411 6.938721 -1.849350 0
M  V30 46 H -0.852574 6.876803 -2.062844 0
M  V30 47 H -2.129898 4.983115 -1.094879 0
M  V30 48 H -0.926629 3.211849 0.062353 0
M  V30 49 H 1.936463 -0.339276 0.714826 0
M  V30 50 H 0.146622 -4.385093 2.026823 0
M  V30 51 H -1.933891 -3.699296 4.033803 0
M  V30 52 H -2.271904 -2.641010 2.639475 0
M  V30 53 H -2.359937 -5.720956 2.812740 0
M  V30 54 H -3.723923 -4.587843 2.651656 0
M  V30 55 H -3.648898 -6.309676 0.264636 0
M  V30 56 H -0.830737 -6.193036 -1.399625 0
M  V30 57 H -0.009647 -5.122775 -3.529410 0
M  V30 58 H -1.355330 -3.393259 -4.571557 0
M  V30 59 H -3.525827 -0.789289 -5.155713 0
M  V30 60 H -4.290819 -3.710094 -1.525366 0
M  V30 END ATOM
M  V30 BEGIN BOND
M  V30 1 2 1 2
M  V30 2 1 2 3
M  V30 3 1 3 4
M  V30 4 1 4 5
M  V30 5 1 5 6
M  V30 6 1 6 7
M  V30 7 2 7 8
M  V30 8 1 8 9
M  V30 9 2 9 10
M  V30 10 1 10 11
M  V30 11 2 11 12
M  V30 12 1 12 13
M  V30 13 2 13 14
M  V30 14 1 14 15
M  V30 15 2 15 16
M  V30 16 1 10 17
M  V30 17 1 17 18
M  V30 18 2 17 19
M  V30 19 1 2 20
M  V30 20 1 20 21
M  V30 21 1 21 22
M  V30 22 1 22 23
M  V30 23 2 23 24
M  V30 24 1 23 25
M  V30 25 1 25 26
M  V30 26 2 26 27
M  V30 27 1 27 28
M  V30 28 2 28 29
M  V30 29 1 29 30
M  V30 30 1 30 31
M  V30 31 2 31 32
M  V30 32 1 31 33
M  V30 33 2 30 34
M  V30 34 1 19 7
M  V30 35 1 34 26
M  V30 36 1 16 11
M  V30 37 1 3 35
M  V30 38 1 3 36
M  V30 39 1 4 37
M  V30 40 1 4 38
M  V30 41 1 5 39
M  V30 42 1 6 40
M  V30 43 1 6 41
M  V30 44 1 8 42
M  V30 45 1 9 43
M  V30 46 1 12 44
M  V30 47 1 13 45
M  V30 48 1 14 46
M  V30 49 1 15 47
M  V30 50 1 16 48
M  V30 51 1 19 49
M  V30 52 1 20 50
M  V30 53 1 21 51
M  V30 54 1 21 52
M  V30 55 1 22 53
M  V30 56 1 22 54
M  V30 57 1 25 55
M  V30 58 1 27 56
M  V30 59 1 28 57
M  V30 60 1 29 58
M  V30 61 1 33 59
M  V30 62 1 34 60
M  V30 END BOND
M  V30 END CTAB
M  END
>  <Dataset>  (867) 
ChEMBL_Kinases

>  <Ligand_Instance>  (867) 
nan

>  <PDB_ID>  (867) 
nan

>  <Standardized_SMILES>  (867) 
O=C(CCNCc1ccc(-c2ccccc2)c(Cl)c1)NCCC(=O)Nc1cccc(C(=O)O)c1

>  <Name>  (867) 
nan

>  <Pocket>  (867) 
nan

>  <ATP_Site>  (867) 
nan

>  <Peripheral>  (867) 
nan

>  <Num_H_Atoms_ProtBoundConf>  (867) 
nan

>  <Num_Resolved_Atoms>  (867) 
nan

>  <Num_Not_Resolved_Atoms>  (867) 
nan

$$$$
CHEMBL4070290
     RDKit          3D

  0  0  0  0  0  0  0  0  0  0999 V3000
M  V30 BEGIN CTAB
M  V30 COUNTS 64 68 0 0 0
M  V30 BEGIN ATOM
M  V30 1 O 0.903225 -1.426293 5.362635 0
M  V30 2 C 0.726499 -1.290356 4.100950 0
M  V30 3 C 1.803673 -1.879255 3.302453 0
M  V30 4 C 1.428385 -2.209210 1.905697 0
M  V30 5 C 1.967939 -1.461996 0.844926 0
M  V30 6 C 1.670290 -1.779427 -0.471889 0
M  V30 7 C 2.182277 -1.110564 -1.679002 0 CFG=2
M  V30 8 C 3.699564 -0.989803 -1.486234 0
M  V30 9 C 4.392881 -0.407810 -2.691168 0
M  V30 10 N 3.429580 0.362920 -3.434721 0
M  V30 11 C 2.679415 1.138819 -2.433490 0
M  V30 12 C 1.536781 0.184372 -2.039569 0 CFG=1
M  V30 13 C 0.702607 0.070406 -3.312993 0
M  V30 14 O -0.343388 -0.840072 -3.247603 0
M  V30 15 C -1.444021 -0.872503 -2.469149 0
M  V30 16 C -1.947584 -0.052831 -1.485877 0
M  V30 17 C -3.101628 -0.245335 -0.792727 0
M  V30 18 C -3.835946 -1.374936 -1.112716 0
M  V30 19 C -3.418019 -2.280347 -2.098092 0
M  V30 20 C -2.216554 -2.008625 -2.764949 0
M  V30 21 O -4.367825 -3.286996 -2.163262 0
M  V30 22 C -5.149766 -3.186630 -0.963674 0
M  V30 23 O -5.040742 -1.817613 -0.575857 0
M  V30 24 C 0.819369 -2.861089 -0.679129 0
M  V30 25 C 0.294876 -3.585890 0.357494 0
M  V30 26 C 0.598661 -3.261603 1.640872 0
M  V30 27 F 0.099969 -3.954251 2.707655 0
M  V30 28 N -0.479648 -0.600174 3.817714 0
M  V30 29 C -1.107680 -0.277994 5.080899 0
M  V30 30 C -2.412758 0.447864 4.899884 0
M  V30 31 C -2.244702 1.716628 4.166537 0
M  V30 32 C -2.344924 1.769017 2.799921 0
M  V30 33 N -2.144247 3.046095 2.451028 0
M  V30 34 N -1.927728 3.772329 3.526620 0
M  V30 35 C -1.981246 2.981456 4.621634 0
M  V30 36 H 2.685261 -1.200379 3.263251 0
M  V30 37 H 2.173008 -2.814730 3.813375 0
M  V30 38 H 2.631174 -0.614374 1.001892 0
M  V30 39 H 2.057029 -1.772806 -2.589500 0
M  V30 40 H 3.934393 -0.356999 -0.603830 0
M  V30 41 H 4.045339 -2.034765 -1.370809 0
M  V30 42 H 4.938939 -1.164991 -3.297634 0
M  V30 43 H 5.186658 0.332297 -2.373745 0
M  V30 44 H 3.790106 0.922428 -4.205764 0
M  V30 45 H 3.283681 1.453025 -1.586787 0
M  V30 46 H 2.227612 2.021344 -2.953368 0
M  V30 47 H 1.032096 0.634145 -1.198869 0
M  V30 48 H 0.227433 1.056693 -3.552840 0
M  V30 49 H 1.383881 -0.112825 -4.173988 0
M  V30 50 H -1.312519 0.801309 -1.306448 0
M  V30 51 H -3.426064 0.442209 -0.044036 0
M  V30 52 H -1.984658 -2.777780 -3.512265 0
M  V30 53 H -4.704770 -3.842563 -0.170769 0
M  V30 54 H -6.209090 -3.394957 -1.169114 0
M  V30 55 H 0.546732 -3.163937 -1.666351 0
M  V30 56 H -0.368921 -4.428895 0.231215 0
M  V30 57 H -0.590030 -0.511734 2.772112 0
M  V30 58 H -0.390041 0.332071 5.690885 0
M  V30 59 H -1.270144 -1.217833 5.641249 0
M  V30 60 H -2.802317 0.703337 5.915831 0
M  V30 61 H -3.162975 -0.180585 4.399337 0
M  V30 62 H -2.547922 0.941335 2.116055 0
M  V30 63 H -1.731468 4.782648 3.694002 0
M  V30 64 H -1.859548 3.153628 5.685810 0
M  V30 END ATOM
M  V30 BEGIN BOND
M  V30 1 2 1 2
M  V30 2 1 2 3
M  V30 3 1 3 4
M  V30 4 2 4 5
M  V30 5 1 5 6
M  V30 6 1 6 7
M  V30 7 1 7 8
M  V30 8 1 8 9
M  V30 9 1 9 10
M  V30 10 1 10 11
M  V30 11 1 11 12
M  V30 12 1 12 13
M  V30 13 1 13 14
M  V30 14 1 14 15
M  V30 15 2 15 16
M  V30 16 1 16 17
M  V30 17 2 17 18
M  V30 18 1 18 19
M  V30 19 2 19 20
M  V30 20 1 19 21
M  V30 21 1 21 22
M  V30 22 1 22 23
M  V30 23 2 6 24
M  V30 24 1 24 25
M  V30 25 2 25 26
M  V30 26 1 26 27
M  V30 27 1 2 28
M  V30 28 1 28 29
M  V30 29 1 29 30
M  V30 30 1 30 31
M  V30 31 1 31 32
M  V30 32 2 32 33
M  V30 33 1 33 34
M  V30 34 1 34 35
M  V30 35 1 26 4
M  V30 36 2 35 31
M  V30 37 1 12 7
M  V30 38 1 20 15
M  V30 39 1 23 18
M  V30 40 1 3 36
M  V30 41 1 3 37
M  V30 42 1 5 38
M  V30 43 1 7 39 CFG=3
M  V30 44 1 8 40
M  V30 45 1 8 41
M  V30 46 1 9 42
M  V30 47 1 9 43
M  V30 48 1 10 44
M  V30 49 1 11 45
M  V30 50 1 11 46
M  V30 51 1 12 47 CFG=1
M  V30 52 1 13 48
M  V30 53 1 13 49
M  V30 54 1 16 50
M  V30 55 1 17 51
M  V30 56 1 20 52
M  V30 57 1 22 53
M  V30 58 1 22 54
M  V30 59 1 24 55
M  V30 60 1 25 56
M  V30 61 1 28 57
M  V30 62 1 29 58
M  V30 63 1 29 59
M  V30 64 1 30 60
M  V30 65 1 30 61
M  V30 66 1 32 62
M  V30 67 1 34 63
M  V30 68 1 35 64
M  V30 END BOND
M  V30 END CTAB
M  END
>  <Dataset>  (868) 
ChEMBL_Kinases

>  <Ligand_Instance>  (868) 
nan

>  <PDB_ID>  (868) 
nan

>  <Standardized_SMILES>  (868) 
O=C(Cc1cc([C@@H]2CCNC[C@H]2COc2ccc3c(c2)OCO3)ccc1F)NCCc1cn[nH]c1

>  <Name>  (868) 
nan

>  <Pocket>  (868) 
nan

>  <ATP_Site>  (868) 
nan

>  <Peripheral>  (868) 
nan

>  <Num_H_Atoms_ProtBoundConf>  (868) 
nan

>  <Num_Resolved_Atoms>  (868) 
nan

>  <Num_Not_Resolved_Atoms>  (868) 
nan

$$$$
CHEMBL4070244
     RDKit          3D

  0  0  0  0  0  0  0  0  0  0999 V3000
M  V30 BEGIN CTAB
M  V30 COUNTS 47 50 0 0 0
M  V30 BEGIN ATOM
M  V30 1 C 1.084027 -3.122292 2.795260 0
M  V30 2 N -0.134942 -2.644761 2.198884 0
M  V30 3 C -0.075235 -1.795209 1.173851 0
M  V30 4 N 1.078819 -1.238892 0.568096 0
M  V30 5 C 0.860797 -0.393097 -0.609950 0
M  V30 6 C 1.986795 -0.691673 -1.575077 0
M  V30 7 N 3.242427 -0.143151 -1.090688 0
M  V30 8 C 3.276703 -0.127190 0.339093 0
M  V30 9 C 2.934058 1.145571 0.960395 0
M  V30 10 C 2.097492 1.406793 2.040058 0
M  V30 11 C 1.886629 2.684253 2.508883 0
M  V30 12 C 2.507971 3.789099 1.917276 0
M  V30 13 C 3.341130 3.522014 0.840940 0
M  V30 14 F 3.903919 4.649794 0.326402 0
M  V30 15 C 3.565103 2.239230 0.355318 0
M  V30 16 C 2.477912 -1.316225 0.875916 0
M  V30 17 N -1.273869 -1.430755 0.693476 0
M  V30 18 C -2.461249 -1.839394 1.148868 0
M  V30 19 C -3.677060 -1.351105 0.514296 0
M  V30 20 C -4.928153 -1.735917 0.939404 0
M  V30 21 C -6.118937 -1.288859 0.354341 0
M  V30 22 N -6.039819 -0.425411 -0.694051 0
M  V30 23 C -4.838426 -0.045922 -1.114491 0
M  V30 24 C -3.648608 -0.479542 -0.545718 0
M  V30 25 C -2.469822 -2.702042 2.192298 0
M  V30 26 C -1.276388 -3.112318 2.727378 0
M  V30 27 O -1.266697 -3.913658 3.696751 0
M  V30 28 H 0.859001 -4.079426 3.378850 0
M  V30 29 H 1.505986 -2.464880 3.576773 0
M  V30 30 H 1.808092 -3.484997 2.038848 0
M  V30 31 H -0.068678 -0.709077 -1.142474 0
M  V30 32 H 0.735799 0.662740 -0.378076 0
M  V30 33 H 2.105279 -1.790457 -1.626190 0
M  V30 34 H 1.721638 -0.311493 -2.580944 0
M  V30 35 H 3.560006 0.700075 -1.570981 0
M  V30 36 H 4.334841 -0.360705 0.683052 0
M  V30 37 H 1.648785 0.522933 2.452317 0
M  V30 38 H 1.221277 2.826809 3.356701 0
M  V30 39 H 2.319950 4.776825 2.311961 0
M  V30 40 H 4.247956 2.267939 -0.484754 0
M  V30 41 H 2.729201 -1.331493 1.951903 0
M  V30 42 H 2.937059 -2.217027 0.416555 0
M  V30 43 H -5.046832 -2.406947 1.752615 0
M  V30 44 H -7.073530 -1.627186 0.733078 0
M  V30 45 H -4.893048 0.642342 -1.953835 0
M  V30 46 H -2.721995 -0.111120 -0.961271 0
M  V30 47 H -3.375274 -3.088467 2.630261 0
M  V30 END ATOM
M  V30 BEGIN BOND
M  V30 1 1 1 2
M  V30 2 1 2 3
M  V30 3 1 3 4
M  V30 4 1 4 5
M  V30 5 1 5 6
M  V30 6 1 6 7
M  V30 7 1 7 8
M  V30 8 1 8 9
M  V30 9 2 9 10
M  V30 10 1 10 11
M  V30 11 2 11 12
M  V30 12 1 12 13
M  V30 13 1 13 14
M  V30 14 2 13 15
M  V30 15 1 8 16
M  V30 16 2 3 17
M  V30 17 1 17 18
M  V30 18 1 18 19
M  V30 19 2 19 20
M  V30 20 1 20 21
M  V30 21 2 21 22
M  V30 22 1 22 23
M  V30 23 2 23 24
M  V30 24 2 18 25
M  V30 25 1 25 26
M  V30 26 2 26 27
M  V30 27 1 26 2
M  V30 28 1 16 4
M  V30 29 1 24 19
M  V30 30 1 15 9
M  V30 31 1 1 28
M  V30 32 1 1 29
M  V30 33 1 1 30
M  V30 34 1 5 31
M  V30 35 1 5 32
M  V30 36 1 6 33
M  V30 37 1 6 34
M  V30 38 1 7 35
M  V30 39 1 8 36
M  V30 40 1 10 37
M  V30 41 1 11 38
M  V30 42 1 12 39
M  V30 43 1 15 40
M  V30 44 1 16 41
M  V30 45 1 16 42
M  V30 46 1 20 43
M  V30 47 1 21 44
M  V30 48 1 23 45
M  V30 49 1 24 46
M  V30 50 1 25 47
M  V30 END BOND
M  V30 END CTAB
M  END
>  <Dataset>  (869) 
ChEMBL_Kinases

>  <Ligand_Instance>  (869) 
nan

>  <PDB_ID>  (869) 
nan

>  <Standardized_SMILES>  (869) 
Cn1c(N2CCNC(c3cccc(F)c3)C2)nc(-c2ccncc2)cc1=O

>  <Name>  (869) 
nan

>  <Pocket>  (869) 
nan

>  <ATP_Site>  (869) 
nan

>  <Peripheral>  (869) 
nan

>  <Num_H_Atoms_ProtBoundConf>  (869) 
nan

>  <Num_Resolved_Atoms>  (869) 
nan

>  <Num_Not_Resolved_Atoms>  (869) 
nan

$$$$
CHEMBL4070214
     RDKit          3D

  0  0  0  0  0  0  0  0  0  0999 V3000
M  V30 BEGIN CTAB
M  V30 COUNTS 48 51 0 0 0
M  V30 BEGIN ATOM
M  V30 1 N -3.207021 -7.151900 -0.707664 0
M  V30 2 C -2.222575 -6.552225 -0.834994 0
M  V30 3 C -1.022959 -5.802103 -0.996219 0
M  V30 4 C 0.075876 -6.474339 -1.535675 0
M  V30 5 C 1.251967 -5.764924 -1.701234 0
M  V30 6 C 1.347692 -4.440497 -1.349640 0
M  V30 7 N 2.501152 -3.742866 -1.511492 0
M  V30 8 C 2.566986 -2.442586 -1.157467 0
M  V30 9 N 1.488093 -1.835766 -0.643132 0
M  V30 10 C 0.309547 -2.429024 -0.443310 0
M  V30 11 N -0.796156 -1.730433 0.105961 0
M  V30 12 C -0.645969 -0.350014 0.446573 0 CFG=1
M  V30 13 C -0.348622 0.471043 -0.764034 0
M  V30 14 C 0.162658 1.865057 -0.376514 0
M  V30 15 C -0.491640 2.339852 0.887848 0 CFG=2
M  V30 16 N 0.209873 1.973824 2.090802 0
M  V30 17 C -0.565158 2.514050 3.196328 0
M  V30 18 C 0.271244 2.758137 4.429689 0
M  V30 19 O 1.272599 1.791346 4.474853 0
M  V30 20 C 2.181720 1.947339 3.431287 0
M  V30 21 C 1.520104 2.527585 2.197083 0
M  V30 22 C -1.890391 1.761086 0.936408 0
M  V30 23 C -1.878040 0.254404 1.097786 0
M  V30 24 C 0.280061 -3.754935 -0.816159 0
M  V30 25 C -0.879350 -4.482219 -0.660999 0
M  V30 26 H 0.031909 -7.508414 -1.819871 0
M  V30 27 H 2.094449 -6.302412 -2.121202 0
M  V30 28 H 3.471661 -1.840683 -1.268629 0
M  V30 29 H -1.734962 -2.115078 0.297048 0
M  V30 30 H 0.150654 -0.297537 1.219294 0
M  V30 31 H 0.312847 0.010149 -1.511813 0
M  V30 32 H -1.337470 0.585997 -1.301201 0
M  V30 33 H 1.252403 1.942169 -0.405634 0
M  V30 34 H -0.207720 2.543860 -1.194562 0
M  V30 35 H -0.621368 3.443003 0.831572 0
M  V30 36 H -1.470587 1.918200 3.431303 0
M  V30 37 H -0.920437 3.523469 2.852136 0
M  V30 38 H -0.381359 2.539224 5.323630 0
M  V30 39 H 0.698782 3.767469 4.481826 0
M  V30 40 H 2.631955 0.946772 3.252172 0
M  V30 41 H 3.036512 2.602438 3.760899 0
M  V30 42 H 1.415432 3.618072 2.364349 0
M  V30 43 H 2.208824 2.289019 1.363029 0
M  V30 44 H -2.400680 1.981096 -0.045925 0
M  V30 45 H -2.530678 2.198906 1.711108 0
M  V30 46 H -1.888888 -0.069581 2.149437 0
M  V30 47 H -2.793152 -0.155819 0.583606 0
M  V30 48 H -1.765796 -4.037421 -0.253933 0
M  V30 END ATOM
M  V30 BEGIN BOND
M  V30 1 3 1 2
M  V30 2 1 2 3
M  V30 3 2 3 4
M  V30 4 1 4 5
M  V30 5 2 5 6
M  V30 6 1 6 7
M  V30 7 2 7 8
M  V30 8 1 8 9
M  V30 9 2 9 10
M  V30 10 1 10 11
M  V30 11 1 11 12
M  V30 12 1 12 13
M  V30 13 1 13 14
M  V30 14 1 14 15
M  V30 15 1 15 16
M  V30 16 1 16 17
M  V30 17 1 17 18
M  V30 18 1 18 19
M  V30 19 1 19 20
M  V30 20 1 20 21
M  V30 21 1 15 22
M  V30 22 1 22 23
M  V30 23 1 10 24
M  V30 24 2 24 25
M  V30 25 1 25 3
M  V30 26 1 24 6
M  V30 27 1 23 12
M  V30 28 1 21 16
M  V30 29 1 4 26
M  V30 30 1 5 27
M  V30 31 1 8 28
M  V30 32 1 11 29
M  V30 33 1 12 30 CFG=1
M  V30 34 1 13 31
M  V30 35 1 13 32
M  V30 36 1 14 33
M  V30 37 1 14 34
M  V30 38 1 15 35 CFG=3
M  V30 39 1 17 36
M  V30 40 1 17 37
M  V30 41 1 18 38
M  V30 42 1 18 39
M  V30 43 1 20 40
M  V30 44 1 20 41
M  V30 45 1 21 42
M  V30 46 1 21 43
M  V30 47 1 22 44
M  V30 48 1 22 45
M  V30 49 1 23 46
M  V30 50 1 23 47
M  V30 51 1 25 48
M  V30 END BOND
M  V30 END CTAB
M  END
>  <Dataset>  (870) 
ChEMBL_Kinases

>  <Ligand_Instance>  (870) 
nan

>  <PDB_ID>  (870) 
nan

>  <Standardized_SMILES>  (870) 
N#Cc1ccc2ncnc(N[C@H]3CC[C@H](N4CCOCC4)CC3)c2c1

>  <Name>  (870) 
nan

>  <Pocket>  (870) 
nan

>  <ATP_Site>  (870) 
nan

>  <Peripheral>  (870) 
nan

>  <Num_H_Atoms_ProtBoundConf>  (870) 
nan

>  <Num_Resolved_Atoms>  (870) 
nan

>  <Num_Not_Resolved_Atoms>  (870) 
nan

$$$$
CHEMBL4860430
     RDKit          3D

  0  0  0  0  0  0  0  0  0  0999 V3000
M  V30 BEGIN CTAB
M  V30 COUNTS 79 84 0 0 0
M  V30 BEGIN ATOM
M  V30 1 C 4.745482 0.769174 3.851652 0
M  V30 2 O 3.387225 0.465525 3.657659 0
M  V30 3 C 2.858839 0.086226 2.447342 0
M  V30 4 C 3.636067 -0.026748 1.321837 0
M  V30 5 C 3.100436 -0.408863 0.108916 0
M  V30 6 N 3.886591 -0.515872 -1.069117 0
M  V30 7 C 3.505936 -1.128346 -2.330048 0
M  V30 8 C 3.218546 0.029920 -3.257704 0
M  V30 9 N 4.175326 1.059373 -3.203770 0
M  V30 10 C 3.626156 2.373270 -3.327742 0
M  V30 11 C 5.337342 0.916371 -2.422604 0
M  V30 12 C 5.253645 0.003534 -1.235252 0
M  V30 13 C 1.757798 -0.684654 0.019164 0
M  V30 14 C 1.021730 -0.556235 1.178342 0
M  V30 15 C 1.501402 -0.172884 2.440214 0
M  V30 16 N 0.615388 -0.093129 3.544157 0
M  V30 17 C -0.777481 -0.280168 3.746749 0
M  V30 18 N -1.139701 -0.107429 5.051830 0
M  V30 19 C -2.404538 -0.230613 5.454273 0
M  V30 20 C -3.335572 -0.541043 4.492251 0
M  V30 21 C -4.607870 -0.650529 4.974606 0
M  V30 22 C -4.973263 -0.459197 6.403931 0
M  V30 23 C -5.633369 -0.958188 4.107511 0
M  V30 24 C -5.247400 -1.128191 2.795919 0
M  V30 25 O -6.194183 -1.412419 1.985732 0
M  V30 26 N -3.960629 -1.011868 2.340252 0
M  V30 27 C -3.737495 -1.228553 0.953803 0 CFG=1
M  V30 28 C -3.162334 -0.060225 0.194567 0
M  V30 29 C -3.451181 -0.311074 -1.266896 0
M  V30 30 C -2.987226 -1.611433 -1.772287 0 CFG=1
M  V30 31 N -1.680473 -1.456366 -2.417413 0
M  V30 32 C -1.476530 -1.952001 -3.750937 0
M  V30 33 O -2.430689 -2.516872 -4.339112 0
M  V30 34 C -0.154324 -1.803048 -4.435691 0
M  V30 35 C 0.388542 -2.973419 -5.186858 0
M  V30 36 C -0.188393 -1.781772 -5.906914 0
M  V30 37 C -2.971291 -2.742890 -0.795913 0
M  V30 38 C -2.878558 -2.415320 0.640526 0
M  V30 39 C -2.956586 -0.712119 3.179686 0
M  V30 40 N -1.681241 -0.587213 2.776246 0
M  V30 41 H 5.088500 1.650481 3.250638 0
M  V30 42 H 4.911694 1.049812 4.920907 0
M  V30 43 H 5.396510 -0.074017 3.530204 0
M  V30 44 H 4.681684 0.199367 1.442614 0
M  V30 45 H 2.566378 -1.716205 -2.214767 0
M  V30 46 H 4.316272 -1.740918 -2.765673 0
M  V30 47 H 2.163747 0.379820 -3.080754 0
M  V30 48 H 3.244346 -0.401624 -4.300706 0
M  V30 49 H 2.593645 2.231538 -3.764598 0
M  V30 50 H 4.222441 2.909325 -4.081486 0
M  V30 51 H 3.488040 2.905713 -2.378553 0
M  V30 52 H 6.153913 0.554018 -3.079681 0
M  V30 53 H 5.725024 1.924325 -2.068222 0
M  V30 54 H 5.873744 -0.891167 -1.427387 0
M  V30 55 H 5.626826 0.502966 -0.326162 0
M  V30 56 H 1.254156 -0.985869 -0.868382 0
M  V30 57 H -0.021864 -0.768831 1.128287 0
M  V30 58 H 1.206129 0.175556 4.367153 0
M  V30 59 H -2.646641 -0.086394 6.502882 0
M  V30 60 H -6.056510 -0.416052 6.550011 0
M  V30 61 H -4.479140 -1.242383 7.023821 0
M  V30 62 H -4.571500 0.516729 6.752108 0
M  V30 63 H -6.660248 -1.062520 4.404007 0
M  V30 64 H -4.727901 -1.431083 0.440532 0
M  V30 65 H -2.076800 0.004662 0.311630 0
M  V30 66 H -3.684060 0.884507 0.451219 0
M  V30 67 H -2.978656 0.527978 -1.832745 0
M  V30 68 H -4.553516 -0.164348 -1.379403 0
M  V30 69 H -3.655677 -1.941959 -2.594158 0
M  V30 70 H -0.900427 -0.989018 -1.910120 0
M  V30 71 H 0.575568 -1.241987 -3.856950 0
M  V30 72 H -0.132604 -3.934098 -5.217610 0
M  V30 73 H 1.482067 -3.048173 -5.278802 0
M  V30 74 H -1.156089 -2.025767 -6.433599 0
M  V30 75 H 0.487022 -1.066607 -6.408048 0
M  V30 76 H -3.837090 -3.447812 -0.945805 0
M  V30 77 H -2.078402 -3.368715 -1.049728 0
M  V30 78 H -3.273654 -3.314660 1.206568 0
M  V30 79 H -1.832600 -2.217590 0.935659 0
M  V30 END ATOM
M  V30 BEGIN BOND
M  V30 1 1 1 2
M  V30 2 1 2 3
M  V30 3 2 3 4
M  V30 4 1 4 5
M  V30 5 1 5 6
M  V30 6 1 6 7
M  V30 7 1 7 8
M  V30 8 1 8 9
M  V30 9 1 9 10
M  V30 10 1 9 11
M  V30 11 1 11 12
M  V30 12 2 5 13
M  V30 13 1 13 14
M  V30 14 2 14 15
M  V30 15 1 15 16
M  V30 16 1 16 17
M  V30 17 2 17 18
M  V30 18 1 18 19
M  V30 19 2 19 20
M  V30 20 1 20 21
M  V30 21 1 21 22
M  V30 22 2 21 23
M  V30 23 1 23 24
M  V30 24 2 24 25
M  V30 25 1 24 26
M  V30 26 1 26 27
M  V30 27 1 27 28
M  V30 28 1 28 29
M  V30 29 1 29 30
M  V30 30 1 30 31
M  V30 31 1 31 32
M  V30 32 2 32 33
M  V30 33 1 32 34
M  V30 34 1 34 35
M  V30 35 1 35 36
M  V30 36 1 30 37
M  V30 37 1 37 38
M  V30 38 1 26 39
M  V30 39 2 39 40
M  V30 40 1 15 3
M  V30 41 1 40 17
M  V30 42 1 12 6
M  V30 43 1 39 20
M  V30 44 1 38 27
M  V30 45 1 36 34
M  V30 46 1 1 41
M  V30 47 1 1 42
M  V30 48 1 1 43
M  V30 49 1 4 44
M  V30 50 1 7 45
M  V30 51 1 7 46
M  V30 52 1 8 47
M  V30 53 1 8 48
M  V30 54 1 10 49
M  V30 55 1 10 50
M  V30 56 1 10 51
M  V30 57 1 11 52
M  V30 58 1 11 53
M  V30 59 1 12 54
M  V30 60 1 12 55
M  V30 61 1 13 56
M  V30 62 1 14 57
M  V30 63 1 16 58
M  V30 64 1 19 59
M  V30 65 1 22 60
M  V30 66 1 22 61
M  V30 67 1 22 62
M  V30 68 1 23 63
M  V30 69 1 27 64 CFG=3
M  V30 70 1 28 65
M  V30 71 1 28 66
M  V30 72 1 29 67
M  V30 73 1 29 68
M  V30 74 1 30 69 CFG=3
M  V30 75 1 31 70
M  V30 76 1 34 71
M  V30 77 1 35 72
M  V30 78 1 35 73
M  V30 79 1 36 74
M  V30 80 1 36 75
M  V30 81 1 37 76
M  V30 82 1 37 77
M  V30 83 1 38 78
M  V30 84 1 38 79
M  V30 END BOND
M  V30 END CTAB
M  END
>  <Dataset>  (871) 
ChEMBL_Kinases

>  <Ligand_Instance>  (871) 
nan

>  <PDB_ID>  (871) 
nan

>  <Standardized_SMILES>  (871) 
COc1cc(N2CCN(C)CC2)ccc1Nc1ncc2c(C)cc(=O)n([C@H]3CC[C@@H](NC(=O)C4CC4)CC3)c2n1

>  <Name>  (871) 
nan

>  <Pocket>  (871) 
nan

>  <ATP_Site>  (871) 
nan

>  <Peripheral>  (871) 
nan

>  <Num_H_Atoms_ProtBoundConf>  (871) 
nan

>  <Num_Resolved_Atoms>  (871) 
nan

>  <Num_Not_Resolved_Atoms>  (871) 
nan

$$$$
CHEMBL4070177
     RDKit          3D

  0  0  0  0  0  0  0  0  0  0999 V3000
M  V30 BEGIN CTAB
M  V30 COUNTS 59 62 0 0 0
M  V30 BEGIN ATOM
M  V30 1 C 6.521866 -6.151506 1.593920 0
M  V30 2 O 6.196207 -5.021546 0.817668 0
M  V30 3 C 4.943171 -4.449327 0.967094 0
M  V30 4 C 4.087999 -5.044142 1.888254 0
M  V30 5 C 2.818299 -4.496726 2.066869 0
M  V30 6 C 2.440513 -3.392649 1.337577 0
M  V30 7 C 3.259569 -2.779868 0.419418 0
M  V30 8 C 2.905264 -1.610917 -0.372887 0
M  V30 9 C 1.677876 -0.993115 -0.267785 0
M  V30 10 C 1.301678 0.119864 -1.001043 0
M  V30 11 N 0.010728 0.696087 -0.828530 0
M  V30 12 C -0.395854 1.313778 0.294362 0
M  V30 13 C -1.693235 1.762872 0.156321 0
M  V30 14 C -2.644773 2.493583 1.036050 0
M  V30 15 N -3.662336 1.651648 1.605438 0
M  V30 16 C -3.165653 0.595149 2.440262 0
M  V30 17 C -4.279150 -0.260286 3.009329 0
M  V30 18 C -5.220012 0.607830 3.855004 0
M  V30 19 C -3.751204 -1.320620 3.935760 0
M  V30 20 C -2.079385 1.384753 -1.136112 0
M  V30 21 C -3.252730 1.543139 -1.868934 0
M  V30 22 C -3.401323 1.075805 -3.155651 0
M  V30 23 C -2.293909 0.439218 -3.657172 0
M  V30 24 C -1.083526 0.219634 -3.039392 0
M  V30 25 C -1.001950 0.720358 -1.734501 0
M  V30 26 C 2.251542 0.600626 -1.877228 0
M  V30 27 C 1.909528 1.807637 -2.706391 0
M  V30 28 C 3.505199 -0.008384 -2.002831 0
M  V30 29 N 3.803397 -1.091750 -1.254831 0
M  V30 30 C 4.507430 -3.347324 0.268395 0
M  V30 31 H 7.608617 -6.408967 1.501094 0
M  V30 32 H 6.317457 -5.988311 2.653366 0
M  V30 33 H 5.996865 -7.020125 1.138721 0
M  V30 34 H 4.291249 -5.908001 2.504281 0
M  V30 35 H 2.117244 -4.929604 2.776434 0
M  V30 36 H 1.457709 -2.996012 1.498325 0
M  V30 37 H 0.920425 -1.366615 0.422614 0
M  V30 38 H 0.138362 1.486998 1.227913 0
M  V30 39 H -3.148011 3.294759 0.471811 0
M  V30 40 H -2.039734 2.920211 1.884139 0
M  V30 41 H -4.249564 2.264110 2.214443 0
M  V30 42 H -2.598000 0.996454 3.326378 0
M  V30 43 H -2.456849 -0.092689 1.947858 0
M  V30 44 H -4.862635 -0.727837 2.209368 0
M  V30 45 H -4.654031 1.327352 4.472606 0
M  V30 46 H -5.783202 -0.050200 4.514611 0
M  V30 47 H -5.863653 1.133087 3.102825 0
M  V30 48 H -3.998504 -1.125315 5.018738 0
M  V30 49 H -4.188408 -2.319702 3.734168 0
M  V30 50 H -2.640975 -1.388168 3.928581 0
M  V30 51 H -4.107744 2.062789 -1.412736 0
M  V30 52 H -4.280204 1.177147 -3.746975 0
M  V30 53 H -2.355788 0.047900 -4.675357 0
M  V30 54 H -0.264169 -0.295284 -3.519043 0
M  V30 55 H 2.885738 2.259880 -2.987047 0
M  V30 56 H 1.455728 1.497432 -3.676927 0
M  V30 57 H 1.348960 2.565310 -2.161106 0
M  V30 58 H 4.224733 0.398369 -2.701999 0
M  V30 59 H 5.182028 -2.893727 -0.445971 0
M  V30 END ATOM
M  V30 BEGIN BOND
M  V30 1 1 1 2
M  V30 2 1 2 3
M  V30 3 2 3 4
M  V30 4 1 4 5
M  V30 5 2 5 6
M  V30 6 1 6 7
M  V30 7 1 7 8
M  V30 8 2 8 9
M  V30 9 1 9 10
M  V30 10 1 10 11
M  V30 11 1 11 12
M  V30 12 2 12 13
M  V30 13 1 13 14
M  V30 14 1 14 15
M  V30 15 1 15 16
M  V30 16 1 16 17
M  V30 17 1 17 18
M  V30 18 1 17 19
M  V30 19 1 13 20
M  V30 20 2 20 21
M  V30 21 1 21 22
M  V30 22 2 22 23
M  V30 23 1 23 24
M  V30 24 2 24 25
M  V30 25 2 10 26
M  V30 26 1 26 27
M  V30 27 1 26 28
M  V30 28 2 28 29
M  V30 29 2 7 30
M  V30 30 1 30 3
M  V30 31 1 29 8
M  V30 32 1 25 11
M  V30 33 1 25 20
M  V30 34 1 1 31
M  V30 35 1 1 32
M  V30 36 1 1 33
M  V30 37 1 4 34
M  V30 38 1 5 35
M  V30 39 1 6 36
M  V30 40 1 9 37
M  V30 41 1 12 38
M  V30 42 1 14 39
M  V30 43 1 14 40
M  V30 44 1 15 41
M  V30 45 1 16 42
M  V30 46 1 16 43
M  V30 47 1 17 44
M  V30 48 1 18 45
M  V30 49 1 18 46
M  V30 50 1 18 47
M  V30 51 1 19 48
M  V30 52 1 19 49
M  V30 53 1 19 50
M  V30 54 1 21 51
M  V30 55 1 22 52
M  V30 56 1 23 53
M  V30 57 1 24 54
M  V30 58 1 27 55
M  V30 59 1 27 56
M  V30 60 1 27 57
M  V30 61 1 28 58
M  V30 62 1 30 59
M  V30 END BOND
M  V30 END CTAB
M  END
>  <Dataset>  (872) 
ChEMBL_Kinases

>  <Ligand_Instance>  (872) 
nan

>  <PDB_ID>  (872) 
nan

>  <Standardized_SMILES>  (872) 
COc1cccc(-c2cc(-n3cc(CNCC(C)C)c4ccccc43)c(C)cn2)c1

>  <Name>  (872) 
nan

>  <Pocket>  (872) 
nan

>  <ATP_Site>  (872) 
nan

>  <Peripheral>  (872) 
nan

>  <Num_H_Atoms_ProtBoundConf>  (872) 
nan

>  <Num_Resolved_Atoms>  (872) 
nan

>  <Num_Not_Resolved_Atoms>  (872) 
nan

$$$$
CHEMBL406971
     RDKit          3D

  0  0  0  0  0  0  0  0  0  0999 V3000
M  V30 BEGIN CTAB
M  V30 COUNTS 51 54 0 0 0
M  V30 BEGIN ATOM
M  V30 1 O 0.720855 -2.687842 -2.885818 0
M  V30 2 C -0.003673 -2.095048 -2.080647 0
M  V30 3 C -0.183165 -2.771328 -0.892041 0
M  V30 4 C 0.395795 -3.991067 -0.630542 0
M  V30 5 C 0.188775 -4.631081 0.573308 0
M  V30 6 C -0.609558 -4.040305 1.528156 0
M  V30 7 Br -0.961727 -4.836234 3.222952 0
M  V30 8 C -1.189297 -2.819061 1.266588 0
M  V30 9 C -0.994444 -2.164808 0.070964 0
M  V30 10 C -1.550958 -0.923797 -0.264252 0
M  V30 11 C -2.376534 -0.406834 0.837012 0
M  V30 12 C -1.674546 0.382345 1.747771 0
M  V30 13 C -2.366439 0.924976 2.835084 0
M  V30 14 C -3.723532 0.667914 2.981340 0
M  V30 15 C -4.410670 -0.120135 2.066388 0
M  V30 16 C -3.729555 -0.664728 0.980415 0
M  V30 17 C -1.315047 -0.306181 -1.501610 0
M  V30 18 C -2.086807 0.952947 -1.526899 0
M  V30 19 O -3.446462 0.575972 -1.716879 0
M  V30 20 N -0.523685 -0.905411 -2.426004 0
M  V30 21 C -0.320485 -0.195859 -3.626278 0
M  V30 22 C 0.868302 0.673528 -3.778899 0
M  V30 23 C 2.212245 0.047473 -3.697782 0
M  V30 24 C 2.849680 0.112247 -2.338449 0
M  V30 25 C 3.034248 1.535416 -1.860742 0
M  V30 26 C 2.286450 2.486145 -2.797539 0
M  V30 27 C 0.863577 1.917300 -2.882463 0
M  V30 28 H 1.012414 -4.437764 -1.378629 0
M  V30 29 H 0.640507 -5.590064 0.785697 0
M  V30 30 H -1.817848 -2.340434 2.001451 0
M  V30 31 H -0.636752 0.613486 1.688141 0
M  V30 32 H -1.903703 1.547306 3.589399 0
M  V30 33 H -4.272454 1.088193 3.827899 0
M  V30 34 H -5.484961 -0.333834 2.166639 0
M  V30 35 H -4.203976 -1.294782 0.220013 0
M  V30 36 H -1.886833 1.615526 -2.387211 0
M  V30 37 H -1.951034 1.565730 -0.629176 0
M  V30 38 H -4.022312 1.376894 -1.778911 0
M  V30 39 H -1.213719 0.450529 -3.888090 0
M  V30 40 H -0.298971 -0.918388 -4.500253 0
M  V30 41 H 0.769502 1.123127 -4.815373 0
M  V30 42 H 2.317718 -0.948723 -4.105905 0
M  V30 43 H 2.910490 0.680575 -4.340659 0
M  V30 44 H 2.359771 -0.455064 -1.552173 0
M  V30 45 H 3.884503 -0.308301 -2.449533 0
M  V30 46 H 2.521525 1.676520 -0.868340 0
M  V30 47 H 4.082762 1.827270 -1.706301 0
M  V30 48 H 2.761993 2.620366 -3.764034 0
M  V30 49 H 2.175260 3.441149 -2.222862 0
M  V30 50 H 0.658721 1.570071 -1.868810 0
M  V30 51 H 0.191460 2.686470 -3.260351 0
M  V30 END ATOM
M  V30 BEGIN BOND
M  V30 1 2 1 2
M  V30 2 1 2 3
M  V30 3 2 3 4
M  V30 4 1 4 5
M  V30 5 2 5 6
M  V30 6 1 6 7
M  V30 7 1 6 8
M  V30 8 2 8 9
M  V30 9 1 9 10
M  V30 10 1 10 11
M  V30 11 2 11 12
M  V30 12 1 12 13
M  V30 13 2 13 14
M  V30 14 1 14 15
M  V30 15 2 15 16
M  V30 16 2 10 17
M  V30 17 1 17 18
M  V30 18 1 18 19
M  V30 19 1 17 20
M  V30 20 1 20 21
M  V30 21 1 21 22
M  V30 22 1 22 23
M  V30 23 1 23 24
M  V30 24 1 24 25
M  V30 25 1 25 26
M  V30 26 1 26 27
M  V30 27 1 20 2
M  V30 28 1 27 22
M  V30 29 1 9 3
M  V30 30 1 16 11
M  V30 31 1 4 28
M  V30 32 1 5 29
M  V30 33 1 8 30
M  V30 34 1 12 31
M  V30 35 1 13 32
M  V30 36 1 14 33
M  V30 37 1 15 34
M  V30 38 1 16 35
M  V30 39 1 18 36
M  V30 40 1 18 37
M  V30 41 1 19 38
M  V30 42 1 21 39
M  V30 43 1 21 40
M  V30 44 1 22 41
M  V30 45 1 23 42
M  V30 46 1 23 43
M  V30 47 1 24 44
M  V30 48 1 24 45
M  V30 49 1 25 46
M  V30 50 1 25 47
M  V30 51 1 26 48
M  V30 52 1 26 49
M  V30 53 1 27 50
M  V30 54 1 27 51
M  V30 END BOND
M  V30 END CTAB
M  END
>  <Dataset>  (873) 
ChEMBL_Kinases

>  <Ligand_Instance>  (873) 
nan

>  <PDB_ID>  (873) 
nan

>  <Standardized_SMILES>  (873) 
O=c1c2ccc(Br)cc2c(-c2ccccc2)c(CO)n1CC1CCCCC1

>  <Name>  (873) 
nan

>  <Pocket>  (873) 
nan

>  <ATP_Site>  (873) 
nan

>  <Peripheral>  (873) 
nan

>  <Num_H_Atoms_ProtBoundConf>  (873) 
nan

>  <Num_Resolved_Atoms>  (873) 
nan

>  <Num_Not_Resolved_Atoms>  (873) 
nan

$$$$
CHEMBL4860628
     RDKit          3D

  0  0  0  0  0  0  0  0  0  0999 V3000
M  V30 BEGIN CTAB
M  V30 COUNTS 50 52 0 0 0
M  V30 BEGIN ATOM
M  V30 1 C 0.167837 -5.883623 -2.591377 0
M  V30 2 N 0.997702 -6.162022 -1.415750 0
M  V30 3 C 1.511391 -5.387026 -0.369481 0
M  V30 4 N 1.276523 -4.078796 -0.246664 0
M  V30 5 C 1.720950 -3.299480 0.720225 0
M  V30 6 N 1.469664 -1.914265 0.866797 0
M  V30 7 C 0.692853 -1.074444 0.032881 0
M  V30 8 C 0.064553 -1.433437 -1.136860 0
M  V30 9 N -0.671628 -0.592428 -1.889498 0
M  V30 10 C -0.839736 0.702796 -1.519732 0
M  V30 11 C -1.614716 1.652565 -2.277021 0
M  V30 12 N -2.221799 2.428135 -2.882592 0
M  V30 13 C -0.245235 1.155712 -0.357227 0
M  V30 14 N -0.384198 2.503677 0.084670 0
M  V30 15 C 0.177204 3.069105 1.295008 0 CFG=1
M  V30 16 C -0.113531 4.546190 1.438714 0
M  V30 17 C -1.576775 4.813571 1.545497 0
M  V30 18 C -2.238596 4.047466 2.655936 0 CFG=1
M  V30 19 N -3.284963 3.203586 2.133349 0
M  V30 20 C -1.179046 3.293513 3.416009 0
M  V30 21 C -0.360302 2.393000 2.535653 0
M  V30 22 C 0.491545 0.247199 0.362659 0
M  V30 23 N 2.467736 -3.906117 1.639014 0
M  V30 24 C 2.753997 -5.207050 1.597697 0
M  V30 25 C 2.285153 -5.994157 0.590614 0
M  V30 26 C 2.602340 -7.424607 0.548374 0
M  V30 27 F 3.280877 -7.679931 -0.630315 0
M  V30 28 F 3.410735 -7.762120 1.614009 0
M  V30 29 F 1.498272 -8.222212 0.590247 0
M  V30 30 H -0.853520 -6.260811 -2.504581 0
M  V30 31 H 0.092346 -4.768607 -2.682096 0
M  V30 32 H 0.620885 -6.268294 -3.508076 0
M  V30 33 H 1.193690 -7.198154 -1.459120 0
M  V30 34 H 1.913095 -1.423757 1.702282 0
M  V30 35 H 0.159075 -2.449311 -1.486612 0
M  V30 36 H -0.947450 3.154742 -0.523833 0
M  V30 37 H 1.271804 2.943114 1.220288 0
M  V30 38 H 0.253849 5.074893 0.534271 0
M  V30 39 H 0.439586 4.894112 2.333234 0
M  V30 40 H -1.691799 5.918880 1.724235 0
M  V30 41 H -2.023115 4.613599 0.555060 0
M  V30 42 H -2.708344 4.740008 3.399138 0
M  V30 43 H -2.868690 2.555287 1.432133 0
M  V30 44 H -3.652905 2.593374 2.910265 0
M  V30 45 H -0.521888 4.021512 3.905393 0
M  V30 46 H -1.720373 2.641079 4.152793 0
M  V30 47 H 0.489879 2.034686 3.150433 0
M  V30 48 H -0.995660 1.511157 2.325192 0
M  V30 49 H 0.945203 0.639117 1.264334 0
M  V30 50 H 3.367045 -5.642863 2.373696 0
M  V30 END ATOM
M  V30 BEGIN BOND
M  V30 1 1 1 2
M  V30 2 1 2 3
M  V30 3 2 3 4
M  V30 4 1 4 5
M  V30 5 1 5 6
M  V30 6 1 6 7
M  V30 7 2 7 8
M  V30 8 1 8 9
M  V30 9 2 9 10
M  V30 10 1 10 11
M  V30 11 3 11 12
M  V30 12 1 10 13
M  V30 13 1 13 14
M  V30 14 1 14 15
M  V30 15 1 15 16
M  V30 16 1 16 17
M  V30 17 1 17 18
M  V30 18 1 18 19
M  V30 19 1 18 20
M  V30 20 1 20 21
M  V30 21 2 13 22
M  V30 22 2 5 23
M  V30 23 1 23 24
M  V30 24 2 24 25
M  V30 25 1 25 26
M  V30 26 1 26 27
M  V30 27 1 26 28
M  V30 28 1 26 29
M  V30 29 1 25 3
M  V30 30 1 22 7
M  V30 31 1 21 15
M  V30 32 1 1 30
M  V30 33 1 1 31
M  V30 34 1 1 32
M  V30 35 1 2 33
M  V30 36 1 6 34
M  V30 37 1 8 35
M  V30 38 1 14 36
M  V30 39 1 15 37 CFG=3
M  V30 40 1 16 38
M  V30 41 1 16 39
M  V30 42 1 17 40
M  V30 43 1 17 41
M  V30 44 1 18 42 CFG=1
M  V30 45 1 19 43
M  V30 46 1 19 44
M  V30 47 1 20 45
M  V30 48 1 20 46
M  V30 49 1 21 47
M  V30 50 1 21 48
M  V30 51 1 22 49
M  V30 52 1 24 50
M  V30 END BOND
M  V30 END CTAB
M  END
>  <Dataset>  (874) 
ChEMBL_Kinases

>  <Ligand_Instance>  (874) 
nan

>  <PDB_ID>  (874) 
nan

>  <Standardized_SMILES>  (874) 
CNc1nc(Nc2cnc(C#N)c(N[C@H]3CC[C@@H](N)CC3)c2)ncc1C(F)(F)F

>  <Name>  (874) 
nan

>  <Pocket>  (874) 
nan

>  <ATP_Site>  (874) 
nan

>  <Peripheral>  (874) 
nan

>  <Num_H_Atoms_ProtBoundConf>  (874) 
nan

>  <Num_Resolved_Atoms>  (874) 
nan

>  <Num_Not_Resolved_Atoms>  (874) 
nan

$$$$
CHEMBL4070115
     RDKit          3D

  0  0  0  0  0  0  0  0  0  0999 V3000
M  V30 BEGIN CTAB
M  V30 COUNTS 92 94 0 0 0
M  V30 BEGIN ATOM
M  V30 1 O 2.771587 -5.049237 10.550670 0
M  V30 2 C 2.956557 -4.605840 9.397100 0
M  V30 3 O 4.344797 -4.694006 9.165779 0
M  V30 4 C 1.739354 -4.135580 8.632975 0
M  V30 5 C 2.099434 -3.671389 7.245686 0 CFG=2
M  V30 6 N 0.994539 -3.196742 6.463036 0
M  V30 7 C 1.256576 -2.048396 5.680586 0
M  V30 8 O 2.451971 -1.568796 5.762968 0
M  V30 9 C 0.606022 -1.139322 4.733997 0 CFG=2
M  V30 10 C 0.895702 0.329868 4.953763 0
M  V30 11 C 0.136269 1.060035 3.876328 0
M  V30 12 O -0.632587 0.708515 2.917364 0
M  V30 13 O 0.152172 2.456449 3.724404 0
M  V30 14 N -0.812719 -1.355923 4.528603 0
M  V30 15 C -1.345741 -2.036570 3.429619 0
M  V30 16 O -0.456766 -2.491302 2.627343 0
M  V30 17 C -2.807965 -2.261165 3.125337 0 CFG=2
M  V30 18 C -3.593311 -2.617338 4.311107 0
M  V30 19 C -5.031109 -2.824993 4.001038 0
M  V30 20 O -5.500572 -2.724500 2.840234 0
M  V30 21 O -5.923351 -3.146470 5.026959 0
M  V30 22 N -2.919715 -3.084121 1.968135 0
M  V30 23 C -2.448179 -2.381026 0.834216 0
M  V30 24 O -1.988848 -1.211331 0.848544 0
M  V30 25 C -2.357088 -2.791865 -0.619000 0
M  V30 26 C -1.374449 -1.864697 -1.275394 0
M  V30 27 C -1.202775 -2.101416 -2.748226 0
M  V30 28 C -0.130413 -1.160128 -3.262747 0
M  V30 29 C 0.067571 -1.248146 -4.761106 0
M  V30 30 C 1.192215 -0.319938 -5.097415 0
M  V30 31 C 1.492370 -0.100759 -6.518921 0
M  V30 32 C 0.473974 0.700691 -7.320198 0
M  V30 33 N 0.456888 2.062415 -6.775574 0
M  V30 34 C 1.474269 2.773701 -7.346015 0
M  V30 35 O 2.289171 2.371616 -8.220757 0
M  V30 36 C 1.759094 4.116547 -7.015544 0
M  V30 37 C 2.774124 4.857981 -7.575940 0
M  V30 38 C 2.942180 6.188547 -7.153238 0
M  V30 39 N 2.115755 6.728496 -6.207855 0
M  V30 40 C 1.125477 5.995480 -5.664684 0
M  V30 41 C 0.943137 4.695965 -6.063273 0
M  V30 42 C -0.079001 3.998174 -5.484897 0
M  V30 43 C -0.937513 4.511750 -4.543637 0
M  V30 44 C -1.992087 3.774563 -3.978656 0
M  V30 45 C -2.133598 2.477376 -4.422524 0
M  V30 46 C -3.219611 1.670978 -3.856225 0
M  V30 47 O -4.019967 2.092849 -2.986908 0
M  V30 48 O -3.398318 0.342524 -4.295125 0
M  V30 49 C -1.297894 1.948459 -5.349088 0
M  V30 50 C -0.281593 2.701274 -5.869301 0
M  V30 51 C 2.624854 -4.882584 6.481617 0
M  V30 52 O 3.581704 -5.617483 6.799409 0
M  V30 53 O 2.184725 -5.454329 5.272260 0
M  V30 54 H 4.803616 -5.599308 9.248427 0
M  V30 55 H 1.074399 -5.023160 8.564958 0
M  V30 56 H 1.252401 -3.385628 9.261931 0
M  V30 57 H 2.943399 -2.979138 7.294266 0
M  V30 58 H 0.010180 -3.447451 6.283916 0
M  V30 59 H 1.085985 -1.384902 3.721415 0
M  V30 60 H 1.970746 0.522840 4.778046 0
M  V30 61 H 0.610213 0.694304 5.937176 0
M  V30 62 H -0.708818 3.011946 3.650767 0
M  V30 63 H -1.523825 -0.995266 5.226811 0
M  V30 64 H -3.104066 -1.196288 2.805009 0
M  V30 65 H -3.175153 -3.506623 4.868005 0
M  V30 66 H -3.533800 -1.787772 5.065962 0
M  V30 67 H -6.703736 -3.788259 4.834815 0
M  V30 68 H -3.241751 -4.041238 1.712861 0
M  V30 69 H -3.339536 -2.837338 -1.076638 0
M  V30 70 H -1.969968 -3.834684 -0.568309 0
M  V30 71 H -1.685082 -0.822692 -1.043109 0
M  V30 72 H -0.376606 -2.024622 -0.802899 0
M  V30 73 H -0.769093 -3.120515 -2.845225 0
M  V30 74 H -2.133141 -2.044978 -3.312335 0
M  V30 75 H 0.842706 -1.369011 -2.788199 0
M  V30 76 H -0.457040 -0.141060 -2.978734 0
M  V30 77 H 0.391573 -2.322152 -5.019489 0
M  V30 78 H -0.870996 -1.136916 -5.264697 0
M  V30 79 H 2.112378 -0.785292 -4.639822 0
M  V30 80 H 1.036154 0.589141 -4.476143 0
M  V30 81 H 2.505839 0.337894 -6.606982 0
M  V30 82 H 1.573541 -1.101878 -7.009560 0
M  V30 83 H 0.821162 0.675951 -8.376584 0
M  V30 84 H -0.484677 0.167077 -7.194168 0
M  V30 85 H 3.398513 4.382907 -8.313236 0
M  V30 86 H 3.738593 6.758124 -7.601219 0
M  V30 87 H 0.561988 6.554815 -4.933924 0
M  V30 88 H -0.856331 5.499830 -4.181314 0
M  V30 89 H -2.650220 4.205935 -3.241841 0
M  V30 90 H -4.335296 -0.051147 -4.155034 0
M  V30 91 H -1.485377 0.948974 -5.662176 0
M  V30 92 H 2.833726 -5.505707 4.473790 0
M  V30 END ATOM
M  V30 BEGIN BOND
M  V30 1 2 1 2
M  V30 2 1 2 3
M  V30 3 1 2 4
M  V30 4 1 4 5
M  V30 5 1 5 6
M  V30 6 1 6 7
M  V30 7 2 7 8
M  V30 8 1 7 9
M  V30 9 1 9 10
M  V30 10 1 10 11
M  V30 11 2 11 12
M  V30 12 1 11 13
M  V30 13 1 9 14
M  V30 14 1 14 15
M  V30 15 2 15 16
M  V30 16 1 15 17
M  V30 17 1 17 18
M  V30 18 1 18 19
M  V30 19 2 19 20
M  V30 20 1 19 21
M  V30 21 1 17 22
M  V30 22 1 22 23
M  V30 23 2 23 24
M  V30 24 1 23 25
M  V30 25 1 25 26
M  V30 26 1 26 27
M  V30 27 1 27 28
M  V30 28 1 28 29
M  V30 29 1 29 30
M  V30 30 1 30 31
M  V30 31 1 31 32
M  V30 32 1 32 33
M  V30 33 1 33 34
M  V30 34 2 34 35
M  V30 35 1 34 36
M  V30 36 2 36 37
M  V30 37 1 37 38
M  V30 38 2 38 39
M  V30 39 1 39 40
M  V30 40 2 40 41
M  V30 41 1 41 42
M  V30 42 2 42 43
M  V30 43 1 43 44
M  V30 44 2 44 45
M  V30 45 1 45 46
M  V30 46 2 46 47
M  V30 47 1 46 48
M  V30 48 1 45 49
M  V30 49 2 49 50
M  V30 50 1 5 51
M  V30 51 2 51 52
M  V30 52 1 51 53
M  V30 53 1 50 33
M  V30 54 1 41 36
M  V30 55 1 50 42
M  V30 56 1 3 54
M  V30 57 1 4 55
M  V30 58 1 4 56
M  V30 59 1 5 57 CFG=1
M  V30 60 1 6 58
M  V30 61 1 9 59 CFG=3
M  V30 62 1 10 60
M  V30 63 1 10 61
M  V30 64 1 13 62
M  V30 65 1 14 63
M  V30 66 1 17 64 CFG=3
M  V30 67 1 18 65
M  V30 68 1 18 66
M  V30 69 1 21 67
M  V30 70 1 22 68
M  V30 71 1 25 69
M  V30 72 1 25 70
M  V30 73 1 26 71
M  V30 74 1 26 72
M  V30 75 1 27 73
M  V30 76 1 27 74
M  V30 77 1 28 75
M  V30 78 1 28 76
M  V30 79 1 29 77
M  V30 80 1 29 78
M  V30 81 1 30 79
M  V30 82 1 30 80
M  V30 83 1 31 81
M  V30 84 1 31 82
M  V30 85 1 32 83
M  V30 86 1 32 84
M  V30 87 1 37 85
M  V30 88 1 38 86
M  V30 89 1 40 87
M  V30 90 1 43 88
M  V30 91 1 44 89
M  V30 92 1 48 90
M  V30 93 1 49 91
M  V30 94 1 53 92
M  V30 END BOND
M  V30 END CTAB
M  END
>  <Dataset>  (875) 
ChEMBL_Kinases

>  <Ligand_Instance>  (875) 
nan

>  <PDB_ID>  (875) 
nan

>  <Standardized_SMILES>  (875) 
O=C(O)C[C@H](NC(=O)[C@H](CC(=O)O)NC(=O)[C@H](CC(=O)O)NC(=O)CCCCCCCCn1c(=O)c2ccncc2c2ccc(C(=O)O)cc21)C(=O)O

>  <Name>  (875) 
nan

>  <Pocket>  (875) 
nan

>  <ATP_Site>  (875) 
nan

>  <Peripheral>  (875) 
nan

>  <Num_H_Atoms_ProtBoundConf>  (875) 
nan

>  <Num_Resolved_Atoms>  (875) 
nan

>  <Num_Not_Resolved_Atoms>  (875) 
nan

$$$$
CHEMBL4070112
     RDKit          3D

  0  0  0  0  0  0  0  0  0  0999 V3000
M  V30 BEGIN CTAB
M  V30 COUNTS 45 47 0 0 0
M  V30 BEGIN ATOM
M  V30 1 C -1.677624 -5.333167 1.650397 0
M  V30 2 N -0.920459 -5.577979 0.421185 0
M  V30 3 C -1.528709 -5.251102 -0.830086 0
M  V30 4 C -1.274388 -3.961394 -1.242082 0
M  V30 5 C -1.799626 -3.508622 -2.434403 0
M  V30 6 O -1.692099 -2.274915 -3.059871 0
M  V30 7 C -1.001119 -1.191544 -2.596588 0
M  V30 8 C -1.638078 0.019829 -2.330991 0
M  V30 9 C -0.953988 1.127445 -1.861412 0
M  V30 10 C 0.407009 1.028638 -1.648741 0
M  V30 11 N 1.189192 2.141905 -1.159642 0
M  V30 12 C 1.300752 2.228709 0.267953 0
M  V30 13 O 0.688369 1.303222 0.901673 0
M  V30 14 N 1.996932 3.202042 1.034030 0
M  V30 15 C 1.951249 3.059365 2.471141 0
M  V30 16 C 3.001736 2.278489 2.923493 0
M  V30 17 C 3.143975 2.015370 4.281242 0
M  V30 18 C 2.203175 2.561291 5.139989 0
M  V30 19 C 2.329690 2.297145 6.595161 0
M  V30 20 C 1.163888 3.334755 4.685035 0
M  V30 21 C 1.022325 3.596037 3.338539 0
M  V30 22 C 1.075959 -0.166022 -1.903407 0
M  V30 23 C 0.358647 -1.235020 -2.366842 0
M  V30 24 F 1.079896 -2.357385 -2.590544 0
M  V30 25 N -2.562364 -4.372307 -3.168432 0
M  V30 26 C -2.779598 -5.631528 -2.713171 0
M  V30 27 N -2.279833 -6.098710 -1.554892 0
M  V30 28 H -1.124482 -5.761491 2.500028 0
M  V30 29 H -1.790190 -4.261894 1.859114 0
M  V30 30 H -2.700784 -5.766026 1.588491 0
M  V30 31 H 0.049656 -5.986734 0.480987 0
M  V30 32 H -0.691444 -3.205655 -0.742714 0
M  V30 33 H -2.712645 0.098782 -2.498624 0
M  V30 34 H -1.441516 2.068934 -1.653634 0
M  V30 35 H 1.698165 2.910186 -1.669022 0
M  V30 36 H 2.479738 3.935997 0.452499 0
M  V30 37 H 3.771468 1.820535 2.314007 0
M  V30 38 H 3.937225 1.414477 4.715461 0
M  V30 39 H 1.791280 3.064003 7.183058 0
M  V30 40 H 3.411626 2.313056 6.875775 0
M  V30 41 H 1.937480 1.323776 6.911065 0
M  V30 42 H 0.403893 3.782219 5.325731 0
M  V30 43 H 0.259417 4.183217 2.844506 0
M  V30 44 H 2.135778 -0.201108 -1.724667 0
M  V30 45 H -3.390739 -6.339825 -3.290649 0
M  V30 END ATOM
M  V30 BEGIN BOND
M  V30 1 1 1 2
M  V30 2 1 2 3
M  V30 3 2 3 4
M  V30 4 1 4 5
M  V30 5 1 5 6
M  V30 6 1 6 7
M  V30 7 2 7 8
M  V30 8 1 8 9
M  V30 9 2 9 10
M  V30 10 1 10 11
M  V30 11 1 11 12
M  V30 12 2 12 13
M  V30 13 1 12 14
M  V30 14 1 14 15
M  V30 15 2 15 16
M  V30 16 1 16 17
M  V30 17 2 17 18
M  V30 18 1 18 19
M  V30 19 1 18 20
M  V30 20 2 20 21
M  V30 21 1 10 22
M  V30 22 2 22 23
M  V30 23 1 23 24
M  V30 24 2 5 25
M  V30 25 1 25 26
M  V30 26 2 26 27
M  V30 27 1 27 3
M  V30 28 1 23 7
M  V30 29 1 21 15
M  V30 30 1 1 28
M  V30 31 1 1 29
M  V30 32 1 1 30
M  V30 33 1 2 31
M  V30 34 1 4 32
M  V30 35 1 8 33
M  V30 36 1 9 34
M  V30 37 1 11 35
M  V30 38 1 14 36
M  V30 39 1 16 37
M  V30 40 1 17 38
M  V30 41 1 19 39
M  V30 42 1 19 40
M  V30 43 1 19 41
M  V30 44 1 20 42
M  V30 45 1 21 43
M  V30 46 1 22 44
M  V30 47 1 26 45
M  V30 END BOND
M  V30 END CTAB
M  END
>  <Dataset>  (876) 
ChEMBL_Kinases

>  <Ligand_Instance>  (876) 
nan

>  <PDB_ID>  (876) 
nan

>  <Standardized_SMILES>  (876) 
CNc1cc(Oc2ccc(NC(=O)Nc3ccc(C)cc3)cc2F)ncn1

>  <Name>  (876) 
nan

>  <Pocket>  (876) 
nan

>  <ATP_Site>  (876) 
nan

>  <Peripheral>  (876) 
nan

>  <Num_H_Atoms_ProtBoundConf>  (876) 
nan

>  <Num_Resolved_Atoms>  (876) 
nan

>  <Num_Not_Resolved_Atoms>  (876) 
nan

$$$$
CHEMBL4860629
     RDKit          3D

  0  0  0  0  0  0  0  0  0  0999 V3000
M  V30 BEGIN CTAB
M  V30 COUNTS 51 54 0 0 0
M  V30 BEGIN ATOM
M  V30 1 C 0.148968 -3.459713 5.267916 0
M  V30 2 C 1.127644 -3.366027 4.089712 0
M  V30 3 S 2.489959 -2.388444 4.681742 0
M  V30 4 O 3.081959 -3.129908 5.865125 0
M  V30 5 O 2.011500 -1.058274 5.177093 0
M  V30 6 N 3.697431 -2.174821 3.484885 0
M  V30 7 C 3.329863 -1.493430 2.278276 0
M  V30 8 C 3.804186 -2.129261 1.143278 0
M  V30 9 C 3.511542 -1.561696 -0.094484 0
M  V30 10 C 2.768143 -0.400360 -0.137914 0
M  V30 11 C 2.292363 0.238218 0.991773 0
M  V30 12 C 1.507164 1.467043 0.920818 0
M  V30 13 N 1.673317 2.573940 1.692342 0
M  V30 14 N 0.805534 3.510369 1.380607 0
M  V30 15 C 0.000070 3.081594 0.372915 0
M  V30 16 C -1.055357 3.620854 -0.338079 0
M  V30 17 C -1.676347 2.893216 -1.334704 0
M  V30 18 C -1.238053 1.608496 -1.626511 0
M  V30 19 C -1.827226 0.766911 -2.655746 0
M  V30 20 N -1.854245 1.024197 -3.975989 0
M  V30 21 N -2.482065 0.001937 -4.532976 0
M  V30 22 C -2.836795 -0.871835 -3.573393 0
M  V30 23 N -2.430104 -0.402582 -2.382395 0
M  V30 24 C -2.663009 -1.118117 -1.142060 0
M  V30 25 C -4.148223 -1.192791 -0.794943 0
M  V30 26 C -2.124982 -2.526996 -1.306623 0
M  V30 27 C -0.173955 1.080338 -0.901084 0
M  V30 28 C 0.452073 1.799710 0.095784 0
M  V30 29 C 2.585414 -0.328632 2.214672 0
M  V30 30 H 0.181071 -2.479774 5.774113 0
M  V30 31 H -0.887743 -3.597497 4.889213 0
M  V30 32 H 0.495173 -4.258845 5.927421 0
M  V30 33 H 0.606432 -2.879640 3.250348 0
M  V30 34 H 1.423810 -4.403247 3.876778 0
M  V30 35 H 4.666404 -2.529256 3.631178 0
M  V30 36 H 4.387507 -3.036361 1.131370 0
M  V30 37 H 3.862302 -2.024922 -1.010651 0
M  V30 38 H 2.570354 -0.003829 -1.117169 0
M  V30 39 H 0.725680 4.458887 1.829173 0
M  V30 40 H -1.387085 4.635583 -0.093763 0
M  V30 41 H -2.508888 3.300654 -1.905477 0
M  V30 42 H -3.369253 -1.794174 -3.807614 0
M  V30 43 H -2.174519 -0.599744 -0.278912 0
M  V30 44 H -4.597079 -2.141605 -1.118019 0
M  V30 45 H -4.644533 -0.321037 -1.300592 0
M  V30 46 H -4.302349 -1.103066 0.318949 0
M  V30 47 H -2.914132 -3.105424 -1.838628 0
M  V30 48 H -1.854609 -2.983169 -0.333576 0
M  V30 49 H -1.243546 -2.497197 -1.986464 0
M  V30 50 H 0.171431 0.086434 -1.120807 0
M  V30 51 H 2.264510 0.086591 3.147755 0
M  V30 END ATOM
M  V30 BEGIN BOND
M  V30 1 1 1 2
M  V30 2 1 2 3
M  V30 3 2 3 4
M  V30 4 2 3 5
M  V30 5 1 3 6
M  V30 6 1 6 7
M  V30 7 2 7 8
M  V30 8 1 8 9
M  V30 9 2 9 10
M  V30 10 1 10 11
M  V30 11 1 11 12
M  V30 12 2 12 13
M  V30 13 1 13 14
M  V30 14 1 14 15
M  V30 15 2 15 16
M  V30 16 1 16 17
M  V30 17 2 17 18
M  V30 18 1 18 19
M  V30 19 2 19 20
M  V30 20 1 20 21
M  V30 21 2 21 22
M  V30 22 1 22 23
M  V30 23 1 23 24
M  V30 24 1 24 25
M  V30 25 1 24 26
M  V30 26 1 18 27
M  V30 27 2 27 28
M  V30 28 2 11 29
M  V30 29 1 29 7
M  V30 30 1 28 12
M  V30 31 1 28 15
M  V30 32 1 23 19
M  V30 33 1 1 30
M  V30 34 1 1 31
M  V30 35 1 1 32
M  V30 36 1 2 33
M  V30 37 1 2 34
M  V30 38 1 6 35
M  V30 39 1 8 36
M  V30 40 1 9 37
M  V30 41 1 10 38
M  V30 42 1 14 39
M  V30 43 1 16 40
M  V30 44 1 17 41
M  V30 45 1 22 42
M  V30 46 1 24 43
M  V30 47 1 25 44
M  V30 48 1 25 45
M  V30 49 1 25 46
M  V30 50 1 26 47
M  V30 51 1 26 48
M  V30 52 1 26 49
M  V30 53 1 27 50
M  V30 54 1 29 51
M  V30 END BOND
M  V30 END CTAB
M  END
>  <Dataset>  (877) 
ChEMBL_Kinases

>  <Ligand_Instance>  (877) 
nan

>  <PDB_ID>  (877) 
nan

>  <Standardized_SMILES>  (877) 
CCS(=O)(=O)Nc1cccc(-c2n[nH]c3ccc(-c4nncn4C(C)C)cc23)c1

>  <Name>  (877) 
nan

>  <Pocket>  (877) 
nan

>  <ATP_Site>  (877) 
nan

>  <Peripheral>  (877) 
nan

>  <Num_H_Atoms_ProtBoundConf>  (877) 
nan

>  <Num_Resolved_Atoms>  (877) 
nan

>  <Num_Not_Resolved_Atoms>  (877) 
nan

$$$$
CHEMBL4860630
     RDKit          3D

  0  0  0  0  0  0  0  0  0  0999 V3000
M  V30 BEGIN CTAB
M  V30 COUNTS 45 48 0 0 0
M  V30 BEGIN ATOM
M  V30 1 O 3.365358 -4.489180 1.129375 0
M  V30 2 C 2.396505 -3.724822 1.378672 0
M  V30 3 N 1.551915 -4.116079 2.443429 0
M  V30 4 C 1.866314 -5.359642 3.159760 0
M  V30 5 C 0.789194 -5.506435 4.237186 0
M  V30 6 O 0.868666 -4.404469 5.055548 0
M  V30 7 C 2.220751 -2.521057 0.569787 0
M  V30 8 C 3.150443 -2.303350 -0.434216 0
M  V30 9 C 2.987438 -1.152025 -1.214742 0
M  V30 10 C 1.950683 -0.279654 -0.991938 0
M  V30 11 C 1.042662 -0.522302 0.012933 0
M  V30 12 C 1.174767 -1.650126 0.802184 0
M  V30 13 N 0.035338 0.334642 0.219817 0
M  V30 14 C -0.206108 1.455285 -0.468004 0
M  V30 15 N -1.274378 2.350909 -0.236655 0
M  V30 16 C -2.256965 2.267994 0.774708 0
M  V30 17 C -2.185153 1.395093 1.836217 0
M  V30 18 C -3.127783 1.282386 2.830862 0
M  V30 19 C -4.246104 2.086798 2.800372 0
M  V30 20 C -4.370658 2.976878 1.764404 0
M  V30 21 Cl -5.766211 4.029994 1.663509 0
M  V30 22 C -3.393975 3.042425 0.800100 0
M  V30 23 C 0.700080 1.699933 -1.472438 0
M  V30 24 C 0.638971 2.797099 -2.300663 0
M  V30 25 C 1.512080 3.105652 -3.326518 0
M  V30 26 N 2.518033 2.229461 -3.517267 0
M  V30 27 C 2.655606 1.124537 -2.750558 0
M  V30 28 C 1.760610 0.859736 -1.740465 0
M  V30 29 H 0.738709 -3.509180 2.681292 0
M  V30 30 H 1.843816 -6.205941 2.458156 0
M  V30 31 H 2.832763 -5.332273 3.660707 0
M  V30 32 H 0.786334 -6.479229 4.724473 0
M  V30 33 H -0.207773 -5.431059 3.712074 0
M  V30 34 H -0.000785 -3.995997 5.299355 0
M  V30 35 H 3.986724 -2.994106 -0.624716 0
M  V30 36 H 3.719178 -1.022847 -1.970422 0
M  V30 37 H 0.448387 -1.818252 1.585024 0
M  V30 38 H -1.429203 3.189367 -0.826129 0
M  V30 39 H -1.370384 0.714159 1.989740 0
M  V30 40 H -3.071756 0.604606 3.655630 0
M  V30 41 H -5.042327 2.079629 3.527386 0
M  V30 42 H -3.544536 3.768891 -0.001719 0
M  V30 43 H -0.143570 3.521532 -2.184994 0
M  V30 44 H 1.416088 3.982099 -3.946027 0
M  V30 45 H 3.509089 0.545915 -3.045085 0
M  V30 END ATOM
M  V30 BEGIN BOND
M  V30 1 2 1 2
M  V30 2 1 2 3
M  V30 3 1 3 4
M  V30 4 1 4 5
M  V30 5 1 5 6
M  V30 6 1 2 7
M  V30 7 2 7 8
M  V30 8 1 8 9
M  V30 9 2 9 10
M  V30 10 1 10 11
M  V30 11 2 11 12
M  V30 12 1 11 13
M  V30 13 2 13 14
M  V30 14 1 14 15
M  V30 15 1 15 16
M  V30 16 2 16 17
M  V30 17 1 17 18
M  V30 18 2 18 19
M  V30 19 1 19 20
M  V30 20 1 20 21
M  V30 21 2 20 22
M  V30 22 1 14 23
M  V30 23 2 23 24
M  V30 24 1 24 25
M  V30 25 2 25 26
M  V30 26 1 26 27
M  V30 27 2 27 28
M  V30 28 1 12 7
M  V30 29 1 22 16
M  V30 30 1 28 23
M  V30 31 1 28 10
M  V30 32 1 3 29
M  V30 33 1 4 30
M  V30 34 1 4 31
M  V30 35 1 5 32
M  V30 36 1 5 33
M  V30 37 1 6 34
M  V30 38 1 8 35
M  V30 39 1 9 36
M  V30 40 1 12 37
M  V30 41 1 15 38
M  V30 42 1 17 39
M  V30 43 1 18 40
M  V30 44 1 19 41
M  V30 45 1 22 42
M  V30 46 1 24 43
M  V30 47 1 25 44
M  V30 48 1 27 45
M  V30 END BOND
M  V30 END CTAB
M  END
>  <Dataset>  (878) 
ChEMBL_Kinases

>  <Ligand_Instance>  (878) 
nan

>  <PDB_ID>  (878) 
nan

>  <Standardized_SMILES>  (878) 
O=C(NCCO)c1ccc2c(c1)nc(Nc1cccc(Cl)c1)c1ccncc12

>  <Name>  (878) 
nan

>  <Pocket>  (878) 
nan

>  <ATP_Site>  (878) 
nan

>  <Peripheral>  (878) 
nan

>  <Num_H_Atoms_ProtBoundConf>  (878) 
nan

>  <Num_Resolved_Atoms>  (878) 
nan

>  <Num_Not_Resolved_Atoms>  (878) 
nan

$$$$
CHEMBL4860645
     RDKit          3D

  0  0  0  0  0  0  0  0  0  0999 V3000
M  V30 BEGIN CTAB
M  V30 COUNTS 65 69 0 0 0
M  V30 BEGIN ATOM
M  V30 1 C 2.346379 -1.401095 5.358970 0
M  V30 2 O 2.201141 -1.147283 3.982592 0
M  V30 3 C 1.599562 -0.009173 3.507035 0
M  V30 4 C 1.064602 1.028460 4.230671 0
M  V30 5 C 0.480910 2.133514 3.680501 0
M  V30 6 C 0.428006 2.206469 2.304749 0
M  V30 7 C 0.955538 1.182811 1.562678 0
M  V30 8 C 1.551741 0.052868 2.106925 0
M  V30 9 N 2.061090 -0.972202 1.220808 0
M  V30 10 C 1.917368 -0.735279 -0.184135 0
M  V30 11 N 2.758172 -0.297097 -1.138087 0
M  V30 12 C 2.395272 -0.119403 -2.406562 0
M  V30 13 C 1.090693 -0.406895 -2.725980 0
M  V30 14 C 0.673670 -0.230139 -4.094028 0
M  V30 15 N 1.549087 0.230319 -5.115769 0
M  V30 16 O -0.339326 -0.357744 -4.813328 0
M  V30 17 C 0.175638 -0.857780 -1.804925 0
M  V30 18 N -1.203929 -1.109599 -2.114336 0
M  V30 19 C -1.991024 -1.764807 -1.133198 0
M  V30 20 C -3.028314 -1.087495 -0.527223 0
M  V30 21 C -3.829882 -1.706121 0.418739 0
M  V30 22 C -3.514240 -3.000003 0.688244 0
M  V30 23 C -2.486633 -3.696174 0.097577 0
M  V30 24 C -1.676836 -3.088777 -0.850993 0
M  V30 25 C -0.642340 -3.924204 -1.445488 0
M  V30 26 C -1.161995 -4.671290 -2.691854 0
M  V30 27 C -0.044760 -5.682124 -2.845957 0
M  V30 28 C 0.274111 -5.961674 -1.407320 0
M  V30 29 O -0.310422 -4.993517 -0.625346 0
M  V30 30 N 0.636001 -1.006537 -0.548886 0
M  V30 31 C -0.225678 3.436816 1.760502 0
M  V30 32 N -1.513505 3.595242 2.432229 0
M  V30 33 C -2.194799 4.715227 1.846004 0
M  V30 34 C -1.379615 3.779082 3.842414 0
M  V30 35 C -0.106178 3.265987 4.430199 0
M  V30 36 H 1.566035 -2.149360 5.698745 0
M  V30 37 H 3.310917 -1.937347 5.580650 0
M  V30 38 H 2.251235 -0.532688 6.011360 0
M  V30 39 H 1.110757 0.961889 5.304177 0
M  V30 40 H 0.885217 1.295265 0.472322 0
M  V30 41 H 2.486517 -1.791071 1.713661 0
M  V30 42 H 3.149721 0.233996 -3.082289 0
M  V30 43 H 1.572638 1.005130 -5.813334 0
M  V30 44 H 2.375857 -0.437785 -5.114789 0
M  V30 45 H -1.687694 -0.854529 -2.994125 0
M  V30 46 H -3.235666 -0.048973 -0.783135 0
M  V30 47 H -4.636809 -1.179977 0.892208 0
M  V30 48 H -4.137567 -3.500308 1.434925 0
M  V30 49 H -2.342508 -4.733949 0.409811 0
M  V30 50 H 0.207352 -3.359148 -1.804659 0
M  V30 51 H -2.086273 -5.224631 -2.490568 0
M  V30 52 H -1.211747 -3.977225 -3.556549 0
M  V30 53 H -0.313123 -6.571781 -3.422393 0
M  V30 54 H 0.811060 -5.120347 -3.274503 0
M  V30 55 H -0.113775 -7.002022 -1.195767 0
M  V30 56 H 1.378297 -5.935076 -1.208919 0
M  V30 57 H 0.360100 4.346213 1.882324 0
M  V30 58 H -0.498828 3.251800 0.680877 0
M  V30 59 H -3.227734 4.824821 2.217190 0
M  V30 60 H -2.198497 4.559836 0.730214 0
M  V30 61 H -1.662355 5.680284 2.026914 0
M  V30 62 H -2.227911 3.219860 4.315079 0
M  V30 63 H -1.543694 4.852782 4.092736 0
M  V30 64 H 0.663126 4.088987 4.381284 0
M  V30 65 H -0.195218 3.027166 5.503920 0
M  V30 END ATOM
M  V30 BEGIN BOND
M  V30 1 1 1 2
M  V30 2 1 2 3
M  V30 3 2 3 4
M  V30 4 1 4 5
M  V30 5 2 5 6
M  V30 6 1 6 7
M  V30 7 2 7 8
M  V30 8 1 8 9
M  V30 9 1 9 10
M  V30 10 2 10 11
M  V30 11 1 11 12
M  V30 12 2 12 13
M  V30 13 1 13 14
M  V30 14 1 14 15
M  V30 15 2 14 16
M  V30 16 1 13 17
M  V30 17 1 17 18
M  V30 18 1 18 19
M  V30 19 2 19 20
M  V30 20 1 20 21
M  V30 21 2 21 22
M  V30 22 1 22 23
M  V30 23 2 23 24
M  V30 24 1 24 25
M  V30 25 1 25 26
M  V30 26 1 26 27
M  V30 27 1 27 28
M  V30 28 1 28 29
M  V30 29 2 17 30
M  V30 30 1 6 31
M  V30 31 1 31 32
M  V30 32 1 32 33
M  V30 33 1 32 34
M  V30 34 1 34 35
M  V30 35 1 8 3
M  V30 36 1 30 10
M  V30 37 1 35 5
M  V30 38 1 24 19
M  V30 39 1 29 25
M  V30 40 1 1 36
M  V30 41 1 1 37
M  V30 42 1 1 38
M  V30 43 1 4 39
M  V30 44 1 7 40
M  V30 45 1 9 41
M  V30 46 1 12 42
M  V30 47 1 15 43
M  V30 48 1 15 44
M  V30 49 1 18 45
M  V30 50 1 20 46
M  V30 51 1 21 47
M  V30 52 1 22 48
M  V30 53 1 23 49
M  V30 54 1 25 50
M  V30 55 1 26 51
M  V30 56 1 26 52
M  V30 57 1 27 53
M  V30 58 1 27 54
M  V30 59 1 28 55
M  V30 60 1 28 56
M  V30 61 1 31 57
M  V30 62 1 31 58
M  V30 63 1 33 59
M  V30 64 1 33 60
M  V30 65 1 33 61
M  V30 66 1 34 62
M  V30 67 1 34 63
M  V30 68 1 35 64
M  V30 69 1 35 65
M  V30 END BOND
M  V30 END CTAB
M  END
>  <Dataset>  (879) 
ChEMBL_Kinases

>  <Ligand_Instance>  (879) 
nan

>  <PDB_ID>  (879) 
nan

>  <Standardized_SMILES>  (879) 
COc1cc2c(cc1Nc1ncc(C(N)=O)c(Nc3ccccc3C3CCCO3)n1)CN(C)CC2

>  <Name>  (879) 
nan

>  <Pocket>  (879) 
nan

>  <ATP_Site>  (879) 
nan

>  <Peripheral>  (879) 
nan

>  <Num_H_Atoms_ProtBoundConf>  (879) 
nan

>  <Num_Resolved_Atoms>  (879) 
nan

>  <Num_Not_Resolved_Atoms>  (879) 
nan

$$$$
CHEMBL4069868
     RDKit          3D

  0  0  0  0  0  0  0  0  0  0999 V3000
M  V30 BEGIN CTAB
M  V30 COUNTS 28 31 0 0 0
M  V30 BEGIN ATOM
M  V30 1 O -0.341821 -4.437494 2.839920 0
M  V30 2 C -0.084915 -3.213075 3.029415 0
M  V30 3 N -0.287590 -2.489577 4.239173 0
M  V30 4 C 0.133926 -1.144105 4.016268 0
M  V30 5 S 0.101098 0.070399 5.095027 0
M  V30 6 N 0.601209 -1.022072 2.667322 0
M  V30 7 C 1.133033 0.065294 1.895166 0
M  V30 8 O 0.734970 1.229980 2.215024 0
M  V30 9 C 2.089991 -0.276312 0.805550 0
M  V30 10 N 2.136811 0.807655 -0.189172 0
M  V30 11 C 0.795532 0.822480 -0.721598 0
M  V30 12 C -0.040811 1.803509 -1.262909 0
M  V30 13 C -1.312044 1.496820 -1.698439 0
M  V30 14 C -1.803715 0.193392 -1.611680 0
M  V30 15 C -0.970361 -0.769612 -1.075431 0
M  V30 16 C 0.309399 -0.488095 -0.631116 0
M  V30 17 C 1.384715 -1.348391 -0.021543 0
M  V30 18 C 0.845365 -2.447433 0.764585 0
M  V30 19 C 0.475075 -2.303446 2.027031 0
M  V30 20 H -0.681251 -2.915296 5.115776 0
M  V30 21 H 3.073976 -0.585699 1.152841 0
M  V30 22 H 2.840222 1.494317 -0.558803 0
M  V30 23 H 0.349374 2.819589 -1.327807 0
M  V30 24 H -1.917585 2.301736 -2.110754 0
M  V30 25 H -2.808381 -0.050186 -1.955627 0
M  V30 26 H -1.350135 -1.791881 -1.005063 0
M  V30 27 H 2.041678 -1.663955 -0.850692 0
M  V30 28 H 0.757839 -3.411530 0.260144 0
M  V30 END ATOM
M  V30 BEGIN BOND
M  V30 1 2 1 2
M  V30 2 1 2 3
M  V30 3 1 3 4
M  V30 4 2 4 5
M  V30 5 1 4 6
M  V30 6 1 6 7
M  V30 7 2 7 8
M  V30 8 1 7 9
M  V30 9 1 9 10
M  V30 10 1 10 11
M  V30 11 2 11 12
M  V30 12 1 12 13
M  V30 13 2 13 14
M  V30 14 1 14 15
M  V30 15 2 15 16
M  V30 16 1 16 17
M  V30 17 1 17 18
M  V30 18 2 18 19
M  V30 19 1 19 2
M  V30 20 1 19 6
M  V30 21 1 17 9
M  V30 22 1 16 11
M  V30 23 1 3 20
M  V30 24 1 9 21
M  V30 25 1 10 22
M  V30 26 1 12 23
M  V30 27 1 13 24
M  V30 28 1 14 25
M  V30 29 1 15 26
M  V30 30 1 17 27
M  V30 31 1 18 28
M  V30 END BOND
M  V30 END CTAB
M  END
>  <Dataset>  (880) 
ChEMBL_Kinases

>  <Ligand_Instance>  (880) 
nan

>  <PDB_ID>  (880) 
nan

>  <Standardized_SMILES>  (880) 
O=C1NC(=S)N2C(=O)C3Nc4ccccc4C3C=C12

>  <Name>  (880) 
nan

>  <Pocket>  (880) 
nan

>  <ATP_Site>  (880) 
nan

>  <Peripheral>  (880) 
nan

>  <Num_H_Atoms_ProtBoundConf>  (880) 
nan

>  <Num_Resolved_Atoms>  (880) 
nan

>  <Num_Not_Resolved_Atoms>  (880) 
nan

$$$$
CHEMBL4069854
     RDKit          3D

  0  0  0  0  0  0  0  0  0  0999 V3000
M  V30 BEGIN CTAB
M  V30 COUNTS 27 29 0 0 0
M  V30 BEGIN ATOM
M  V30 1 C -0.300751 -3.514165 -2.135944 0
M  V30 2 O 0.408530 -3.417658 -0.973923 0
M  V30 3 C 0.517753 -2.389119 -0.113137 0
M  V30 4 S 1.585107 -2.935676 1.174041 0
M  V30 5 C 1.579477 -1.480140 2.144057 0
M  V30 6 C 2.289159 -1.247431 3.400748 0
M  V30 7 N 2.165877 0.000855 4.048051 0
M  V30 8 O 2.971658 -2.217634 3.807305 0
M  V30 9 C 0.733489 -0.627104 1.406134 0
M  V30 10 C 0.229165 -1.161580 0.264766 0
M  V30 11 C -0.691736 -0.293107 -0.584469 0
M  V30 12 S -1.520359 -0.550855 -2.042021 0
M  V30 13 N -2.281838 1.158300 -2.080170 0
M  V30 14 C -1.795619 1.682794 -0.975367 0
M  V30 15 C -0.965686 0.949035 -0.178844 0
M  V30 16 C -0.444022 1.572161 1.044644 0
M  V30 17 C 0.429582 0.736172 1.853435 0
M  V30 18 H -0.206325 -4.580504 -2.557502 0
M  V30 19 H 0.003350 -2.813119 -2.963844 0
M  V30 20 H -1.414613 -3.425395 -2.036907 0
M  V30 21 H 1.636657 0.612016 4.706520 0
M  V30 22 H 2.905597 0.714836 3.828390 0
M  V30 23 H -2.239079 2.658385 -1.010803 0
M  V30 24 H 0.084408 2.548613 0.809028 0
M  V30 25 H -1.291627 1.950519 1.699047 0
M  V30 26 H 1.418013 1.264610 2.027960 0
M  V30 27 H 0.039493 0.660829 2.917037 0
M  V30 END ATOM
M  V30 BEGIN BOND
M  V30 1 1 1 2
M  V30 2 1 2 3
M  V30 3 1 3 4
M  V30 4 1 4 5
M  V30 5 1 5 6
M  V30 6 1 6 7
M  V30 7 2 6 8
M  V30 8 2 5 9
M  V30 9 1 9 10
M  V30 10 1 10 11
M  V30 11 1 11 12
M  V30 12 1 12 13
M  V30 13 2 13 14
M  V30 14 1 14 15
M  V30 15 1 15 16
M  V30 16 1 16 17
M  V30 17 2 10 3
M  V30 18 2 15 11
M  V30 19 1 17 9
M  V30 20 1 1 18
M  V30 21 1 1 19
M  V30 22 1 1 20
M  V30 23 1 7 21
M  V30 24 1 7 22
M  V30 25 1 14 23
M  V30 26 1 16 24
M  V30 27 1 16 25
M  V30 28 1 17 26
M  V30 29 1 17 27
M  V30 END BOND
M  V30 END CTAB
M  END
>  <Dataset>  (881) 
ChEMBL_Kinases

>  <Ligand_Instance>  (881) 
nan

>  <PDB_ID>  (881) 
nan

>  <Standardized_SMILES>  (881) 
COc1sc(C(N)=O)c2c1-c1sncc1CC2

>  <Name>  (881) 
nan

>  <Pocket>  (881) 
nan

>  <ATP_Site>  (881) 
nan

>  <Peripheral>  (881) 
nan

>  <Num_H_Atoms_ProtBoundConf>  (881) 
nan

>  <Num_Resolved_Atoms>  (881) 
nan

>  <Num_Not_Resolved_Atoms>  (881) 
nan

$$$$
CHEMBL4860677
     RDKit          3D

  0  0  0  0  0  0  0  0  0  0999 V3000
M  V30 BEGIN CTAB
M  V30 COUNTS 36 38 0 0 0
M  V30 BEGIN ATOM
M  V30 1 C -2.050378 -3.944840 1.159870 0
M  V30 2 S -0.449361 -4.303943 1.812936 0
M  V30 3 C 0.725673 -3.019189 1.869134 0
M  V30 4 C 1.918054 -3.483314 2.429986 0
M  V30 5 C 3.047639 -2.683611 2.621322 0
M  V30 6 C 3.008343 -1.339602 2.238179 0
M  V30 7 C 1.817574 -0.910837 1.686796 0
M  V30 8 C 0.703786 -1.694618 1.496209 0
M  V30 9 N -0.501348 -1.272795 0.921852 0
M  V30 10 C -0.376754 -1.073593 -0.492362 0
M  V30 11 C -0.303233 0.203594 -0.875595 0
M  V30 12 C -0.316333 1.511904 -0.208258 0
M  V30 13 C -1.216411 1.981137 0.734261 0
M  V30 14 C -1.037106 3.239078 1.251247 0
M  V30 15 C -0.016393 4.079472 0.897952 0
M  V30 16 C 0.925827 3.661340 -0.051037 0
M  V30 17 C 0.730144 2.386260 -0.563729 0
M  V30 18 Cl 2.004200 1.932253 -1.714101 0
M  V30 19 C -0.204541 0.190318 -2.354685 0
M  V30 20 O -0.119177 1.070361 -3.256781 0
M  V30 21 N -0.219374 -1.151588 -2.811640 0
M  V30 22 C -0.327773 -1.961108 -1.644982 0
M  V30 23 O -0.374889 -3.210097 -1.553504 0
M  V30 24 H -2.341892 -4.832824 0.509715 0
M  V30 25 H -2.871544 -3.958592 1.940027 0
M  V30 26 H -2.153993 -3.090602 0.485548 0
M  V30 27 H 2.157497 -4.488026 2.793079 0
M  V30 28 H 3.987727 -2.978661 3.043441 0
M  V30 29 H 3.761578 -0.577884 2.302585 0
M  V30 30 H 1.674139 0.116851 1.352449 0
M  V30 31 H -1.263718 -1.181631 1.622606 0
M  V30 32 H -2.000901 1.277433 0.975610 0
M  V30 33 H -1.771118 3.564075 1.988929 0
M  V30 34 H 0.102151 5.067412 1.317285 0
M  V30 35 H 1.731799 4.313449 -0.339252 0
M  V30 36 H -0.166229 -1.564449 -3.790109 0
M  V30 END ATOM
M  V30 BEGIN BOND
M  V30 1 1 1 2
M  V30 2 1 2 3
M  V30 3 2 3 4
M  V30 4 1 4 5
M  V30 5 2 5 6
M  V30 6 1 6 7
M  V30 7 2 7 8
M  V30 8 1 8 9
M  V30 9 1 9 10
M  V30 10 2 10 11
M  V30 11 1 11 12
M  V30 12 2 12 13
M  V30 13 1 13 14
M  V30 14 2 14 15
M  V30 15 1 15 16
M  V30 16 2 16 17
M  V30 17 1 17 18
M  V30 18 1 11 19
M  V30 19 2 19 20
M  V30 20 1 19 21
M  V30 21 1 21 22
M  V30 22 2 22 23
M  V30 23 1 8 3
M  V30 24 1 22 10
M  V30 25 1 17 12
M  V30 26 1 1 24
M  V30 27 1 1 25
M  V30 28 1 1 26
M  V30 29 1 4 27
M  V30 30 1 5 28
M  V30 31 1 6 29
M  V30 32 1 7 30
M  V30 33 1 9 31
M  V30 34 1 13 32
M  V30 35 1 14 33
M  V30 36 1 15 34
M  V30 37 1 16 35
M  V30 38 1 21 36
M  V30 END BOND
M  V30 END CTAB
M  END
>  <Dataset>  (882) 
ChEMBL_Kinases

>  <Ligand_Instance>  (882) 
nan

>  <PDB_ID>  (882) 
nan

>  <Standardized_SMILES>  (882) 
CSc1ccccc1NC1=C(c2ccccc2Cl)C(=O)NC1=O

>  <Name>  (882) 
nan

>  <Pocket>  (882) 
nan

>  <ATP_Site>  (882) 
nan

>  <Peripheral>  (882) 
nan

>  <Num_H_Atoms_ProtBoundConf>  (882) 
nan

>  <Num_Resolved_Atoms>  (882) 
nan

>  <Num_Not_Resolved_Atoms>  (882) 
nan

$$$$
CHEMBL4069785
     RDKit          3D

  0  0  0  0  0  0  0  0  0  0999 V3000
M  V30 BEGIN CTAB
M  V30 COUNTS 47 50 0 0 0
M  V30 BEGIN ATOM
M  V30 1 C 1.190825 -4.000271 2.285690 0
M  V30 2 N 0.040627 -3.281517 1.777742 0
M  V30 3 C 0.201620 -2.106264 1.145697 0
M  V30 4 N 1.485882 -1.520365 0.933098 0
M  V30 5 C 1.877645 -1.929133 -0.401454 0
M  V30 6 C 3.192520 -1.218852 -0.737756 0
M  V30 7 N 2.953519 0.174891 -0.458494 0
M  V30 8 C 2.951918 0.465299 0.957833 0
M  V30 9 C 2.129941 1.673347 1.184747 0
M  V30 10 C 0.874781 1.849979 0.617561 0
M  V30 11 C 0.181697 3.007724 0.878651 0
M  V30 12 C 0.671462 4.011205 1.680749 0
M  V30 13 F -0.098308 5.121101 1.874625 0
M  V30 14 C 1.920531 3.870223 2.263917 0
M  V30 15 C 2.599996 2.701310 1.989579 0
M  V30 16 C 2.370605 -0.689331 1.719725 0
M  V30 17 N -0.868939 -1.446482 0.680913 0
M  V30 18 C -2.133970 -1.888697 0.804207 0
M  V30 19 C -3.214480 -1.084426 0.253223 0
M  V30 20 C -2.862890 0.109984 -0.375944 0
M  V30 21 C -3.862999 0.910077 -0.922023 0
M  V30 22 N -5.144349 0.528809 -0.839192 0
M  V30 23 C -5.457258 -0.635615 -0.222641 0
M  V30 24 C -4.535333 -1.491998 0.347038 0
M  V30 25 C -2.274914 -3.073677 1.443478 0
M  V30 26 C -1.210908 -3.795504 1.941951 0
M  V30 27 O -1.403100 -4.891335 2.526962 0
M  V30 28 H 0.868605 -5.063732 2.473291 0
M  V30 29 H 1.426053 -3.563044 3.281231 0
M  V30 30 H 2.061479 -4.002332 1.633502 0
M  V30 31 H 1.945254 -3.012767 -0.536739 0
M  V30 32 H 1.135375 -1.473289 -1.121543 0
M  V30 33 H 3.997728 -1.685625 -0.169794 0
M  V30 34 H 3.372525 -1.330059 -1.816411 0
M  V30 35 H 3.489432 0.845873 -1.012221 0
M  V30 36 H 3.984616 0.676861 1.296708 0
M  V30 37 H 0.507310 1.048632 -0.009282 0
M  V30 38 H -0.800553 3.065933 0.392797 0
M  V30 39 H 2.317418 4.643623 2.891964 0
M  V30 40 H 3.576021 2.603445 2.451947 0
M  V30 41 H 1.875814 -0.292307 2.624765 0
M  V30 42 H 3.250805 -1.308117 2.060165 0
M  V30 43 H -1.832249 0.443258 -0.458336 0
M  V30 44 H -3.552528 1.840914 -1.408908 0
M  V30 45 H -6.520691 -0.859633 -0.206112 0
M  V30 46 H -4.822203 -2.409954 0.829270 0
M  V30 47 H -3.266243 -3.482432 1.575420 0
M  V30 END ATOM
M  V30 BEGIN BOND
M  V30 1 1 1 2
M  V30 2 1 2 3
M  V30 3 1 3 4
M  V30 4 1 4 5
M  V30 5 1 5 6
M  V30 6 1 6 7
M  V30 7 1 7 8
M  V30 8 1 8 9
M  V30 9 2 9 10
M  V30 10 1 10 11
M  V30 11 2 11 12
M  V30 12 1 12 13
M  V30 13 1 12 14
M  V30 14 2 14 15
M  V30 15 1 8 16
M  V30 16 2 3 17
M  V30 17 1 17 18
M  V30 18 1 18 19
M  V30 19 2 19 20
M  V30 20 1 20 21
M  V30 21 2 21 22
M  V30 22 1 22 23
M  V30 23 2 23 24
M  V30 24 2 18 25
M  V30 25 1 25 26
M  V30 26 2 26 27
M  V30 27 1 26 2
M  V30 28 1 16 4
M  V30 29 1 24 19
M  V30 30 1 15 9
M  V30 31 1 1 28
M  V30 32 1 1 29
M  V30 33 1 1 30
M  V30 34 1 5 31
M  V30 35 1 5 32
M  V30 36 1 6 33
M  V30 37 1 6 34
M  V30 38 1 7 35
M  V30 39 1 8 36
M  V30 40 1 10 37
M  V30 41 1 11 38
M  V30 42 1 14 39
M  V30 43 1 15 40
M  V30 44 1 16 41
M  V30 45 1 16 42
M  V30 46 1 20 43
M  V30 47 1 21 44
M  V30 48 1 23 45
M  V30 49 1 24 46
M  V30 50 1 25 47
M  V30 END BOND
M  V30 END CTAB
M  END
>  <Dataset>  (883) 
ChEMBL_Kinases

>  <Ligand_Instance>  (883) 
nan

>  <PDB_ID>  (883) 
nan

>  <Standardized_SMILES>  (883) 
Cn1c(N2CCNC(c3ccc(F)cc3)C2)nc(-c2ccncc2)cc1=O

>  <Name>  (883) 
nan

>  <Pocket>  (883) 
nan

>  <ATP_Site>  (883) 
nan

>  <Peripheral>  (883) 
nan

>  <Num_H_Atoms_ProtBoundConf>  (883) 
nan

>  <Num_Resolved_Atoms>  (883) 
nan

>  <Num_Not_Resolved_Atoms>  (883) 
nan

$$$$
CHEMBL4069775
     RDKit          3D

  0  0  0  0  0  0  0  0  0  0999 V3000
M  V30 BEGIN CTAB
M  V30 COUNTS 67 71 0 0 0
M  V30 BEGIN ATOM
M  V30 1 O 2.733566 -0.278324 4.298304 0
M  V30 2 C 3.268975 0.818932 4.552406 0
M  V30 3 N 4.627894 0.776028 4.956896 0
M  V30 4 C 5.363132 -0.434723 5.070908 0
M  V30 5 C 5.997009 -0.733600 3.861831 0
M  V30 6 C 6.781610 -1.872759 3.727244 0
M  V30 7 C 6.933625 -2.724564 4.818800 0
M  V30 8 Cl 7.907913 -4.175806 4.717896 0
M  V30 9 C 6.295061 -2.415456 6.022545 0
M  V30 10 C 5.518177 -1.282800 6.146788 0
M  V30 11 N 2.532420 2.001598 4.431733 0
M  V30 12 C 1.187206 2.210745 4.047340 0
M  V30 13 C 0.686735 3.471185 3.990171 0
M  V30 14 C -0.614157 3.724337 3.624089 0
M  V30 15 C -1.522951 2.710436 3.282709 0
M  V30 16 C -2.860015 3.234269 2.941419 0
M  V30 17 N -3.038109 3.647436 1.588472 0
M  V30 18 C -3.060639 2.895503 0.369874 0
M  V30 19 N -3.145505 3.063195 -0.766707 0
M  V30 20 C -3.166333 2.193095 -1.746943 0
M  V30 21 C -3.270706 2.424195 -3.100153 0
M  V30 22 C -3.272213 1.329398 -3.942437 0
M  V30 23 C -3.176865 -0.019965 -3.559222 0
M  V30 24 O -3.203869 -0.867176 -4.549791 0
M  V30 25 C -3.158649 -2.128045 -4.966763 0
M  V30 26 C -1.967839 -2.995463 -4.773919 0
M  V30 27 C -1.519564 -3.247107 -3.369407 0
M  V30 28 C -0.303906 -4.168026 -3.357874 0
M  V30 29 C -0.226589 -4.928579 -2.028158 0
M  V30 30 C -1.422207 -5.815527 -1.808067 0
M  V30 31 C -2.602996 -5.259394 -2.569546 0
M  V30 32 N -2.530726 -3.827693 -2.564163 0
M  V30 33 C -3.074380 -0.222759 -2.210434 0
M  V30 34 C -3.070770 0.853951 -1.355537 0
M  V30 35 S -2.957037 1.000478 0.445587 0
M  V30 36 C -1.012762 1.434037 3.341977 0
M  V30 37 C 0.294103 1.221917 3.712558 0
M  V30 38 H 5.121028 1.674985 5.184467 0
M  V30 39 H 5.957832 -0.152684 2.941184 0
M  V30 40 H 7.292144 -2.145740 2.810845 0
M  V30 41 H 6.367676 -3.028191 6.910252 0
M  V30 42 H 4.989917 -0.955091 7.013807 0
M  V30 43 H 3.112846 2.848182 4.677094 0
M  V30 44 H 1.355051 4.308080 4.248314 0
M  V30 45 H -0.884527 4.791882 3.620528 0
M  V30 46 H -3.650468 2.455105 3.153601 0
M  V30 47 H -3.104091 4.065394 3.622109 0
M  V30 48 H -3.181546 4.659351 1.385385 0
M  V30 49 H -3.352217 3.432187 -3.533307 0
M  V30 50 H -3.360228 1.595294 -5.015901 0
M  V30 51 H -4.044479 -2.771833 -4.658859 0
M  V30 52 H -3.314404 -2.116290 -6.110420 0
M  V30 53 H -2.156802 -4.028369 -5.208711 0
M  V30 54 H -1.089324 -2.648628 -5.406582 0
M  V30 55 H -1.240256 -2.252724 -2.939144 0
M  V30 56 H -0.291095 -4.861421 -4.200185 0
M  V30 57 H 0.591764 -3.514909 -3.386259 0
M  V30 58 H -0.053790 -4.220829 -1.199121 0
M  V30 59 H 0.665355 -5.575125 -2.080260 0
M  V30 60 H -1.202774 -6.858731 -2.071255 0
M  V30 61 H -1.690376 -5.757879 -0.727561 0
M  V30 62 H -3.572860 -5.517410 -2.055092 0
M  V30 63 H -2.646189 -5.705981 -3.562372 0
M  V30 64 H -2.420304 -3.508445 -1.585443 0
M  V30 65 H -3.007187 -1.194045 -1.818042 0
M  V30 66 H -1.718119 0.684842 3.089240 0
M  V30 67 H 0.589544 0.185841 3.726039 0
M  V30 END ATOM
M  V30 BEGIN BOND
M  V30 1 2 1 2
M  V30 2 1 2 3
M  V30 3 1 3 4
M  V30 4 2 4 5
M  V30 5 1 5 6
M  V30 6 2 6 7
M  V30 7 1 7 8
M  V30 8 1 7 9
M  V30 9 2 9 10
M  V30 10 1 2 11
M  V30 11 1 11 12
M  V30 12 2 12 13
M  V30 13 1 13 14
M  V30 14 2 14 15
M  V30 15 1 15 16
M  V30 16 1 16 17
M  V30 17 1 17 18
M  V30 18 2 18 19
M  V30 19 1 19 20
M  V30 20 2 20 21
M  V30 21 1 21 22
M  V30 22 2 22 23
M  V30 23 1 23 24
M  V30 24 1 24 25
M  V30 25 1 25 26
M  V30 26 1 26 27
M  V30 27 1 27 28
M  V30 28 1 28 29
M  V30 29 1 29 30
M  V30 30 1 30 31
M  V30 31 1 31 32
M  V30 32 1 23 33
M  V30 33 2 33 34
M  V30 34 1 34 35
M  V30 35 1 15 36
M  V30 36 2 36 37
M  V30 37 1 10 4
M  V30 38 1 37 12
M  V30 39 1 35 18
M  V30 40 1 34 20
M  V30 41 1 32 27
M  V30 42 1 3 38
M  V30 43 1 5 39
M  V30 44 1 6 40
M  V30 45 1 9 41
M  V30 46 1 10 42
M  V30 47 1 11 43
M  V30 48 1 13 44
M  V30 49 1 14 45
M  V30 50 1 16 46
M  V30 51 1 16 47
M  V30 52 1 17 48
M  V30 53 1 21 49
M  V30 54 1 22 50
M  V30 55 1 25 51
M  V30 56 1 25 52
M  V30 57 1 26 53
M  V30 58 1 26 54
M  V30 59 1 27 55
M  V30 60 1 28 56
M  V30 61 1 28 57
M  V30 62 1 29 58
M  V30 63 1 29 59
M  V30 64 1 30 60
M  V30 65 1 30 61
M  V30 66 1 31 62
M  V30 67 1 31 63
M  V30 68 1 32 64
M  V30 69 1 33 65
M  V30 70 1 36 66
M  V30 71 1 37 67
M  V30 END BOND
M  V30 END CTAB
M  END
>  <Dataset>  (884) 
ChEMBL_Kinases

>  <Ligand_Instance>  (884) 
nan

>  <PDB_ID>  (884) 
nan

>  <Standardized_SMILES>  (884) 
O=C(Nc1ccc(Cl)cc1)Nc1ccc(CNc2nc3ccc(OCCC4CCCCN4)cc3s2)cc1

>  <Name>  (884) 
nan

>  <Pocket>  (884) 
nan

>  <ATP_Site>  (884) 
nan

>  <Peripheral>  (884) 
nan

>  <Num_H_Atoms_ProtBoundConf>  (884) 
nan

>  <Num_Resolved_Atoms>  (884) 
nan

>  <Num_Not_Resolved_Atoms>  (884) 
nan

$$$$
CHEMBL4860697
     RDKit          3D

  0  0  0  0  0  0  0  0  0  0999 V3000
M  V30 BEGIN CTAB
M  V30 COUNTS 67 71 0 0 0
M  V30 BEGIN ATOM
M  V30 1 C 3.496629 -4.623267 5.238796 0
M  V30 2 C 3.227844 -3.139994 5.019796 0 CFG=1
M  V30 3 O 1.901955 -2.798345 5.209763 0
M  V30 4 C 1.028219 -2.277108 4.267569 0
M  V30 5 C 1.262722 -1.954185 2.958866 0
M  V30 6 C 0.295490 -1.454077 2.173553 0
M  V30 7 C 0.407957 -1.062461 0.753646 0
M  V30 8 C 1.538931 -1.142599 -0.027273 0
M  V30 9 N 1.168233 -0.678392 -1.236997 0
M  V30 10 C -0.133750 -0.338264 -1.167994 0
M  V30 11 C -0.882975 0.178746 -2.204584 0
M  V30 12 C -2.212203 0.483731 -1.994119 0
M  V30 13 C -2.998535 1.029088 -3.091809 0
M  V30 14 C -4.347370 0.845987 -3.303131 0
M  V30 15 N -4.696787 1.506280 -4.416013 0
M  V30 16 N -3.664657 2.126810 -4.972529 0
M  V30 17 C -3.447987 2.947770 -6.112245 0
M  V30 18 C -3.044982 2.232076 -7.353321 0
M  V30 19 N -3.990510 1.289545 -7.832778 0
M  V30 20 C -4.099287 0.116587 -7.054765 0
M  V30 21 C -3.799859 1.014298 -9.257400 0
M  V30 22 C -2.618367 1.827205 -4.148233 0
M  V30 23 C -2.748567 0.258217 -0.742142 0
M  V30 24 C -1.932222 -0.261174 0.240745 0
M  V30 25 N -0.636266 -0.569341 0.071482 0
M  V30 26 S -1.095147 -1.374580 3.202499 0
M  V30 27 C -0.282962 -2.047024 4.712962 0
M  V30 28 C -1.074695 -2.196239 5.913902 0
M  V30 29 N -2.434555 -1.813204 5.996520 0
M  V30 30 O -0.903533 -2.615776 7.053784 0
M  V30 31 C 4.245587 -2.300691 5.674594 0
M  V30 32 C 5.378281 -1.897805 4.947942 0
M  V30 33 C 6.438782 -1.131863 5.376917 0
M  V30 34 C 6.391245 -0.701344 6.684128 0
M  V30 35 C 5.308160 -1.059668 7.455010 0
M  V30 36 C 4.271963 -1.830732 6.970664 0
M  V30 37 C 3.142156 -2.160176 7.855609 0
M  V30 38 F 1.933168 -1.672763 7.455491 0
M  V30 39 F 2.996428 -3.526932 8.029106 0
M  V30 40 F 3.396683 -1.653816 9.114519 0
M  V30 41 H 3.491982 -5.211230 4.299094 0
M  V30 42 H 2.658109 -5.065674 5.841427 0
M  V30 43 H 4.497425 -4.801795 5.710797 0
M  V30 44 H 3.415112 -3.005932 3.906761 0
M  V30 45 H 2.259817 -2.107939 2.549969 0
M  V30 46 H 2.507250 -1.499442 0.269339 0
M  V30 47 H -0.479409 0.361557 -3.190215 0
M  V30 48 H -4.994953 0.257198 -2.655783 0
M  V30 49 H -4.369382 3.585125 -6.281439 0
M  V30 50 H -2.641888 3.717632 -5.887829 0
M  V30 51 H -2.058666 1.713835 -7.081755 0
M  V30 52 H -2.730509 2.954071 -8.160993 0
M  V30 53 H -5.100436 -0.064573 -6.584632 0
M  V30 54 H -3.329182 0.040671 -6.271709 0
M  V30 55 H -3.905983 -0.802688 -7.699636 0
M  V30 56 H -4.746474 1.163370 -9.784826 0
M  V30 57 H -3.085686 1.748944 -9.646713 0
M  V30 58 H -3.383351 -0.006272 -9.383081 0
M  V30 59 H -1.564394 2.135469 -4.229779 0
M  V30 60 H -3.780467 0.489096 -0.559104 0
M  V30 61 H -2.341819 -0.438326 1.213524 0
M  V30 62 H -2.956440 -0.887277 5.964905 0
M  V30 63 H -3.298928 -2.418502 6.118016 0
M  V30 64 H 5.456616 -2.221617 3.896115 0
M  V30 65 H 7.256970 -0.887984 4.717098 0
M  V30 66 H 7.190744 -0.101696 7.070404 0
M  V30 67 H 5.259488 -0.720758 8.502288 0
M  V30 END ATOM
M  V30 BEGIN BOND
M  V30 1 1 1 2
M  V30 2 1 2 3
M  V30 3 1 3 4
M  V30 4 1 4 5
M  V30 5 2 5 6
M  V30 6 1 6 7
M  V30 7 2 7 8
M  V30 8 1 8 9
M  V30 9 2 9 10
M  V30 10 1 10 11
M  V30 11 2 11 12
M  V30 12 1 12 13
M  V30 13 1 13 14
M  V30 14 2 14 15
M  V30 15 1 15 16
M  V30 16 1 16 17
M  V30 17 1 17 18
M  V30 18 1 18 19
M  V30 19 1 19 20
M  V30 20 1 19 21
M  V30 21 1 16 22
M  V30 22 1 12 23
M  V30 23 2 23 24
M  V30 24 1 24 25
M  V30 25 1 6 26
M  V30 26 1 26 27
M  V30 27 1 27 28
M  V30 28 1 28 29
M  V30 29 2 28 30
M  V30 30 1 2 31
M  V30 31 2 31 32
M  V30 32 1 32 33
M  V30 33 2 33 34
M  V30 34 1 34 35
M  V30 35 2 35 36
M  V30 36 1 36 37
M  V30 37 1 37 38
M  V30 38 1 37 39
M  V30 39 1 37 40
M  V30 40 2 27 4
M  V30 41 1 36 31
M  V30 42 1 25 7
M  V30 43 1 25 10
M  V30 44 2 22 13
M  V30 45 1 1 41
M  V30 46 1 1 42
M  V30 47 1 1 43
M  V30 48 1 2 44 CFG=3
M  V30 49 1 5 45
M  V30 50 1 8 46
M  V30 51 1 11 47
M  V30 52 1 14 48
M  V30 53 1 17 49
M  V30 54 1 17 50
M  V30 55 1 18 51
M  V30 56 1 18 52
M  V30 57 1 20 53
M  V30 58 1 20 54
M  V30 59 1 20 55
M  V30 60 1 21 56
M  V30 61 1 21 57
M  V30 62 1 21 58
M  V30 63 1 22 59
M  V30 64 1 23 60
M  V30 65 1 24 61
M  V30 66 1 29 62
M  V30 67 1 29 63
M  V30 68 1 32 64
M  V30 69 1 33 65
M  V30 70 1 34 66
M  V30 71 1 35 67
M  V30 END BOND
M  V30 END CTAB
M  END
>  <Dataset>  (885) 
ChEMBL_Kinases

>  <Ligand_Instance>  (885) 
nan

>  <PDB_ID>  (885) 
nan

>  <Standardized_SMILES>  (885) 
C[C@@H](Oc1cc(-c2cnc3cc(-c4cnn(CCN(C)C)c4)ccn23)sc1C(N)=O)c1ccccc1C(F)(F)F

>  <Name>  (885) 
nan

>  <Pocket>  (885) 
nan

>  <ATP_Site>  (885) 
nan

>  <Peripheral>  (885) 
nan

>  <Num_H_Atoms_ProtBoundConf>  (885) 
nan

>  <Num_Resolved_Atoms>  (885) 
nan

>  <Num_Not_Resolved_Atoms>  (885) 
nan

$$$$
CHEMBL4070120
     RDKit          3D

  0  0  0  0  0  0  0  0  0  0999 V3000
M  V30 BEGIN CTAB
M  V30 COUNTS 50 54 0 0 0
M  V30 BEGIN ATOM
M  V30 1 O -5.640753 -3.212047 0.827501 0
M  V30 2 C -4.420267 -3.096511 0.563897 0
M  V30 3 N -3.790164 -1.930049 0.459297 0
M  V30 4 C -2.509850 -1.722529 0.185227 0
M  V30 5 C -1.779193 -0.484417 0.060599 0
M  V30 6 C -0.436491 -0.557887 -0.238307 0
M  V30 7 C 0.365951 0.543824 -0.383822 0
M  V30 8 C -0.124037 1.807823 -0.238397 0
M  V30 9 N 0.682218 2.964807 -0.369229 0
M  V30 10 C 2.074771 3.151999 -0.590099 0
M  V30 11 C 2.971192 3.025902 0.590499 0
M  V30 12 C 2.975950 1.722633 1.308105 0
M  V30 13 C 4.028759 1.719681 2.433895 0
M  V30 14 N 3.849286 2.886360 3.280160 0
M  V30 15 C 2.588534 3.552042 3.001410 0
M  V30 16 C 2.638831 4.109410 1.613747 0
M  V30 17 C -1.458386 1.910322 0.059338 0
M  V30 18 C -2.229214 0.791669 0.197092 0
M  V30 19 Cl -3.900193 1.100540 0.575505 0
M  V30 20 N -1.865118 -2.876614 0.011418 0
M  V30 21 C -2.377544 -4.105922 0.088501 0
M  V30 22 C -3.710692 -4.260938 0.375609 0
M  V30 23 O -3.922021 -5.550040 0.385135 0
M  V30 24 C -2.825929 -6.232401 0.126041 0
M  V30 25 C -2.523598 -7.580967 0.021561 0
M  V30 26 C -1.218571 -7.966522 -0.274765 0
M  V30 27 C -0.187787 -7.043096 -0.473883 0
M  V30 28 Br 1.589209 -7.605923 -0.878415 0
M  V30 29 C -0.470767 -5.684822 -0.373364 0
M  V30 30 C -1.772227 -5.333441 -0.078791 0
M  V30 31 H -4.413699 -1.134881 0.618088 0
M  V30 32 H 0.039485 -1.543405 -0.371953 0
M  V30 33 H 1.400481 0.361111 -0.631381 0
M  V30 34 H 0.181189 3.890761 -0.288917 0
M  V30 35 H 2.277945 4.122875 -1.088404 0
M  V30 36 H 2.358587 2.390608 -1.396727 0
M  V30 37 H 4.020051 3.213139 0.206761 0
M  V30 38 H 1.999687 1.514314 1.765318 0
M  V30 39 H 3.329265 0.904466 0.631455 0
M  V30 40 H 5.032885 1.632200 2.007050 0
M  V30 41 H 3.817338 0.830557 3.042139 0
M  V30 42 H 4.630801 3.543254 3.074004 0
M  V30 43 H 1.730088 2.914820 3.222701 0
M  V30 44 H 2.570316 4.448290 3.687938 0
M  V30 45 H 1.719743 4.671290 1.348728 0
M  V30 46 H 3.448822 4.887566 1.605234 0
M  V30 47 H -1.867100 2.917124 0.179003 0
M  V30 48 H -3.305558 -8.314122 0.171671 0
M  V30 49 H -0.950456 -9.004794 -0.362940 0
M  V30 50 H 0.279749 -4.929497 -0.515967 0
M  V30 END ATOM
M  V30 BEGIN BOND
M  V30 1 2 1 2
M  V30 2 1 2 3
M  V30 3 1 3 4
M  V30 4 1 4 5
M  V30 5 2 5 6
M  V30 6 1 6 7
M  V30 7 2 7 8
M  V30 8 1 8 9
M  V30 9 1 9 10
M  V30 10 1 10 11
M  V30 11 1 11 12
M  V30 12 1 12 13
M  V30 13 1 13 14
M  V30 14 1 14 15
M  V30 15 1 15 16
M  V30 16 1 8 17
M  V30 17 2 17 18
M  V30 18 1 18 19
M  V30 19 2 4 20
M  V30 20 1 20 21
M  V30 21 2 21 22
M  V30 22 1 22 23
M  V30 23 1 23 24
M  V30 24 2 24 25
M  V30 25 1 25 26
M  V30 26 2 26 27
M  V30 27 1 27 28
M  V30 28 1 27 29
M  V30 29 2 29 30
M  V30 30 1 22 2
M  V30 31 1 30 24
M  V30 32 1 18 5
M  V30 33 1 30 21
M  V30 34 1 16 11
M  V30 35 1 3 31
M  V30 36 1 6 32
M  V30 37 1 7 33
M  V30 38 1 9 34
M  V30 39 1 10 35
M  V30 40 1 10 36
M  V30 41 1 11 37
M  V30 42 1 12 38
M  V30 43 1 12 39
M  V30 44 1 13 40
M  V30 45 1 13 41
M  V30 46 1 14 42
M  V30 47 1 15 43
M  V30 48 1 15 44
M  V30 49 1 16 45
M  V30 50 1 16 46
M  V30 51 1 17 47
M  V30 52 1 25 48
M  V30 53 1 26 49
M  V30 54 1 29 50
M  V30 END BOND
M  V30 END CTAB
M  END
>  <Dataset>  (886) 
ChEMBL_Kinases

>  <Ligand_Instance>  (886) 
nan

>  <PDB_ID>  (886) 
nan

>  <Standardized_SMILES>  (886) 
O=c1[nH]c(-c2ccc(NCC3CCNCC3)cc2Cl)nc2c1oc1ccc(Br)cc12

>  <Name>  (886) 
nan

>  <Pocket>  (886) 
nan

>  <ATP_Site>  (886) 
nan

>  <Peripheral>  (886) 
nan

>  <Num_H_Atoms_ProtBoundConf>  (886) 
nan

>  <Num_Resolved_Atoms>  (886) 
nan

>  <Num_Not_Resolved_Atoms>  (886) 
nan

$$$$
CHEMBL4860894
     RDKit          3D

  0  0  0  0  0  0  0  0  0  0999 V3000
M  V30 BEGIN CTAB
M  V30 COUNTS 45 47 0 0 0
M  V30 BEGIN ATOM
M  V30 1 N 0.421337 -6.803434 3.407119 0
M  V30 2 C 0.394017 -6.105928 2.502650 0
M  V30 3 C 0.365037 -5.212172 1.382703 0
M  V30 4 C 0.904374 -5.541008 0.159210 0
M  V30 5 C 0.856278 -4.654809 -0.889793 0
M  V30 6 C 0.280741 -3.412254 -0.788932 0
M  V30 7 N 0.210645 -2.494812 -1.867858 0
M  V30 8 C -0.179996 -1.133176 -1.875675 0
M  V30 9 N -0.290649 -0.498385 -3.070876 0
M  V30 10 C -0.646102 0.776365 -3.178432 0
M  V30 11 C -0.915676 1.493813 -2.039865 0
M  V30 12 C -1.310168 2.918384 -2.202552 0
M  V30 13 F -1.337359 3.288804 -3.535197 0
M  V30 14 F -0.461018 3.779659 -1.530868 0
M  V30 15 F -2.584627 3.153896 -1.691786 0
M  V30 16 C -0.816929 0.892519 -0.790621 0
M  V30 17 N -1.124662 1.641160 0.372888 0
M  V30 18 C -1.085367 1.287331 1.774480 0
M  V30 19 C 0.284836 1.226626 2.354964 0
M  V30 20 C 0.135133 0.826086 3.828029 0
M  V30 21 C 1.386169 1.309912 4.524257 0
M  V30 22 N 2.463877 1.336714 3.588731 0
M  V30 23 C 2.489629 0.275754 2.631344 0
M  V30 24 C 1.243148 0.270080 1.728221 0
M  V30 25 N -0.454986 -0.380950 -0.802599 0
M  V30 26 C -0.243567 -3.135507 0.457153 0
M  V30 27 N -0.189680 -4.009659 1.472035 0
M  V30 28 H 1.367108 -6.500309 0.024787 0
M  V30 29 H 1.298112 -4.974588 -1.824564 0
M  V30 30 H 0.500924 -2.919367 -2.798095 0
M  V30 31 H -0.724312 1.248430 -4.140887 0
M  V30 32 H -1.442251 2.645428 0.224130 0
M  V30 33 H -1.495446 0.231040 1.847236 0
M  V30 34 H -1.698898 1.940390 2.397051 0
M  V30 35 H 0.790310 2.244220 2.313624 0
M  V30 36 H 0.094432 -0.296621 3.850244 0
M  V30 37 H -0.795762 1.219612 4.273573 0
M  V30 38 H 1.149612 2.354992 4.857744 0
M  V30 39 H 1.596993 0.737698 5.450038 0
M  V30 40 H 2.656158 2.236609 3.128433 0
M  V30 41 H 2.599831 -0.737006 3.107986 0
M  V30 42 H 3.403293 0.400485 2.019584 0
M  V30 43 H 1.594775 0.662407 0.746830 0
M  V30 44 H 0.867747 -0.757855 1.653231 0
M  V30 45 H -0.728228 -2.203580 0.670473 0
M  V30 END ATOM
M  V30 BEGIN BOND
M  V30 1 3 1 2
M  V30 2 1 2 3
M  V30 3 2 3 4
M  V30 4 1 4 5
M  V30 5 2 5 6
M  V30 6 1 6 7
M  V30 7 1 7 8
M  V30 8 2 8 9
M  V30 9 1 9 10
M  V30 10 2 10 11
M  V30 11 1 11 12
M  V30 12 1 12 13
M  V30 13 1 12 14
M  V30 14 1 12 15
M  V30 15 1 11 16
M  V30 16 1 16 17
M  V30 17 1 17 18
M  V30 18 1 18 19
M  V30 19 1 19 20
M  V30 20 1 20 21
M  V30 21 1 21 22
M  V30 22 1 22 23
M  V30 23 1 23 24
M  V30 24 2 16 25
M  V30 25 1 6 26
M  V30 26 2 26 27
M  V30 27 1 27 3
M  V30 28 1 25 8
M  V30 29 1 24 19
M  V30 30 1 4 28
M  V30 31 1 5 29
M  V30 32 1 7 30
M  V30 33 1 10 31
M  V30 34 1 17 32
M  V30 35 1 18 33
M  V30 36 1 18 34
M  V30 37 1 19 35
M  V30 38 1 20 36
M  V30 39 1 20 37
M  V30 40 1 21 38
M  V30 41 1 21 39
M  V30 42 1 22 40
M  V30 43 1 23 41
M  V30 44 1 23 42
M  V30 45 1 24 43
M  V30 46 1 24 44
M  V30 47 1 26 45
M  V30 END BOND
M  V30 END CTAB
M  END
>  <Dataset>  (887) 
ChEMBL_Kinases

>  <Ligand_Instance>  (887) 
nan

>  <PDB_ID>  (887) 
nan

>  <Standardized_SMILES>  (887) 
N#Cc1ccc(Nc2ncc(C(F)(F)F)c(NCC3CCNCC3)n2)cn1

>  <Name>  (887) 
nan

>  <Pocket>  (887) 
nan

>  <ATP_Site>  (887) 
nan

>  <Peripheral>  (887) 
nan

>  <Num_H_Atoms_ProtBoundConf>  (887) 
nan

>  <Num_Resolved_Atoms>  (887) 
nan

>  <Num_Not_Resolved_Atoms>  (887) 
nan

$$$$
CHEMBL4860927
     RDKit          3D

  0  0  0  0  0  0  0  0  0  0999 V3000
M  V30 BEGIN CTAB
M  V30 COUNTS 49 52 0 0 0
M  V30 BEGIN ATOM
M  V30 1 C -0.483275 -2.103908 5.109266 0
M  V30 2 C -1.071645 -3.266296 4.381445 0
M  V30 3 C -0.036779 -3.813949 3.428680 0
M  V30 4 C 0.055020 -3.282097 2.136649 0
M  V30 5 C 1.069920 -3.911204 1.449313 0
M  V30 6 N 1.519115 -3.658769 0.103989 0
M  V30 7 C 0.838963 -2.604470 -0.554107 0
M  V30 8 N 1.255670 -1.342042 -0.308067 0
M  V30 9 C 0.674993 -0.279351 -0.891211 0
M  V30 10 N 0.852143 1.125178 -0.804688 0
M  V30 11 C 0.928693 1.660588 0.563418 0 CFG=1
M  V30 12 C 2.177082 1.322368 1.279887 0
M  V30 13 C 0.625220 3.111262 0.596433 0
M  V30 14 C 1.189757 4.202617 1.215751 0
M  V30 15 C 0.626181 5.429146 1.019212 0
M  V30 16 C -0.483020 5.655561 0.234689 0
M  V30 17 F -0.992282 6.903172 0.082086 0
M  V30 18 C -1.082701 4.572321 -0.409053 0
M  V30 19 C -0.505701 3.313876 -0.208598 0
M  V30 20 N -0.358106 -0.528773 -1.749376 0
M  V30 21 C -0.814563 -1.762576 -2.030811 0
M  V30 22 C -1.886573 -1.944878 -2.914621 0
M  V30 23 C -2.331736 -3.217829 -3.173208 0
M  V30 24 F -3.385736 -3.400312 -4.036590 0
M  V30 25 C -1.741959 -4.312167 -2.578317 0
M  V30 26 C -0.691143 -4.119143 -1.712464 0
M  V30 27 C -0.200663 -2.843525 -1.415822 0
M  V30 28 N 1.575109 -4.814265 2.341623 0
M  V30 29 N 0.924591 -4.747295 3.482531 0
M  V30 30 H -0.233203 -2.320201 6.143630 0
M  V30 31 H -1.252197 -1.278273 5.116720 0
M  V30 32 H 0.355202 -1.689995 4.511738 0
M  V30 33 H -1.424214 -4.058141 5.059351 0
M  V30 34 H -1.984430 -2.946081 3.802366 0
M  V30 35 H -0.569772 -2.488912 1.714454 0
M  V30 36 H 2.285535 -4.251941 -0.262553 0
M  V30 37 H 0.927063 1.722403 -1.661123 0
M  V30 38 H 0.077967 1.184463 1.143563 0
M  V30 39 H 1.938074 1.191705 2.373256 0
M  V30 40 H 2.952868 2.146377 1.207100 0
M  V30 41 H 2.688733 0.436748 0.880976 0
M  V30 42 H 2.030258 3.889994 1.785462 0
M  V30 43 H 1.138391 6.244108 1.548927 0
M  V30 44 H -1.939699 4.787477 -1.008465 0
M  V30 45 H -1.089290 2.567614 -0.776597 0
M  V30 46 H -2.338639 -1.080389 -3.374860 0
M  V30 47 H -2.092747 -5.325699 -2.775585 0
M  V30 48 H -0.157026 -4.905156 -1.191282 0
M  V30 49 H 1.033455 -5.276794 4.370480 0
M  V30 END ATOM
M  V30 BEGIN BOND
M  V30 1 1 1 2
M  V30 2 1 2 3
M  V30 3 2 3 4
M  V30 4 1 4 5
M  V30 5 1 5 6
M  V30 6 1 6 7
M  V30 7 2 7 8
M  V30 8 1 8 9
M  V30 9 1 9 10
M  V30 10 1 10 11
M  V30 11 1 11 12
M  V30 12 1 11 13
M  V30 13 2 13 14
M  V30 14 1 14 15
M  V30 15 2 15 16
M  V30 16 1 16 17
M  V30 17 1 16 18
M  V30 18 2 18 19
M  V30 19 2 9 20
M  V30 20 1 20 21
M  V30 21 2 21 22
M  V30 22 1 22 23
M  V30 23 1 23 24
M  V30 24 2 23 25
M  V30 25 1 25 26
M  V30 26 2 26 27
M  V30 27 2 5 28
M  V30 28 1 28 29
M  V30 29 1 29 3
M  V30 30 1 27 7
M  V30 31 1 19 13
M  V30 32 1 27 21
M  V30 33 1 1 30
M  V30 34 1 1 31
M  V30 35 1 1 32
M  V30 36 1 2 33
M  V30 37 1 2 34
M  V30 38 1 4 35
M  V30 39 1 6 36
M  V30 40 1 10 37
M  V30 41 1 11 38 CFG=1
M  V30 42 1 12 39
M  V30 43 1 12 40
M  V30 44 1 12 41
M  V30 45 1 14 42
M  V30 46 1 15 43
M  V30 47 1 18 44
M  V30 48 1 19 45
M  V30 49 1 22 46
M  V30 50 1 25 47
M  V30 51 1 26 48
M  V30 52 1 29 49
M  V30 END BOND
M  V30 END CTAB
M  END
>  <Dataset>  (888) 
ChEMBL_Kinases

>  <Ligand_Instance>  (888) 
nan

>  <PDB_ID>  (888) 
nan

>  <Standardized_SMILES>  (888) 
CCc1cc(Nc2nc(N[C@@H](C)c3ccc(F)cc3)nc3cc(F)ccc23)n[nH]1

>  <Name>  (888) 
nan

>  <Pocket>  (888) 
nan

>  <ATP_Site>  (888) 
nan

>  <Peripheral>  (888) 
nan

>  <Num_H_Atoms_ProtBoundConf>  (888) 
nan

>  <Num_Resolved_Atoms>  (888) 
nan

>  <Num_Not_Resolved_Atoms>  (888) 
nan

$$$$
CHEMBL4067909
     RDKit          3D

  0  0  0  0  0  0  0  0  0  0999 V3000
M  V30 BEGIN CTAB
M  V30 COUNTS 44 46 0 0 0
M  V30 BEGIN ATOM
M  V30 1 C 1.390116 -6.034243 1.108031 0
M  V30 2 C 2.258913 -4.853751 0.861408 0
M  V30 3 O 3.390999 -5.031249 0.342995 0
M  V30 4 N 1.745264 -3.571294 1.235264 0
M  V30 5 C 0.435436 -3.405301 1.828503 0
M  V30 6 C -0.355860 -2.556595 0.862359 0
M  V30 7 N 0.205736 -1.201202 0.960073 0
M  V30 8 C -0.424996 0.066549 1.237616 0
M  V30 9 N -0.097584 1.039983 0.343308 0
M  V30 10 C -0.569804 2.297452 0.417570 0
M  V30 11 C -0.203072 3.315920 -0.555725 0
M  V30 12 C -0.664379 4.611438 -0.516176 0
M  V30 13 C -0.308087 5.582313 -1.453118 0
M  V30 14 N 0.533585 5.255279 -2.461562 0
M  V30 15 C 0.984861 3.967118 -2.490584 0
M  V30 16 N 0.631122 3.037506 -1.576410 0
M  V30 17 C -1.413175 2.591504 1.442163 0
M  V30 18 C -1.750978 1.632498 2.344345 0
M  V30 19 O -2.530528 1.840107 3.320870 0
M  V30 20 N -1.256561 0.390195 2.232226 0
M  V30 21 C -1.588057 -0.652446 3.178480 0
M  V30 22 C 1.626277 -1.137635 0.734185 0 CFG=2
M  V30 23 C 1.807620 -0.767974 -0.747238 0
M  V30 24 C 2.416871 -2.329462 1.087386 0
M  V30 25 H 0.434367 -5.982058 0.556132 0
M  V30 26 H 1.887805 -6.977506 0.824221 0
M  V30 27 H 1.246035 -6.120314 2.223140 0
M  V30 28 H 0.538979 -2.914599 2.815856 0
M  V30 29 H -0.023969 -4.411764 1.958548 0
M  V30 30 H -0.094330 -2.968089 -0.160189 0
M  V30 31 H -1.434479 -2.598501 0.975975 0
M  V30 32 H -1.326911 4.933035 0.247423 0
M  V30 33 H -0.706479 6.593055 -1.368231 0
M  V30 34 H 1.652705 3.796627 -3.331208 0
M  V30 35 H -1.863418 3.553035 1.621638 0
M  V30 36 H -2.318129 -1.391169 2.803035 0
M  V30 37 H -0.693289 -1.078893 3.657905 0
M  V30 38 H -2.138241 -0.154893 4.036005 0
M  V30 39 H 2.045131 -0.254803 1.287683 0
M  V30 40 H 1.066278 -1.298471 -1.362278 0
M  V30 41 H 2.811080 -1.194220 -1.009220 0
M  V30 42 H 1.815220 0.327128 -0.872002 0
M  V30 43 H 3.065363 -2.133028 1.980720 0
M  V30 44 H 3.170450 -2.482100 0.256469 0
M  V30 END ATOM
M  V30 BEGIN BOND
M  V30 1 1 1 2
M  V30 2 2 2 3
M  V30 3 1 2 4
M  V30 4 1 4 5
M  V30 5 1 5 6
M  V30 6 1 6 7
M  V30 7 1 7 8
M  V30 8 2 8 9
M  V30 9 1 9 10
M  V30 10 1 10 11
M  V30 11 2 11 12
M  V30 12 1 12 13
M  V30 13 2 13 14
M  V30 14 1 14 15
M  V30 15 2 15 16
M  V30 16 2 10 17
M  V30 17 1 17 18
M  V30 18 2 18 19
M  V30 19 1 18 20
M  V30 20 1 20 21
M  V30 21 1 7 22
M  V30 22 1 22 23
M  V30 23 1 22 24
M  V30 24 1 24 4
M  V30 25 1 20 8
M  V30 26 1 16 11
M  V30 27 1 1 25
M  V30 28 1 1 26
M  V30 29 1 1 27
M  V30 30 1 5 28
M  V30 31 1 5 29
M  V30 32 1 6 30
M  V30 33 1 6 31
M  V30 34 1 12 32
M  V30 35 1 13 33
M  V30 36 1 15 34
M  V30 37 1 17 35
M  V30 38 1 21 36
M  V30 39 1 21 37
M  V30 40 1 21 38
M  V30 41 1 22 39 CFG=1
M  V30 42 1 23 40
M  V30 43 1 23 41
M  V30 44 1 23 42
M  V30 45 1 24 43
M  V30 46 1 24 44
M  V30 END BOND
M  V30 END CTAB
M  END
>  <Dataset>  (889) 
ChEMBL_Kinases

>  <Ligand_Instance>  (889) 
nan

>  <PDB_ID>  (889) 
nan

>  <Standardized_SMILES>  (889) 
CC(=O)N1CCN(c2nc(-c3ccncn3)cc(=O)n2C)[C@H](C)C1

>  <Name>  (889) 
nan

>  <Pocket>  (889) 
nan

>  <ATP_Site>  (889) 
nan

>  <Peripheral>  (889) 
nan

>  <Num_H_Atoms_ProtBoundConf>  (889) 
nan

>  <Num_Resolved_Atoms>  (889) 
nan

>  <Num_Not_Resolved_Atoms>  (889) 
nan

$$$$
CHEMBL4067898
     RDKit          3D

  0  0  0  0  0  0  0  0  0  0999 V3000
M  V30 BEGIN CTAB
M  V30 COUNTS 55 59 0 0 0
M  V30 BEGIN ATOM
M  V30 1 C 2.656017 -3.036278 1.381411 0
M  V30 2 O 2.745517 -1.626403 1.359284 0
M  V30 3 C 3.183522 -0.865089 2.435322 0
M  V30 4 C 3.548737 -1.561111 3.595215 0
M  V30 5 C 3.982420 -0.803335 4.661634 0
M  V30 6 C 4.084301 0.576055 4.675839 0
M  V30 7 C 3.717346 1.249509 3.515193 0
M  V30 8 C 3.279912 0.532469 2.430047 0
M  V30 9 N 2.862018 1.069753 1.165105 0
M  V30 10 C 2.149928 2.201758 1.028469 0
M  V30 11 C 1.920716 2.413718 -0.311666 0
M  V30 12 C 1.235360 3.409898 -1.181904 0
M  V30 13 O -0.094702 3.003977 -1.368403 0
M  V30 14 C -1.048562 2.843994 -0.401219 0
M  V30 15 O -0.794703 3.067435 0.801011 0
M  V30 16 C -2.445272 2.394710 -0.723958 0
M  V30 17 C -3.277240 2.233542 0.502295 0
M  V30 18 C -3.001659 0.820430 0.948747 0
M  V30 19 N -2.670826 0.135923 -0.266983 0
M  V30 20 C -2.551390 -1.105902 -0.824432 0
M  V30 21 C -2.822765 -2.338106 -0.113802 0
M  V30 22 O -3.413703 -2.225104 1.013084 0
M  V30 23 C -2.530457 -3.712979 -0.470579 0
M  V30 24 C -1.522149 -4.102756 -1.317591 0
M  V30 25 C -1.246411 -5.424816 -1.678423 0
M  V30 26 C -2.076137 -6.369887 -1.115606 0
M  V30 27 C -3.111989 -6.078118 -0.256194 0
M  V30 28 C -3.278190 -4.749625 0.017597 0
M  V30 29 C -2.162045 -0.995351 -2.141715 0
M  V30 30 C -2.025921 0.340150 -2.445211 0
M  V30 31 C -2.344480 0.997237 -1.276223 0
M  V30 32 N 2.522215 1.368603 -0.956717 0
M  V30 33 N 3.071738 0.590268 -0.041918 0
M  V30 34 H 1.851194 -3.423151 2.030077 0
M  V30 35 H 3.668331 -3.472755 1.622168 0
M  V30 36 H 2.368627 -3.353295 0.338501 0
M  V30 37 H 3.491214 -2.630863 3.645160 0
M  V30 38 H 4.255809 -1.370021 5.541381 0
M  V30 39 H 4.426632 1.145229 5.526927 0
M  V30 40 H 3.750183 2.321526 3.398324 0
M  V30 41 H 1.767301 2.902896 1.723508 0
M  V30 42 H 1.748524 3.587363 -2.123214 0
M  V30 43 H 1.172818 4.377383 -0.608891 0
M  V30 44 H -2.927756 3.020011 -1.480130 0
M  V30 45 H -4.355321 2.364109 0.321001 0
M  V30 46 H -2.969287 2.917287 1.329001 0
M  V30 47 H -3.938106 0.439049 1.414429 0
M  V30 48 H -2.201402 0.751076 1.713811 0
M  V30 49 H -0.858411 -3.389022 -1.756688 0
M  V30 50 H -0.449113 -5.692934 -2.343901 0
M  V30 51 H -1.893741 -7.420319 -1.370595 0
M  V30 52 H -3.692320 -6.883167 0.124797 0
M  V30 53 H -4.103954 -4.508844 0.705213 0
M  V30 54 H -1.968105 -1.707169 -2.914250 0
M  V30 55 H -1.739179 0.830106 -3.367090 0
M  V30 END ATOM
M  V30 BEGIN BOND
M  V30 1 1 1 2
M  V30 2 1 2 3
M  V30 3 2 3 4
M  V30 4 1 4 5
M  V30 5 2 5 6
M  V30 6 1 6 7
M  V30 7 2 7 8
M  V30 8 1 8 9
M  V30 9 1 9 10
M  V30 10 2 10 11
M  V30 11 1 11 12
M  V30 12 1 12 13
M  V30 13 1 13 14
M  V30 14 2 14 15
M  V30 15 1 14 16
M  V30 16 1 16 17
M  V30 17 1 17 18
M  V30 18 1 18 19
M  V30 19 1 19 20
M  V30 20 1 20 21
M  V30 21 2 21 22
M  V30 22 1 21 23
M  V30 23 2 23 24
M  V30 24 1 24 25
M  V30 25 2 25 26
M  V30 26 1 26 27
M  V30 27 2 27 28
M  V30 28 2 20 29
M  V30 29 1 29 30
M  V30 30 2 30 31
M  V30 31 1 11 32
M  V30 32 2 32 33
M  V30 33 1 8 3
M  V30 34 1 33 9
M  V30 35 1 31 16
M  V30 36 1 31 19
M  V30 37 1 28 23
M  V30 38 1 1 34
M  V30 39 1 1 35
M  V30 40 1 1 36
M  V30 41 1 4 37
M  V30 42 1 5 38
M  V30 43 1 6 39
M  V30 44 1 7 40
M  V30 45 1 10 41
M  V30 46 1 12 42
M  V30 47 1 12 43
M  V30 48 1 16 44
M  V30 49 1 17 45
M  V30 50 1 17 46
M  V30 51 1 18 47
M  V30 52 1 18 48
M  V30 53 1 24 49
M  V30 54 1 25 50
M  V30 55 1 26 51
M  V30 56 1 27 52
M  V30 57 1 28 53
M  V30 58 1 29 54
M  V30 59 1 30 55
M  V30 END BOND
M  V30 END CTAB
M  END
>  <Dataset>  (890) 
ChEMBL_Kinases

>  <Ligand_Instance>  (890) 
nan

>  <PDB_ID>  (890) 
nan

>  <Standardized_SMILES>  (890) 
COc1ccccc1-n1cc(COC(=O)C2CCn3c(C(=O)c4ccccc4)ccc32)nn1

>  <Name>  (890) 
nan

>  <Pocket>  (890) 
nan

>  <ATP_Site>  (890) 
nan

>  <Peripheral>  (890) 
nan

>  <Num_H_Atoms_ProtBoundConf>  (890) 
nan

>  <Num_Resolved_Atoms>  (890) 
nan

>  <Num_Not_Resolved_Atoms>  (890) 
nan

$$$$
CHEMBL4067880
     RDKit          3D

  0  0  0  0  0  0  0  0  0  0999 V3000
M  V30 BEGIN CTAB
M  V30 COUNTS 64 69 0 0 0
M  V30 BEGIN ATOM
M  V30 1 O 2.016547 3.696907 3.946291 0
M  V30 2 C 3.083299 3.095511 4.170761 0
M  V30 3 N 4.071788 3.249697 3.191150 0
M  V30 4 C 3.955290 4.016410 1.998272 0
M  V30 5 C 3.468263 3.374847 0.856022 0
M  V30 6 C 3.305615 4.008717 -0.376945 0
M  V30 7 N 2.791368 3.351237 -1.521817 0
M  V30 8 C 1.937888 2.213221 -1.657896 0
M  V30 9 C 1.897448 1.374646 -2.759890 0
M  V30 10 C 1.011907 0.318740 -2.765329 0
M  V30 11 C 0.159845 0.060222 -1.714477 0
M  V30 12 C 0.192994 0.890743 -0.613173 0
M  V30 13 C 1.074363 1.956783 -0.587446 0
M  V30 14 O -0.625132 0.710861 0.489866 0
M  V30 15 C -1.893427 0.141148 0.712676 0
M  V30 16 C -2.061850 -1.214106 0.159362 0
M  V30 17 C -2.877611 -1.979296 0.984723 0
M  V30 18 C -3.130022 -3.276179 0.601184 0
M  V30 19 C -2.604531 -3.815158 -0.552346 0
M  V30 20 C -2.976294 -5.199630 -0.794138 0
M  V30 21 O -1.907781 -5.736902 -0.337802 0
M  V30 22 N -4.066712 -5.911765 -1.326553 0
M  V30 23 C -5.285530 -5.373678 -1.854078 0
M  V30 24 C -6.239387 -6.439077 -2.321257 0
M  V30 25 O -5.673310 -7.448964 -3.040752 0
M  V30 26 C -4.378899 -7.779943 -2.739874 0
M  V30 27 C -3.950880 -7.334560 -1.341135 0
M  V30 28 C -1.798897 -3.049976 -1.362716 0
M  V30 29 C -1.522630 -1.733879 -1.004810 0
M  V30 30 C -0.648235 -1.121958 -2.011497 0
M  V30 31 O -0.617471 -1.653879 -3.148727 0
M  V30 32 C 3.641568 5.340653 -0.485575 0
M  V30 33 C 4.120095 5.974981 0.630591 0
M  V30 34 C 4.281868 5.355685 1.849021 0
M  V30 35 F 4.753124 5.983411 2.958701 0
M  V30 36 C 3.409684 2.258761 5.327868 0
M  V30 37 C 2.608507 1.992899 6.353092 0
M  V30 38 C 3.018154 1.191454 7.385993 0
M  V30 39 C 4.341261 0.680942 7.270852 0
M  V30 40 S 4.917010 1.422663 5.620250 0
M  V30 41 H 5.023679 2.829407 3.194749 0
M  V30 42 H 3.219016 2.317696 0.955891 0
M  V30 43 H 3.049033 3.719312 -2.465998 0
M  V30 44 H 2.585443 1.608931 -3.574292 0
M  V30 45 H 1.005923 -0.327199 -3.653033 0
M  V30 46 H 0.981670 2.529355 0.335653 0
M  V30 47 H -1.971563 0.038002 1.834641 0
M  V30 48 H -2.744229 0.827147 0.442238 0
M  V30 49 H -3.300376 -1.571014 1.895601 0
M  V30 50 H -3.780111 -3.841871 1.283936 0
M  V30 51 H -5.812784 -4.849568 -1.015357 0
M  V30 52 H -5.062506 -4.610175 -2.608800 0
M  V30 53 H -6.708353 -6.887014 -1.416202 0
M  V30 54 H -7.053867 -5.937843 -2.883101 0
M  V30 55 H -3.648878 -7.356184 -3.446923 0
M  V30 56 H -4.307848 -8.893843 -2.801450 0
M  V30 57 H -4.665746 -7.831037 -0.631122 0
M  V30 58 H -2.927730 -7.701388 -1.198158 0
M  V30 59 H -1.404256 -3.481490 -2.247547 0
M  V30 60 H 3.553099 5.922215 -1.394341 0
M  V30 61 H 4.413820 7.034522 0.634418 0
M  V30 62 H 1.583207 2.395338 6.431991 0
M  V30 63 H 2.497119 0.881830 8.280280 0
M  V30 64 H 4.887418 0.007303 7.992198 0
M  V30 END ATOM
M  V30 BEGIN BOND
M  V30 1 2 1 2
M  V30 2 1 2 3
M  V30 3 1 3 4
M  V30 4 2 4 5
M  V30 5 1 5 6
M  V30 6 1 6 7
M  V30 7 1 7 8
M  V30 8 2 8 9
M  V30 9 1 9 10
M  V30 10 2 10 11
M  V30 11 1 11 12
M  V30 12 2 12 13
M  V30 13 1 12 14
M  V30 14 1 14 15
M  V30 15 1 15 16
M  V30 16 2 16 17
M  V30 17 1 17 18
M  V30 18 2 18 19
M  V30 19 1 19 20
M  V30 20 2 20 21
M  V30 21 1 20 22
M  V30 22 1 22 23
M  V30 23 1 23 24
M  V30 24 1 24 25
M  V30 25 1 25 26
M  V30 26 1 26 27
M  V30 27 1 19 28
M  V30 28 2 28 29
M  V30 29 1 29 30
M  V30 30 2 30 31
M  V30 31 2 6 32
M  V30 32 1 32 33
M  V30 33 2 33 34
M  V30 34 1 34 35
M  V30 35 1 2 36
M  V30 36 2 36 37
M  V30 37 1 37 38
M  V30 38 2 38 39
M  V30 39 1 39 40
M  V30 40 1 34 4
M  V30 41 1 40 36
M  V30 42 1 13 8
M  V30 43 1 29 16
M  V30 44 1 30 11
M  V30 45 1 27 22
M  V30 46 1 3 41
M  V30 47 1 5 42
M  V30 48 1 7 43
M  V30 49 1 9 44
M  V30 50 1 10 45
M  V30 51 1 13 46
M  V30 52 1 15 47
M  V30 53 1 15 48
M  V30 54 1 17 49
M  V30 55 1 18 50
M  V30 56 1 23 51
M  V30 57 1 23 52
M  V30 58 1 24 53
M  V30 59 1 24 54
M  V30 60 1 26 55
M  V30 61 1 26 56
M  V30 62 1 27 57
M  V30 63 1 27 58
M  V30 64 1 28 59
M  V30 65 1 32 60
M  V30 66 1 33 61
M  V30 67 1 37 62
M  V30 68 1 38 63
M  V30 69 1 39 64
M  V30 END BOND
M  V30 END CTAB
M  END
>  <Dataset>  (891) 
ChEMBL_Kinases

>  <Ligand_Instance>  (891) 
nan

>  <PDB_ID>  (891) 
nan

>  <Standardized_SMILES>  (891) 
O=C(Nc1cc(Nc2ccc3c(c2)OCc2ccc(C(=O)N4CCOCC4)cc2C3=O)ccc1F)c1cccs1

>  <Name>  (891) 
nan

>  <Pocket>  (891) 
nan

>  <ATP_Site>  (891) 
nan

>  <Peripheral>  (891) 
nan

>  <Num_H_Atoms_ProtBoundConf>  (891) 
nan

>  <Num_Resolved_Atoms>  (891) 
nan

>  <Num_Not_Resolved_Atoms>  (891) 
nan

$$$$
CHEMBL4860928
     RDKit          3D

  0  0  0  0  0  0  0  0  0  0999 V3000
M  V30 BEGIN CTAB
M  V30 COUNTS 53 56 0 0 0
M  V30 BEGIN ATOM
M  V30 1 C 4.973142 -3.268016 1.658227 0
M  V30 2 O 4.136825 -2.160435 1.509907 0
M  V30 3 C 2.812183 -2.335837 1.143200 0
M  V30 4 C 2.323708 -3.599354 0.926023 0
M  V30 5 C 1.036506 -3.824211 0.566268 0
M  V30 6 C 0.180292 -2.754984 0.410101 0
M  V30 7 C 0.705150 -1.482519 0.637292 0
M  V30 8 C 2.003205 -1.205131 1.003978 0
M  V30 9 N 2.499979 0.108667 1.210902 0
M  V30 10 C 1.818742 1.355843 1.186295 0
M  V30 11 N 2.597987 2.454504 1.292191 0
M  V30 12 C 2.139067 3.705748 1.295877 0
M  V30 13 C 0.777458 3.843853 1.182911 0
M  V30 14 C 0.196567 5.211279 1.180607 0
M  V30 15 C -0.072987 2.738071 1.071285 0
M  V30 16 N -1.447000 2.974207 0.947113 0
M  V30 17 C -2.515719 2.058726 0.937327 0
M  V30 18 C -2.394959 0.783590 1.459078 0
M  V30 19 C -3.373586 -0.187158 1.483271 0
M  V30 20 C -4.603566 0.131909 0.935135 0
M  V30 21 C -4.791290 1.406898 0.390594 0
M  V30 22 C -3.750541 2.309750 0.413415 0
M  V30 23 N 0.502270 1.527079 1.078768 0
M  V30 24 C -1.212557 -2.966350 0.026919 0
M  V30 25 N -1.490832 -4.069176 -0.822049 0
M  V30 26 C -1.972515 -3.600595 -2.102641 0
M  V30 27 C -0.364740 -4.915823 -1.021222 0
M  V30 28 C 0.386302 -5.157521 0.296174 0
M  V30 29 H 5.239374 -3.760077 0.687887 0
M  V30 30 H 4.505983 -4.055305 2.289821 0
M  V30 31 H 5.950170 -3.020718 2.123243 0
M  V30 32 H 2.948734 -4.452416 1.034725 0
M  V30 33 H 0.003403 -0.683468 0.494099 0
M  V30 34 H 3.547393 0.111403 1.413180 0
M  V30 35 H 2.815894 4.541615 1.383516 0
M  V30 36 H 0.982671 5.961690 1.228285 0
M  V30 37 H -0.400324 5.397332 0.254942 0
M  V30 38 H -0.462545 5.301790 2.090708 0
M  V30 39 H -1.793639 3.969536 0.842595 0
M  V30 40 H -1.462140 0.479054 1.910744 0
M  V30 41 H -3.206187 -1.166276 1.909258 0
M  V30 42 H -5.422390 -0.556312 0.908532 0
M  V30 43 H -5.756693 1.649025 -0.036243 0
M  V30 44 H -3.959854 3.279484 -0.024251 0
M  V30 45 H -1.599081 -2.008136 -0.416189 0
M  V30 46 H -1.793156 -3.072514 0.986315 0
M  V30 47 H -2.984286 -3.998131 -2.290957 0
M  V30 48 H -1.992095 -2.496704 -2.133700 0
M  V30 49 H -1.264397 -3.908580 -2.918332 0
M  V30 50 H 0.359483 -4.367872 -1.677777 0
M  V30 51 H -0.582628 -5.859686 -1.532825 0
M  V30 52 H 1.128817 -5.954806 0.128357 0
M  V30 53 H -0.315534 -5.426923 1.114722 0
M  V30 END ATOM
M  V30 BEGIN BOND
M  V30 1 1 1 2
M  V30 2 1 2 3
M  V30 3 2 3 4
M  V30 4 1 4 5
M  V30 5 2 5 6
M  V30 6 1 6 7
M  V30 7 2 7 8
M  V30 8 1 8 9
M  V30 9 1 9 10
M  V30 10 2 10 11
M  V30 11 1 11 12
M  V30 12 2 12 13
M  V30 13 1 13 14
M  V30 14 1 13 15
M  V30 15 1 15 16
M  V30 16 1 16 17
M  V30 17 2 17 18
M  V30 18 1 18 19
M  V30 19 2 19 20
M  V30 20 1 20 21
M  V30 21 2 21 22
M  V30 22 2 15 23
M  V30 23 1 6 24
M  V30 24 1 24 25
M  V30 25 1 25 26
M  V30 26 1 25 27
M  V30 27 1 27 28
M  V30 28 1 8 3
M  V30 29 1 23 10
M  V30 30 1 28 5
M  V30 31 1 22 17
M  V30 32 1 1 29
M  V30 33 1 1 30
M  V30 34 1 1 31
M  V30 35 1 4 32
M  V30 36 1 7 33
M  V30 37 1 9 34
M  V30 38 1 12 35
M  V30 39 1 14 36
M  V30 40 1 14 37
M  V30 41 1 14 38
M  V30 42 1 16 39
M  V30 43 1 18 40
M  V30 44 1 19 41
M  V30 45 1 20 42
M  V30 46 1 21 43
M  V30 47 1 22 44
M  V30 48 1 24 45
M  V30 49 1 24 46
M  V30 50 1 26 47
M  V30 51 1 26 48
M  V30 52 1 26 49
M  V30 53 1 27 50
M  V30 54 1 27 51
M  V30 55 1 28 52
M  V30 56 1 28 53
M  V30 END BOND
M  V30 END CTAB
M  END
>  <Dataset>  (892) 
ChEMBL_Kinases

>  <Ligand_Instance>  (892) 
nan

>  <PDB_ID>  (892) 
nan

>  <Standardized_SMILES>  (892) 
COc1cc2c(cc1Nc1ncc(C)c(Nc3ccccc3)n1)CN(C)CC2

>  <Name>  (892) 
nan

>  <Pocket>  (892) 
nan

>  <ATP_Site>  (892) 
nan

>  <Peripheral>  (892) 
nan

>  <Num_H_Atoms_ProtBoundConf>  (892) 
nan

>  <Num_Resolved_Atoms>  (892) 
nan

>  <Num_Not_Resolved_Atoms>  (892) 
nan

$$$$
CHEMBL4067866
     RDKit          3D

  0  0  0  0  0  0  0  0  0  0999 V3000
M  V30 BEGIN CTAB
M  V30 COUNTS 86 88 0 0 0
M  V30 BEGIN ATOM
M  V30 1 O 3.923437 -2.516545 7.995083 0
M  V30 2 C 3.816416 -3.759674 7.843678 0
M  V30 3 O 3.396390 -4.483607 8.969087 0
M  V30 4 C 4.043702 -4.677569 6.695111 0
M  V30 5 C 4.505952 -3.964561 5.445975 0 CFG=2
M  V30 6 N 3.543549 -2.980372 4.989618 0
M  V30 7 C 3.954653 -1.732911 4.457255 0
M  V30 8 O 5.232873 -1.670088 4.464454 0
M  V30 9 C 2.896084 -0.795192 4.016233 0 CFG=2
M  V30 10 C 3.160059 0.599640 4.522288 0
M  V30 11 C 4.452552 1.135670 4.026779 0
M  V30 12 O 4.815487 2.294394 4.339048 0
M  V30 13 O 5.497546 0.655155 3.215731 0
M  V30 14 N 1.560370 -1.218378 4.285260 0
M  V30 15 C 0.687013 -1.589744 3.240006 0
M  V30 16 O 0.818905 -1.658051 1.977469 0
M  V30 17 C -0.740985 -2.055010 3.135390 0 CFG=2
M  V30 18 C -1.103333 -3.084396 4.161146 0
M  V30 19 C -2.522227 -3.547438 4.062112 0
M  V30 20 O -2.985991 -4.386594 3.246756 0
M  V30 21 O -3.552097 -3.083578 4.905517 0
M  V30 22 N -1.075873 -2.371577 1.785895 0
M  V30 23 C -1.666354 -1.470983 0.825930 0
M  V30 24 O -1.909123 -0.275421 1.206054 0
M  V30 25 C -1.881430 -2.132722 -0.466641 0
M  V30 26 C -2.161134 -1.137384 -1.595025 0
M  V30 27 C -2.397643 -1.941416 -2.852919 0
M  V30 28 C -2.620291 -1.103436 -4.066448 0
M  V30 29 C -3.781339 -0.180929 -3.886255 0
M  V30 30 C -4.040071 0.688044 -5.109939 0
M  V30 31 N -2.932028 1.504660 -5.491100 0
M  V30 32 C -2.070757 0.989713 -6.410385 0
M  V30 33 O -2.197580 -0.150534 -6.952722 0
M  V30 34 C -0.948233 1.640781 -6.873129 0
M  V30 35 C -0.079412 1.114620 -7.805868 0
M  V30 36 C 1.030632 1.799048 -8.240682 0
M  V30 37 N 1.308699 3.035802 -7.755157 0
M  V30 38 C 0.461402 3.577483 -6.830479 0
M  V30 39 C -0.646192 2.893144 -6.397058 0
M  V30 40 C -1.491927 3.444304 -5.466748 0
M  V30 41 C -1.237464 4.691786 -4.958831 0
M  V30 42 C -2.080975 5.269531 -4.016540 0
M  V30 43 C -3.188038 4.528796 -3.614410 0
M  V30 44 C -4.078063 5.149186 -2.612383 0
M  V30 45 O -3.806089 6.282178 -2.180392 0
M  V30 46 O -5.199141 4.465296 -2.166900 0
M  V30 47 C -3.466332 3.266827 -4.112720 0
M  V30 48 C -2.590471 2.729434 -5.057945 0
M  V30 49 C 4.448632 -5.038092 4.368868 0
M  V30 50 O 5.194657 -6.042776 4.493920 0
M  V30 51 O 4.251648 -5.891589 3.299128 0
M  V30 52 H 3.483834 -4.034760 9.879942 0
M  V30 53 H 4.735818 -5.500768 6.909850 0
M  V30 54 H 3.070949 -5.193277 6.432895 0
M  V30 55 H 5.547514 -3.602708 5.477489 0
M  V30 56 H 2.556499 -3.325675 5.113060 0
M  V30 57 H 2.931608 -0.691376 2.877891 0
M  V30 58 H 3.244615 0.624095 5.643212 0
M  V30 59 H 2.337969 1.299519 4.289446 0
M  V30 60 H 5.574388 0.953017 2.243641 0
M  V30 61 H 0.995077 -1.339331 5.150977 0
M  V30 62 H -1.364664 -1.130613 3.376786 0
M  V30 63 H -1.007717 -2.615327 5.184193 0
M  V30 64 H -0.489813 -4.000451 4.096780 0
M  V30 65 H -4.421919 -2.743976 4.516846 0
M  V30 66 H -0.816860 -3.371661 1.619403 0
M  V30 67 H -0.927711 -2.651574 -0.746377 0
M  V30 68 H -2.697110 -2.885019 -0.428011 0
M  V30 69 H -3.063498 -0.534891 -1.308733 0
M  V30 70 H -1.312949 -0.440029 -1.676878 0
M  V30 71 H -1.519984 -2.617250 -2.956190 0
M  V30 72 H -3.331054 -2.524483 -2.659153 0
M  V30 73 H -2.820021 -1.813684 -4.919137 0
M  V30 74 H -1.669789 -0.591680 -4.299135 0
M  V30 75 H -4.691106 -0.810212 -3.758147 0
M  V30 76 H -3.643710 0.446539 -2.978618 0
M  V30 77 H -4.280925 -0.018045 -5.942612 0
M  V30 78 H -4.990515 1.238529 -4.933525 0
M  V30 79 H -0.273245 0.140395 -8.199941 0
M  V30 80 H 1.703929 1.362963 -8.978160 0
M  V30 81 H 0.770096 4.554630 -6.512359 0
M  V30 82 H -0.407791 5.323766 -5.221274 0
M  V30 83 H -1.879468 6.265145 -3.610406 0
M  V30 84 H -5.673263 4.703884 -1.303292 0
M  V30 85 H -4.336159 2.746834 -3.757631 0
M  V30 86 H 4.004386 -5.565447 2.371430 0
M  V30 END ATOM
M  V30 BEGIN BOND
M  V30 1 2 1 2
M  V30 2 1 2 3
M  V30 3 1 2 4
M  V30 4 1 4 5
M  V30 5 1 5 6
M  V30 6 1 6 7
M  V30 7 2 7 8
M  V30 8 1 7 9
M  V30 9 1 9 10
M  V30 10 1 10 11
M  V30 11 2 11 12
M  V30 12 1 11 13
M  V30 13 1 9 14
M  V30 14 1 14 15
M  V30 15 2 15 16
M  V30 16 1 15 17
M  V30 17 1 17 18
M  V30 18 1 18 19
M  V30 19 2 19 20
M  V30 20 1 19 21
M  V30 21 1 17 22
M  V30 22 1 22 23
M  V30 23 2 23 24
M  V30 24 1 23 25
M  V30 25 1 25 26
M  V30 26 1 26 27
M  V30 27 1 27 28
M  V30 28 1 28 29
M  V30 29 1 29 30
M  V30 30 1 30 31
M  V30 31 1 31 32
M  V30 32 2 32 33
M  V30 33 1 32 34
M  V30 34 2 34 35
M  V30 35 1 35 36
M  V30 36 2 36 37
M  V30 37 1 37 38
M  V30 38 2 38 39
M  V30 39 1 39 40
M  V30 40 2 40 41
M  V30 41 1 41 42
M  V30 42 2 42 43
M  V30 43 1 43 44
M  V30 44 2 44 45
M  V30 45 1 44 46
M  V30 46 1 43 47
M  V30 47 2 47 48
M  V30 48 1 5 49
M  V30 49 2 49 50
M  V30 50 1 49 51
M  V30 51 1 48 31
M  V30 52 1 39 34
M  V30 53 1 48 40
M  V30 54 1 3 52
M  V30 55 1 4 53
M  V30 56 1 4 54
M  V30 57 1 5 55 CFG=1
M  V30 58 1 6 56
M  V30 59 1 9 57 CFG=3
M  V30 60 1 10 58
M  V30 61 1 10 59
M  V30 62 1 13 60
M  V30 63 1 14 61
M  V30 64 1 17 62 CFG=1
M  V30 65 1 18 63
M  V30 66 1 18 64
M  V30 67 1 21 65
M  V30 68 1 22 66
M  V30 69 1 25 67
M  V30 70 1 25 68
M  V30 71 1 26 69
M  V30 72 1 26 70
M  V30 73 1 27 71
M  V30 74 1 27 72
M  V30 75 1 28 73
M  V30 76 1 28 74
M  V30 77 1 29 75
M  V30 78 1 29 76
M  V30 79 1 30 77
M  V30 80 1 30 78
M  V30 81 1 35 79
M  V30 82 1 36 80
M  V30 83 1 38 81
M  V30 84 1 41 82
M  V30 85 1 42 83
M  V30 86 1 46 84
M  V30 87 1 47 85
M  V30 88 1 51 86
M  V30 END BOND
M  V30 END CTAB
M  END
>  <Dataset>  (893) 
ChEMBL_Kinases

>  <Ligand_Instance>  (893) 
nan

>  <PDB_ID>  (893) 
nan

>  <Standardized_SMILES>  (893) 
O=C(O)C[C@H](NC(=O)[C@H](CC(=O)O)NC(=O)[C@H](CC(=O)O)NC(=O)CCCCCCn1c(=O)c2ccncc2c2ccc(C(=O)O)cc21)C(=O)O

>  <Name>  (893) 
nan

>  <Pocket>  (893) 
nan

>  <ATP_Site>  (893) 
nan

>  <Peripheral>  (893) 
nan

>  <Num_H_Atoms_ProtBoundConf>  (893) 
nan

>  <Num_Resolved_Atoms>  (893) 
nan

>  <Num_Not_Resolved_Atoms>  (893) 
nan

$$$$
CHEMBL4860957
     RDKit          3D

  0  0  0  0  0  0  0  0  0  0999 V3000
M  V30 BEGIN CTAB
M  V30 COUNTS 47 51 0 0 0
M  V30 BEGIN ATOM
M  V30 1 O -0.607156 -3.241214 5.016333 0
M  V30 2 C 0.535414 -2.654153 4.439895 0
M  V30 3 C 1.514028 -3.451040 3.887554 0
M  V30 4 F 1.440105 -4.797482 3.864672 0
M  V30 5 C 2.633740 -2.830973 3.321228 0
M  V30 6 C 2.787109 -1.469511 3.299505 0
M  V30 7 N 3.908176 -0.771631 2.748819 0
M  V30 8 C 3.771057 0.608122 2.445082 0
M  V30 9 N 4.595161 1.653174 2.624996 0
M  V30 10 C 4.227974 2.902126 2.209279 0
M  V30 11 C 3.007670 3.108779 1.600045 0
M  V30 12 N 2.386067 4.200441 1.095989 0
M  V30 13 C 1.178424 3.799293 0.610177 0
M  V30 14 N 1.031659 2.480357 0.800219 0
M  V30 15 C -0.081093 1.674973 0.424448 0
M  V30 16 C -1.097871 2.174449 -0.357590 0
M  V30 17 C -2.195566 1.464273 -0.771052 0
M  V30 18 C -2.324627 0.144519 -0.391962 0
M  V30 19 O -3.301677 -0.843020 -0.641142 0
M  V30 20 C -3.116395 -1.709735 -1.727078 0
M  V30 21 C -2.078642 -1.634949 -2.649485 0
M  V30 22 C -1.965296 -2.529644 -3.691725 0
M  V30 23 C -2.915062 -3.543473 -3.833309 0
M  V30 24 C -3.969385 -3.636467 -2.913723 0
M  V30 25 C -4.056659 -2.712759 -1.866390 0
M  V30 26 C -1.322680 -0.434301 0.409865 0
M  V30 27 C -0.243090 0.356826 0.782744 0
M  V30 28 C 2.155734 2.045286 1.411234 0
M  V30 29 N 2.616548 0.887950 1.853108 0
M  V30 30 C 1.761281 -0.707798 3.876601 0
M  V30 31 C 0.645296 -1.287568 4.442145 0
M  V30 32 F -0.360508 -0.571273 5.008555 0
M  V30 33 H -1.464124 -3.066764 4.466880 0
M  V30 34 H 3.461915 -3.364040 2.854793 0
M  V30 35 H 4.762599 -1.347628 2.609540 0
M  V30 36 H 4.931701 3.701223 2.382327 0
M  V30 37 H 0.455571 4.478765 0.144784 0
M  V30 38 H -1.075596 3.198317 -0.698636 0
M  V30 39 H -3.029476 1.760670 -1.372267 0
M  V30 40 H -1.356554 -0.818231 -2.497184 0
M  V30 41 H -1.150157 -2.457077 -4.402829 0
M  V30 42 H -2.870311 -4.264727 -4.627308 0
M  V30 43 H -4.725690 -4.411280 -2.997656 0
M  V30 44 H -4.890417 -2.837233 -1.190770 0
M  V30 45 H -1.298981 -1.471656 0.783262 0
M  V30 46 H 0.535186 -0.084613 1.395968 0
M  V30 47 H 1.744685 0.366426 3.941653 0
M  V30 END ATOM
M  V30 BEGIN BOND
M  V30 1 1 1 2
M  V30 2 2 2 3
M  V30 3 1 3 4
M  V30 4 1 3 5
M  V30 5 2 5 6
M  V30 6 1 6 7
M  V30 7 1 7 8
M  V30 8 2 8 9
M  V30 9 1 9 10
M  V30 10 2 10 11
M  V30 11 1 11 12
M  V30 12 2 12 13
M  V30 13 1 13 14
M  V30 14 1 14 15
M  V30 15 2 15 16
M  V30 16 1 16 17
M  V30 17 2 17 18
M  V30 18 1 18 19
M  V30 19 1 19 20
M  V30 20 2 20 21
M  V30 21 1 21 22
M  V30 22 2 22 23
M  V30 23 1 23 24
M  V30 24 2 24 25
M  V30 25 1 18 26
M  V30 26 2 26 27
M  V30 27 1 14 28
M  V30 28 2 28 29
M  V30 29 1 6 30
M  V30 30 2 30 31
M  V30 31 1 31 32
M  V30 32 1 31 2
M  V30 33 1 29 8
M  V30 34 1 28 11
M  V30 35 1 27 15
M  V30 36 1 25 20
M  V30 37 1 1 33
M  V30 38 1 5 34
M  V30 39 1 7 35
M  V30 40 1 10 36
M  V30 41 1 13 37
M  V30 42 1 16 38
M  V30 43 1 17 39
M  V30 44 1 21 40
M  V30 45 1 22 41
M  V30 46 1 23 42
M  V30 47 1 24 43
M  V30 48 1 25 44
M  V30 49 1 26 45
M  V30 50 1 27 46
M  V30 51 1 30 47
M  V30 END BOND
M  V30 END CTAB
M  END
>  <Dataset>  (894) 
ChEMBL_Kinases

>  <Ligand_Instance>  (894) 
nan

>  <PDB_ID>  (894) 
nan

>  <Standardized_SMILES>  (894) 
Oc1c(F)cc(Nc2ncc3ncn(-c4ccc(Oc5ccccc5)cc4)c3n2)cc1F

>  <Name>  (894) 
nan

>  <Pocket>  (894) 
nan

>  <ATP_Site>  (894) 
nan

>  <Peripheral>  (894) 
nan

>  <Num_H_Atoms_ProtBoundConf>  (894) 
nan

>  <Num_Resolved_Atoms>  (894) 
nan

>  <Num_Not_Resolved_Atoms>  (894) 
nan

$$$$
CHEMBL4860970
     RDKit          3D

  0  0  0  0  0  0  0  0  0  0999 V3000
M  V30 BEGIN CTAB
M  V30 COUNTS 47 50 0 0 0
M  V30 BEGIN ATOM
M  V30 1 N 0.827424 -6.841196 3.962274 0
M  V30 2 C 0.610338 -6.213402 2.662889 0
M  V30 3 O 0.506756 -7.436356 2.452925 0
M  V30 4 C 0.693007 -4.773977 2.699534 0
M  V30 5 C 1.010156 -4.086141 3.880854 0
M  V30 6 C 1.060869 -2.736919 3.732581 0
M  V30 7 C 0.823390 -2.112947 2.538561 0
M  V30 8 C 0.523944 -2.850062 1.446797 0
M  V30 9 C 0.295421 -2.129862 0.308616 0
M  V30 10 N 0.387710 -0.752862 0.040206 0
M  V30 11 C 0.340342 0.502969 -0.634810 0 CFG=2
M  V30 12 C 1.308295 1.492323 -0.050485 0
M  V30 13 N 1.378480 2.776835 -0.597349 0
M  V30 14 C 0.395699 3.758950 -0.481784 0
M  V30 15 C 1.195452 4.456634 0.617058 0
M  V30 16 C 2.326594 3.622087 0.077911 0
M  V30 17 C -1.064312 0.975900 -0.673843 0
M  V30 18 C -1.790459 1.462007 -1.755093 0
M  V30 19 C -3.099020 1.874655 -1.635969 0
M  V30 20 C -3.632186 1.771254 -0.370264 0
M  V30 21 F -4.935212 2.160888 -0.167629 0
M  V30 22 C -2.975955 1.300869 0.737682 0
M  V30 23 F -3.575918 1.233158 1.954395 0
M  V30 24 C -1.658423 0.895611 0.572647 0
M  V30 25 N -0.019155 -2.796403 -0.806226 0
M  V30 26 C -0.110121 -4.164743 -0.816215 0
M  V30 27 N 0.128457 -4.802051 0.335013 0
M  V30 28 C 0.442563 -4.201397 1.468543 0
M  V30 29 H 1.703733 -6.700777 4.534314 0
M  V30 30 H 1.718427 -6.694160 4.536856 0
M  V30 31 H 1.187065 -4.622014 4.791874 0
M  V30 32 H 1.309821 -2.232644 4.676090 0
M  V30 33 H 0.912748 -1.048660 2.637443 0
M  V30 34 H 0.668043 -0.368094 0.938846 0
M  V30 35 H 0.626000 0.361929 -1.715081 0
M  V30 36 H 2.317163 1.015517 -0.294435 0
M  V30 37 H 1.326535 1.447490 1.072816 0
M  V30 38 H -0.635891 3.510064 -0.165591 0
M  V30 39 H 0.401770 4.442785 -1.378194 0
M  V30 40 H 0.884909 4.211639 1.656379 0
M  V30 41 H 1.310143 5.549206 0.487938 0
M  V30 42 H 2.929044 3.124384 0.878316 0
M  V30 43 H 2.946157 4.195178 -0.648783 0
M  V30 44 H -1.236718 1.481094 -2.691309 0
M  V30 45 H -3.634480 2.245713 -2.498472 0
M  V30 46 H -1.183298 0.532645 1.475358 0
M  V30 47 H -0.355222 -4.781386 -1.671586 0
M  V30 END ATOM
M  V30 BEGIN BOND
M  V30 1 1 1 2
M  V30 2 2 2 3
M  V30 3 1 2 4
M  V30 4 2 4 5
M  V30 5 1 5 6
M  V30 6 2 6 7
M  V30 7 1 7 8
M  V30 8 2 8 9
M  V30 9 1 9 10
M  V30 10 1 10 11
M  V30 11 1 11 12
M  V30 12 1 12 13
M  V30 13 1 13 14
M  V30 14 1 14 15
M  V30 15 1 15 16
M  V30 16 1 11 17
M  V30 17 2 17 18
M  V30 18 1 18 19
M  V30 19 2 19 20
M  V30 20 1 20 21
M  V30 21 1 20 22
M  V30 22 1 22 23
M  V30 23 2 22 24
M  V30 24 1 9 25
M  V30 25 2 25 26
M  V30 26 1 26 27
M  V30 27 2 27 28
M  V30 28 1 28 4
M  V30 29 1 28 8
M  V30 30 1 16 13
M  V30 31 1 24 17
M  V30 32 1 1 29
M  V30 33 1 1 30
M  V30 34 1 5 31
M  V30 35 1 6 32
M  V30 36 1 7 33
M  V30 37 1 10 34
M  V30 38 1 11 35 CFG=3
M  V30 39 1 12 36
M  V30 40 1 12 37
M  V30 41 1 14 38
M  V30 42 1 14 39
M  V30 43 1 15 40
M  V30 44 1 15 41
M  V30 45 1 16 42
M  V30 46 1 16 43
M  V30 47 1 18 44
M  V30 48 1 19 45
M  V30 49 1 24 46
M  V30 50 1 26 47
M  V30 END BOND
M  V30 END CTAB
M  END
>  <Dataset>  (895) 
ChEMBL_Kinases

>  <Ligand_Instance>  (895) 
nan

>  <PDB_ID>  (895) 
nan

>  <Standardized_SMILES>  (895) 
NC(=O)c1cccc2c(N[C@H](CN3CCC3)c3ccc(F)c(F)c3)ncnc12

>  <Name>  (895) 
nan

>  <Pocket>  (895) 
nan

>  <ATP_Site>  (895) 
nan

>  <Peripheral>  (895) 
nan

>  <Num_H_Atoms_ProtBoundConf>  (895) 
nan

>  <Num_Resolved_Atoms>  (895) 
nan

>  <Num_Not_Resolved_Atoms>  (895) 
nan

$$$$
CHEMBL4067770
     RDKit          3D

  0  0  0  0  0  0  0  0  0  0999 V3000
M  V30 BEGIN CTAB
M  V30 COUNTS 47 50 0 0 0
M  V30 BEGIN ATOM
M  V30 1 N 1.363371 -4.816465 4.129897 0
M  V30 2 C 0.428309 -4.175416 3.270790 0
M  V30 3 O -0.687392 -4.729855 3.271052 0
M  V30 4 C 0.816035 -2.997250 2.504815 0
M  V30 5 C 2.099209 -2.504966 2.617427 0
M  V30 6 C 2.395776 -1.389742 1.865178 0
M  V30 7 C 1.533043 -0.728441 1.018759 0
M  V30 8 N 1.873783 0.426631 0.265835 0
M  V30 9 C 3.103041 1.154409 0.233312 0 CFG=1
M  V30 10 C 3.061366 2.237959 -0.834716 0
M  V30 11 C 2.593097 3.549342 -0.292626 0
M  V30 12 C 1.523755 3.372250 0.746500 0
M  V30 13 N 1.991103 2.527688 1.824500 0
M  V30 14 C 3.271488 1.946113 1.541825 0
M  V30 15 C 0.266333 -1.271906 0.952035 0
M  V30 16 C -0.858800 -0.889440 0.220514 0
M  V30 17 C -1.887899 -1.766192 0.504478 0
M  V30 18 C -3.229892 -1.691392 -0.071691 0
M  V30 19 C -3.558613 -0.689383 -0.977212 0
M  V30 20 C -4.827171 -0.626858 -1.515506 0
M  V30 21 C -5.804111 -1.555138 -1.171304 0
M  V30 22 C -5.472023 -2.556144 -0.265266 0
M  V30 23 F -6.470315 -3.421265 0.021612 0
M  V30 24 C -4.190030 -2.618706 0.278243 0
M  V30 25 N -1.384303 -2.649695 1.385366 0
M  V30 26 C -0.098875 -2.386039 1.676730 0
M  V30 27 H 1.614332 -4.207360 4.947865 0
M  V30 28 H 1.692225 -5.788148 3.870900 0
M  V30 29 H 2.822951 -2.979043 3.265163 0
M  V30 30 H 3.412195 -1.042550 1.976282 0
M  V30 31 H 1.097177 0.796100 -0.362239 0
M  V30 32 H 3.994523 0.543094 0.041104 0
M  V30 33 H 2.373769 1.964108 -1.677016 0
M  V30 34 H 4.074309 2.398047 -1.286750 0
M  V30 35 H 2.167398 4.185267 -1.121932 0
M  V30 36 H 3.423512 4.153015 0.153423 0
M  V30 37 H 0.566510 3.034032 0.294831 0
M  V30 38 H 1.263739 4.386626 1.174545 0
M  V30 39 H 1.961373 2.998246 2.747459 0
M  V30 40 H 4.085101 2.686450 1.392324 0
M  V30 41 H 3.600156 1.268559 2.317761 0
M  V30 42 H -0.876681 -0.051652 -0.437347 0
M  V30 43 H -2.793770 0.051793 -1.257889 0
M  V30 44 H -5.009948 0.187722 -2.219058 0
M  V30 45 H -6.770530 -1.429613 -1.641912 0
M  V30 46 H -4.012424 -3.413802 0.964661 0
M  V30 47 H -1.946117 -3.435264 1.778873 0
M  V30 END ATOM
M  V30 BEGIN BOND
M  V30 1 1 1 2
M  V30 2 2 2 3
M  V30 3 1 2 4
M  V30 4 2 4 5
M  V30 5 1 5 6
M  V30 6 2 6 7
M  V30 7 1 7 8
M  V30 8 1 8 9
M  V30 9 1 9 10
M  V30 10 1 10 11
M  V30 11 1 11 12
M  V30 12 1 12 13
M  V30 13 1 13 14
M  V30 14 1 7 15
M  V30 15 1 15 16
M  V30 16 2 16 17
M  V30 17 1 17 18
M  V30 18 2 18 19
M  V30 19 1 19 20
M  V30 20 2 20 21
M  V30 21 1 21 22
M  V30 22 1 22 23
M  V30 23 2 22 24
M  V30 24 1 17 25
M  V30 25 1 25 26
M  V30 26 1 26 4
M  V30 27 1 14 9
M  V30 28 2 26 15
M  V30 29 1 24 18
M  V30 30 1 1 27
M  V30 31 1 1 28
M  V30 32 1 5 29
M  V30 33 1 6 30
M  V30 34 1 8 31
M  V30 35 1 9 32 CFG=3
M  V30 36 1 10 33
M  V30 37 1 10 34
M  V30 38 1 11 35
M  V30 39 1 11 36
M  V30 40 1 12 37
M  V30 41 1 12 38
M  V30 42 1 13 39
M  V30 43 1 14 40
M  V30 44 1 14 41
M  V30 45 1 16 42
M  V30 46 1 19 43
M  V30 47 1 20 44
M  V30 48 1 21 45
M  V30 49 1 24 46
M  V30 50 1 25 47
M  V30 END BOND
M  V30 END CTAB
M  END
>  <Dataset>  (896) 
ChEMBL_Kinases

>  <Ligand_Instance>  (896) 
nan

>  <PDB_ID>  (896) 
nan

>  <Standardized_SMILES>  (896) 
NC(=O)c1ccc(N[C@H]2CCCNC2)c2cc(-c3cccc(F)c3)[nH]c12

>  <Name>  (896) 
nan

>  <Pocket>  (896) 
nan

>  <ATP_Site>  (896) 
nan

>  <Peripheral>  (896) 
nan

>  <Num_H_Atoms_ProtBoundConf>  (896) 
nan

>  <Num_Resolved_Atoms>  (896) 
nan

>  <Num_Not_Resolved_Atoms>  (896) 
nan

$$$$
CHEMBL4067737
     RDKit          3D

  0  0  0  0  0  0  0  0  0  0999 V3000
M  V30 BEGIN CTAB
M  V30 COUNTS 47 50 0 0 0
M  V30 BEGIN ATOM
M  V30 1 C 1.050925 -0.328161 2.391445 0
M  V30 2 C 0.690786 -0.460283 0.948722 0 CFG=2
M  V30 3 C 1.796676 -0.175608 -0.014071 0
M  V30 4 N 2.313594 1.135731 0.205243 0
M  V30 5 C 3.693917 1.389276 -0.018955 0
M  V30 6 N 4.433894 0.341069 -0.406422 0
M  V30 7 C 5.763243 0.472763 -0.653826 0
M  V30 8 C 6.350226 1.712178 -0.500005 0
M  V30 9 C 5.595109 2.799710 -0.100600 0
M  V30 10 N 4.284612 2.588633 0.125242 0
M  V30 11 C 1.307046 2.042835 0.633351 0
M  V30 12 C -0.079763 1.660954 0.154050 0
M  V30 13 N -0.475189 0.359356 0.569811 0
M  V30 14 C -1.726621 -0.296202 0.688795 0
M  V30 15 N -1.789304 -1.552434 1.164077 0
M  V30 16 C -2.877007 -2.290240 1.327948 0
M  V30 17 C -2.759050 -3.641795 1.860212 0
M  V30 18 C -1.526252 -4.155168 2.197176 0
M  V30 19 C -1.490151 -5.441050 2.692390 0
M  V30 20 N -2.600520 -6.206278 2.857864 0
M  V30 21 C -3.789679 -5.663471 2.514594 0
M  V30 22 N -3.859362 -4.397035 2.022939 0
M  V30 23 C -4.079579 -1.730285 0.981551 0
M  V30 24 C -4.103538 -0.448285 0.486829 0
M  V30 25 O -5.184775 0.065597 0.171220 0
M  V30 26 N -2.932085 0.198002 0.366948 0
M  V30 27 C -3.023528 1.539635 -0.168013 0
M  V30 28 H 2.109962 -0.005495 2.460133 0
M  V30 29 H 0.354337 0.327468 2.960070 0
M  V30 30 H 1.040893 -1.320620 2.936498 0
M  V30 31 H 0.437783 -1.554622 0.789756 0
M  V30 32 H 1.370892 -0.195656 -1.038156 0
M  V30 33 H 2.597490 -0.946526 -0.004926 0
M  V30 34 H 6.297123 -0.403492 -0.960541 0
M  V30 35 H 7.395760 1.750174 -0.709457 0
M  V30 36 H 6.061627 3.766521 0.017873 0
M  V30 37 H 1.321352 2.127997 1.729070 0
M  V30 38 H 1.476864 3.085287 0.238326 0
M  V30 39 H -0.705676 2.500071 0.508740 0
M  V30 40 H 0.015930 1.639403 -0.973157 0
M  V30 41 H -0.646613 -3.547225 2.065609 0
M  V30 42 H -0.478838 -5.785530 2.939253 0
M  V30 43 H -4.683693 -6.254951 2.637351 0
M  V30 44 H -4.984860 -2.278253 1.092753 0
M  V30 45 H -3.031040 2.310854 0.604732 0
M  V30 46 H -4.029577 1.685922 -0.686442 0
M  V30 47 H -2.313248 1.634959 -0.984402 0
M  V30 END ATOM
M  V30 BEGIN BOND
M  V30 1 1 1 2
M  V30 2 1 2 3
M  V30 3 1 3 4
M  V30 4 1 4 5
M  V30 5 2 5 6
M  V30 6 1 6 7
M  V30 7 2 7 8
M  V30 8 1 8 9
M  V30 9 2 9 10
M  V30 10 1 4 11
M  V30 11 1 11 12
M  V30 12 1 12 13
M  V30 13 1 13 14
M  V30 14 2 14 15
M  V30 15 1 15 16
M  V30 16 1 16 17
M  V30 17 2 17 18
M  V30 18 1 18 19
M  V30 19 2 19 20
M  V30 20 1 20 21
M  V30 21 2 21 22
M  V30 22 2 16 23
M  V30 23 1 23 24
M  V30 24 2 24 25
M  V30 25 1 24 26
M  V30 26 1 26 27
M  V30 27 1 13 2
M  V30 28 1 26 14
M  V30 29 1 10 5
M  V30 30 1 22 17
M  V30 31 1 1 28
M  V30 32 1 1 29
M  V30 33 1 1 30
M  V30 34 1 2 31 CFG=1
M  V30 35 1 3 32
M  V30 36 1 3 33
M  V30 37 1 7 34
M  V30 38 1 8 35
M  V30 39 1 9 36
M  V30 40 1 11 37
M  V30 41 1 11 38
M  V30 42 1 12 39
M  V30 43 1 12 40
M  V30 44 1 18 41
M  V30 45 1 19 42
M  V30 46 1 21 43
M  V30 47 1 23 44
M  V30 48 1 27 45
M  V30 49 1 27 46
M  V30 50 1 27 47
M  V30 END BOND
M  V30 END CTAB
M  END
>  <Dataset>  (897) 
ChEMBL_Kinases

>  <Ligand_Instance>  (897) 
nan

>  <PDB_ID>  (897) 
nan

>  <Standardized_SMILES>  (897) 
C[C@@H]1CN(c2ncccn2)CCN1c1nc(-c2ccncn2)cc(=O)n1C

>  <Name>  (897) 
nan

>  <Pocket>  (897) 
nan

>  <ATP_Site>  (897) 
nan

>  <Peripheral>  (897) 
nan

>  <Num_H_Atoms_ProtBoundConf>  (897) 
nan

>  <Num_Resolved_Atoms>  (897) 
nan

>  <Num_Not_Resolved_Atoms>  (897) 
nan

$$$$
CHEMBL4069074
     RDKit          3D

  0  0  0  0  0  0  0  0  0  0999 V3000
M  V30 BEGIN CTAB
M  V30 COUNTS 47 50 0 0 0
M  V30 BEGIN ATOM
M  V30 1 C 1.330345 -2.285101 4.653290 0
M  V30 2 C 0.278559 -2.653191 3.675795 0
M  V30 3 C 0.302195 -2.989036 2.320106 0
M  V30 4 C -1.001319 -3.249915 1.872195 0
M  V30 5 N -0.963721 -3.596849 0.476478 0
M  V30 6 C -0.981301 -2.376865 -0.303547 0
M  V30 7 N 0.146300 -1.706789 -0.466196 0
M  V30 8 C 0.248106 -0.557165 -1.183099 0
M  V30 9 C 1.648862 -0.087205 -1.128086 0
M  V30 10 O 2.561900 -0.792549 -1.613833 0
M  V30 11 N 1.768589 1.175255 -0.488042 0
M  V30 12 C 0.824399 2.098995 0.096159 0
M  V30 13 C 1.338884 2.825043 1.287161 0
M  V30 14 C 2.467487 2.166907 2.009953 0
M  V30 15 N 1.896793 1.213141 2.980524 0
M  V30 16 C 3.409043 1.402941 1.159203 0
M  V30 17 C 3.125619 1.698096 -0.327117 0
M  V30 18 N -0.835186 -0.044763 -1.771164 0
M  V30 19 C -2.026477 -0.685266 -1.642639 0
M  V30 20 C -3.105141 -0.130043 -2.257979 0
M  V30 21 C -4.288908 -0.825564 -2.093429 0
M  V30 22 C -4.433890 -2.002095 -1.370908 0
M  V30 23 Cl -5.972119 -2.821110 -1.213599 0
M  V30 24 C -3.304126 -2.534093 -0.757315 0
M  V30 25 C -2.110004 -1.839922 -0.918490 0
M  V30 26 N -1.798541 -3.075147 2.944114 0
M  V30 27 N -1.041875 -2.728717 3.985355 0
M  V30 28 H 1.663791 -3.113254 5.268848 0
M  V30 29 H 0.942565 -1.444561 5.250534 0
M  V30 30 H 2.181826 -1.845760 4.064098 0
M  V30 31 H 1.321989 -2.971948 1.915016 0
M  V30 32 H -0.928298 -4.548772 0.058206 0
M  V30 33 H 0.548580 2.820474 -0.709460 0
M  V30 34 H -0.098461 1.531345 0.324707 0
M  V30 35 H 1.652448 3.840332 0.972191 0
M  V30 36 H 0.501887 2.976715 2.008856 0
M  V30 37 H 3.042078 2.888591 2.624511 0
M  V30 38 H 1.037804 1.659084 3.404594 0
M  V30 39 H 1.483635 0.406516 2.421973 0
M  V30 40 H 3.363690 0.302657 1.314399 0
M  V30 41 H 4.450167 1.719373 1.346935 0
M  V30 42 H 3.850374 1.147018 -0.933107 0
M  V30 43 H 3.206495 2.772005 -0.492657 0
M  V30 44 H -3.092396 0.777869 -2.843425 0
M  V30 45 H -5.226035 -0.473577 -2.546341 0
M  V30 46 H -3.317526 -3.436894 -0.173569 0
M  V30 47 H -1.478999 -2.550480 4.920395 0
M  V30 END ATOM
M  V30 BEGIN BOND
M  V30 1 1 1 2
M  V30 2 2 2 3
M  V30 3 1 3 4
M  V30 4 1 4 5
M  V30 5 1 5 6
M  V30 6 2 6 7
M  V30 7 1 7 8
M  V30 8 1 8 9
M  V30 9 2 9 10
M  V30 10 1 9 11
M  V30 11 1 11 12
M  V30 12 1 12 13
M  V30 13 1 13 14
M  V30 14 1 14 15
M  V30 15 1 14 16
M  V30 16 1 16 17
M  V30 17 2 8 18
M  V30 18 1 18 19
M  V30 19 2 19 20
M  V30 20 1 20 21
M  V30 21 2 21 22
M  V30 22 1 22 23
M  V30 23 1 22 24
M  V30 24 2 24 25
M  V30 25 2 4 26
M  V30 26 1 26 27
M  V30 27 1 27 2
M  V30 28 1 25 6
M  V30 29 1 17 11
M  V30 30 1 25 19
M  V30 31 1 1 28
M  V30 32 1 1 29
M  V30 33 1 1 30
M  V30 34 1 3 31
M  V30 35 1 5 32
M  V30 36 1 12 33
M  V30 37 1 12 34
M  V30 38 1 13 35
M  V30 39 1 13 36
M  V30 40 1 14 37
M  V30 41 1 15 38
M  V30 42 1 15 39
M  V30 43 1 16 40
M  V30 44 1 16 41
M  V30 45 1 17 42
M  V30 46 1 17 43
M  V30 47 1 20 44
M  V30 48 1 21 45
M  V30 49 1 24 46
M  V30 50 1 27 47
M  V30 END BOND
M  V30 END CTAB
M  END
>  <Dataset>  (898) 
ChEMBL_Kinases

>  <Ligand_Instance>  (898) 
nan

>  <PDB_ID>  (898) 
nan

>  <Standardized_SMILES>  (898) 
Cc1cc(Nc2nc(C(=O)N3CCC(N)CC3)nc3ccc(Cl)cc23)n[nH]1

>  <Name>  (898) 
nan

>  <Pocket>  (898) 
nan

>  <ATP_Site>  (898) 
nan

>  <Peripheral>  (898) 
nan

>  <Num_H_Atoms_ProtBoundConf>  (898) 
nan

>  <Num_Resolved_Atoms>  (898) 
nan

>  <Num_Not_Resolved_Atoms>  (898) 
nan

$$$$
CHEMBL486100
     RDKit          3D

  0  0  0  0  0  0  0  0  0  0999 V3000
M  V30 BEGIN CTAB
M  V30 COUNTS 58 63 0 0 0
M  V30 BEGIN ATOM
M  V30 1 O 3.421701 1.362970 4.389418 0
M  V30 2 C 2.406459 0.655017 4.339484 0
M  V30 3 N 1.432855 0.366107 5.356798 0
M  V30 4 C 0.446085 -0.499314 4.823889 0
M  V30 5 O -0.451944 -0.821744 5.609426 0
M  V30 6 C 0.741134 -0.801856 3.450110 0
M  V30 7 C 1.897838 -0.112045 3.188103 0
M  V30 8 C 2.474315 -0.182895 1.925044 0
M  V30 9 C 3.702168 0.529825 1.593235 0
M  V30 10 C 5.008799 0.082707 1.715688 0
M  V30 11 C 6.044495 0.914789 1.344719 0
M  V30 12 C 5.795441 2.184868 0.853988 0
M  V30 13 C 4.502300 2.628664 0.732286 0
M  V30 14 C 3.443963 1.796476 1.104239 0
M  V30 15 Cl 1.851208 2.500578 0.892201 0
M  V30 16 C 1.877008 -0.947179 0.945764 0
M  V30 17 C 0.715145 -1.629210 1.238565 0
M  V30 18 C 0.155014 -1.550606 2.492481 0
M  V30 19 C -0.977759 -2.305735 2.531515 0
M  V30 20 C -1.968849 -2.663817 3.392414 0
M  V30 21 C -3.029668 -3.490083 3.103849 0
M  V30 22 O -4.016516 -3.826288 4.016683 0
M  V30 23 C -3.117489 -4.022643 1.812119 0
M  V30 24 C -2.130423 -3.685022 0.902762 0
M  V30 25 C -1.092849 -2.845231 1.271420 0
M  V30 26 N -0.059231 -2.431218 0.484603 0
M  V30 27 C 0.201402 -2.754722 -0.883070 0
M  V30 28 C -0.414470 -1.820316 -1.873561 0
M  V30 29 C -1.877635 -1.725834 -1.816550 0
M  V30 30 O -3.105768 -1.819692 -1.572897 0
M  V30 31 N -2.485147 -0.827446 -2.764508 0
M  V30 32 C -3.896814 -0.620220 -2.840536 0
M  V30 33 C -4.129302 0.587777 -3.756223 0
M  V30 34 O -3.366888 1.677350 -3.375214 0
M  V30 35 C -1.999807 1.414084 -3.430011 0
M  V30 36 C -1.721929 -0.041809 -3.738727 0
M  V30 37 H 1.570126 0.809261 6.312579 0
M  V30 38 H 5.087753 -0.903413 2.101398 0
M  V30 39 H 7.053900 0.519641 1.458904 0
M  V30 40 H 6.645424 2.807228 0.573381 0
M  V30 41 H 4.352236 3.639089 0.339873 0
M  V30 42 H 2.304771 -1.018537 -0.042803 0
M  V30 43 H -1.977797 -2.305521 4.387668 0
M  V30 44 H -4.655283 -3.086779 4.332492 0
M  V30 45 H -3.903372 -4.681168 1.471548 0
M  V30 46 H -2.185426 -4.088193 -0.096540 0
M  V30 47 H 1.282851 -2.811669 -1.123735 0
M  V30 48 H -0.191354 -3.792659 -1.045336 0
M  V30 49 H -0.010619 -0.811820 -1.779497 0
M  V30 50 H -0.126828 -2.221042 -2.889784 0
M  V30 51 H -4.286973 -0.325193 -1.844302 0
M  V30 52 H -4.380917 -1.493703 -3.286908 0
M  V30 53 H -5.196674 0.899126 -3.566141 0
M  V30 54 H -4.079448 0.319427 -4.811758 0
M  V30 55 H -1.543146 1.725368 -2.471304 0
M  V30 56 H -1.508488 2.012856 -4.228799 0
M  V30 57 H -2.128600 -0.271912 -4.735418 0
M  V30 58 H -0.652369 -0.234522 -3.627758 0
M  V30 END ATOM
M  V30 BEGIN BOND
M  V30 1 2 1 2
M  V30 2 1 2 3
M  V30 3 1 3 4
M  V30 4 2 4 5
M  V30 5 1 4 6
M  V30 6 2 6 7
M  V30 7 1 7 8
M  V30 8 1 8 9
M  V30 9 2 9 10
M  V30 10 1 10 11
M  V30 11 2 11 12
M  V30 12 1 12 13
M  V30 13 2 13 14
M  V30 14 1 14 15
M  V30 15 2 8 16
M  V30 16 1 16 17
M  V30 17 2 17 18
M  V30 18 1 18 19
M  V30 19 2 19 20
M  V30 20 1 20 21
M  V30 21 1 21 22
M  V30 22 2 21 23
M  V30 23 1 23 24
M  V30 24 2 24 25
M  V30 25 1 25 26
M  V30 26 1 26 27
M  V30 27 1 27 28
M  V30 28 1 28 29
M  V30 29 2 29 30
M  V30 30 1 29 31
M  V30 31 1 31 32
M  V30 32 1 32 33
M  V30 33 1 33 34
M  V30 34 1 34 35
M  V30 35 1 35 36
M  V30 36 1 7 2
M  V30 37 1 14 9
M  V30 38 1 26 17
M  V30 39 1 36 31
M  V30 40 1 18 6
M  V30 41 1 25 19
M  V30 42 1 3 37
M  V30 43 1 10 38
M  V30 44 1 11 39
M  V30 45 1 12 40
M  V30 46 1 13 41
M  V30 47 1 16 42
M  V30 48 1 20 43
M  V30 49 1 22 44
M  V30 50 1 23 45
M  V30 51 1 24 46
M  V30 52 1 27 47
M  V30 53 1 27 48
M  V30 54 1 28 49
M  V30 55 1 28 50
M  V30 56 1 32 51
M  V30 57 1 32 52
M  V30 58 1 33 53
M  V30 59 1 33 54
M  V30 60 1 35 55
M  V30 61 1 35 56
M  V30 62 1 36 57
M  V30 63 1 36 58
M  V30 END BOND
M  V30 END CTAB
M  END
>  <Dataset>  (899) 
ChEMBL_Kinases

>  <Ligand_Instance>  (899) 
nan

>  <PDB_ID>  (899) 
nan

>  <Standardized_SMILES>  (899) 
O=C1NC(=O)c2c1c(-c1ccccc1Cl)cc1c2c2cc(O)ccc2n1CCC(=O)N1CCOCC1

>  <Name>  (899) 
nan

>  <Pocket>  (899) 
nan

>  <ATP_Site>  (899) 
nan

>  <Peripheral>  (899) 
nan

>  <Num_H_Atoms_ProtBoundConf>  (899) 
nan

>  <Num_Resolved_Atoms>  (899) 
nan

>  <Num_Not_Resolved_Atoms>  (899) 
nan

$$$$
CHEMBL4067599
     RDKit          3D

  0  0  0  0  0  0  0  0  0  0999 V3000
M  V30 BEGIN CTAB
M  V30 COUNTS 31 33 0 0 0
M  V30 BEGIN ATOM
M  V30 1 O -0.739229 -4.077969 0.576565 0
M  V30 2 C 0.061986 -3.148809 0.302333 0
M  V30 3 C 0.789595 -2.362769 1.265158 0
M  V30 4 C 0.739187 -2.240098 2.637799 0
M  V30 5 C 1.566612 -1.393662 3.347262 0
M  V30 6 C 2.459520 -0.665640 2.606290 0
M  V30 7 C 2.554478 -0.749632 1.215807 0
M  V30 8 C 1.700391 -1.615717 0.545456 0
M  V30 9 O 1.601719 -1.875662 -0.831213 0
M  V30 10 C 0.428312 -2.665801 -1.043871 0
M  V30 11 C -0.596518 -1.703987 -1.623212 0
M  V30 12 C -0.744847 -0.513610 -0.761000 0
M  V30 13 C 0.098751 0.566751 -1.040093 0
M  V30 14 C 0.114209 1.762932 -0.352220 0
M  V30 15 C -0.785228 1.873148 0.688810 0
M  V30 16 O -0.823540 3.061640 1.430498 0
M  V30 17 C -1.639883 0.843629 1.009847 0
M  V30 18 O -2.540054 0.934852 2.040481 0
M  V30 19 C -1.617596 -0.342204 0.287115 0
M  V30 20 H 0.016678 -2.831981 3.214641 0
M  V30 21 H 1.506141 -1.316998 4.421023 0
M  V30 22 H 3.115145 0.004966 3.167799 0
M  V30 23 H 3.300042 -0.123724 0.743322 0
M  V30 24 H 0.645923 -3.461192 -1.765923 0
M  V30 25 H -1.585859 -2.197199 -1.742431 0
M  V30 26 H -0.256991 -1.407097 -2.615816 0
M  V30 27 H 0.822485 0.495516 -1.867493 0
M  V30 28 H 0.789929 2.549718 -0.622066 0
M  V30 29 H -1.090665 3.018780 2.399830 0
M  V30 30 H -2.469009 0.250453 2.789976 0
M  V30 31 H -2.267048 -1.192946 0.490790 0
M  V30 END ATOM
M  V30 BEGIN BOND
M  V30 1 2 1 2
M  V30 2 1 2 3
M  V30 3 2 3 4
M  V30 4 1 4 5
M  V30 5 2 5 6
M  V30 6 1 6 7
M  V30 7 2 7 8
M  V30 8 1 8 9
M  V30 9 1 9 10
M  V30 10 1 10 11
M  V30 11 1 11 12
M  V30 12 2 12 13
M  V30 13 1 13 14
M  V30 14 2 14 15
M  V30 15 1 15 16
M  V30 16 1 15 17
M  V30 17 1 17 18
M  V30 18 2 17 19
M  V30 19 1 10 2
M  V30 20 1 19 12
M  V30 21 1 8 3
M  V30 22 1 4 20
M  V30 23 1 5 21
M  V30 24 1 6 22
M  V30 25 1 7 23
M  V30 26 1 10 24
M  V30 27 1 11 25
M  V30 28 1 11 26
M  V30 29 1 13 27
M  V30 30 1 14 28
M  V30 31 1 16 29
M  V30 32 1 18 30
M  V30 33 1 19 31
M  V30 END BOND
M  V30 END CTAB
M  END
>  <Dataset>  (900) 
ChEMBL_Kinases

>  <Ligand_Instance>  (900) 
nan

>  <PDB_ID>  (900) 
nan

>  <Standardized_SMILES>  (900) 
O=C1c2ccccc2OC1Cc1ccc(O)c(O)c1

>  <Name>  (900) 
nan

>  <Pocket>  (900) 
nan

>  <ATP_Site>  (900) 
nan

>  <Peripheral>  (900) 
nan

>  <Num_H_Atoms_ProtBoundConf>  (900) 
nan

>  <Num_Resolved_Atoms>  (900) 
nan

>  <Num_Not_Resolved_Atoms>  (900) 
nan

$$$$
CHEMBL4861000
     RDKit          3D

  0  0  0  0  0  0  0  0  0  0999 V3000
M  V30 BEGIN CTAB
M  V30 COUNTS 46 49 0 0 0
M  V30 BEGIN ATOM
M  V30 1 O -0.307011 -4.631850 2.551475 0
M  V30 2 S 0.451352 -3.715126 1.642277 0
M  V30 3 O 0.444901 -4.349034 0.279170 0
M  V30 4 N 2.061863 -3.517167 2.215288 0
M  V30 5 C 2.868673 -2.717808 1.351999 0
M  V30 6 C 4.138134 -3.423151 0.912886 0
M  V30 7 C 4.996478 -2.547625 0.053592 0
M  V30 8 C 4.403974 -1.160944 -0.110302 0
M  V30 9 C 4.108572 -0.575990 1.258763 0
M  V30 10 C 3.233180 -1.454425 2.104866 0
M  V30 11 C -0.384148 -2.195842 1.519897 0
M  V30 12 C -1.115453 -1.644584 2.567692 0
M  V30 13 C -1.787649 -0.433664 2.483286 0
M  V30 14 C -1.726638 0.272355 1.277183 0
M  V30 15 C -2.437573 1.553273 1.190937 0
M  V30 16 N -2.451780 2.558967 2.091863 0
M  V30 17 N -3.213308 3.556544 1.655690 0
M  V30 18 C -3.728662 3.244288 0.451321 0
M  V30 19 C -4.579637 3.966485 -0.396908 0
M  V30 20 C -4.906541 3.304517 -1.587103 0
M  V30 21 F -5.740404 4.041654 -2.391331 0
M  V30 22 C -4.437317 2.047812 -1.909262 0
M  V30 23 C -3.602186 1.386950 -1.032873 0
M  V30 24 C -3.241046 1.984435 0.158710 0
M  V30 25 C -1.001067 -0.269652 0.230316 0
M  V30 26 C -0.341839 -1.476926 0.342425 0
M  V30 27 H 2.472208 -4.388933 2.556742 0
M  V30 28 H 2.282532 -2.386794 0.481195 0
M  V30 29 H 3.865618 -4.324308 0.338593 0
M  V30 30 H 4.741148 -3.759811 1.764207 0
M  V30 31 H 6.023912 -2.416620 0.460781 0
M  V30 32 H 5.081882 -2.974064 -0.953979 0
M  V30 33 H 3.497338 -1.171967 -0.748008 0
M  V30 34 H 5.192945 -0.538018 -0.577809 0
M  V30 35 H 3.659362 0.430026 1.142577 0
M  V30 36 H 5.056564 -0.417452 1.813752 0
M  V30 37 H 2.268757 -0.923898 2.271834 0
M  V30 38 H 3.690530 -1.677061 3.089339 0
M  V30 39 H -1.142106 -2.221144 3.493746 0
M  V30 40 H -2.347336 -0.025752 3.305860 0
M  V30 41 H -3.403643 4.457630 2.146968 0
M  V30 42 H -4.945686 4.946603 -0.146074 0
M  V30 43 H -4.777705 1.650884 -2.879271 0
M  V30 44 H -3.267860 0.407107 -1.339252 0
M  V30 45 H -0.961168 0.289509 -0.701429 0
M  V30 46 H 0.196136 -1.805897 -0.543727 0
M  V30 END ATOM
M  V30 BEGIN BOND
M  V30 1 2 1 2
M  V30 2 2 2 3
M  V30 3 1 2 4
M  V30 4 1 4 5
M  V30 5 1 5 6
M  V30 6 1 6 7
M  V30 7 1 7 8
M  V30 8 1 8 9
M  V30 9 1 9 10
M  V30 10 1 2 11
M  V30 11 2 11 12
M  V30 12 1 12 13
M  V30 13 2 13 14
M  V30 14 1 14 15
M  V30 15 2 15 16
M  V30 16 1 16 17
M  V30 17 1 17 18
M  V30 18 2 18 19
M  V30 19 1 19 20
M  V30 20 1 20 21
M  V30 21 2 20 22
M  V30 22 1 22 23
M  V30 23 2 23 24
M  V30 24 1 14 25
M  V30 25 2 25 26
M  V30 26 1 10 5
M  V30 27 1 26 11
M  V30 28 1 24 15
M  V30 29 1 24 18
M  V30 30 1 4 27
M  V30 31 1 5 28
M  V30 32 1 6 29
M  V30 33 1 6 30
M  V30 34 1 7 31
M  V30 35 1 7 32
M  V30 36 1 8 33
M  V30 37 1 8 34
M  V30 38 1 9 35
M  V30 39 1 9 36
M  V30 40 1 10 37
M  V30 41 1 10 38
M  V30 42 1 12 39
M  V30 43 1 13 40
M  V30 44 1 17 41
M  V30 45 1 19 42
M  V30 46 1 22 43
M  V30 47 1 23 44
M  V30 48 1 25 45
M  V30 49 1 26 46
M  V30 END BOND
M  V30 END CTAB
M  END
>  <Dataset>  (901) 
ChEMBL_Kinases

>  <Ligand_Instance>  (901) 
nan

>  <PDB_ID>  (901) 
nan

>  <Standardized_SMILES>  (901) 
O=S(=O)(NC1CCCCC1)c1ccc(-c2n[nH]c3cc(F)ccc23)cc1

>  <Name>  (901) 
nan

>  <Pocket>  (901) 
nan

>  <ATP_Site>  (901) 
nan

>  <Peripheral>  (901) 
nan

>  <Num_H_Atoms_ProtBoundConf>  (901) 
nan

>  <Num_Resolved_Atoms>  (901) 
nan

>  <Num_Not_Resolved_Atoms>  (901) 
nan

$$$$
CHEMBL4067539
     RDKit          3D

  0  0  0  0  0  0  0  0  0  0999 V3000
M  V30 BEGIN CTAB
M  V30 COUNTS 46 49 0 0 0
M  V30 BEGIN ATOM
M  V30 1 O -0.089699 -6.425146 1.603806 0
M  V30 2 C 0.222453 -5.235398 1.484338 0
M  V30 3 N 1.263906 -4.566001 2.165407 0
M  V30 4 C 1.276576 -3.221043 1.739400 0
M  V30 5 C 2.116876 -2.189953 2.131521 0
M  V30 6 C 1.924876 -0.933491 1.559648 0
M  V30 7 C 0.916307 -0.713295 0.617409 0
M  V30 8 C 0.685058 0.589452 0.002123 0
M  V30 9 O -0.219381 0.761720 -0.886174 0
M  V30 10 N 1.424699 1.744167 0.330276 0
M  V30 11 C 1.327367 3.097822 -0.177009 0 CFG=2
M  V30 12 C 2.653083 3.669396 -0.610724 0
M  V30 13 O 3.189162 2.867623 -1.631514 0
M  V30 14 C 0.835472 3.905494 1.000566 0
M  V30 15 C 1.307816 5.114883 1.458768 0
M  V30 16 C 0.711700 5.690579 2.555543 0
M  V30 17 C -0.353203 5.106217 3.229735 0
M  V30 18 C -0.831598 3.888601 2.772335 0
M  V30 19 C -0.236852 3.308914 1.673589 0
M  V30 20 C 0.088628 -1.752276 0.238689 0
M  V30 21 C 0.284055 -3.015588 0.816014 0
M  V30 22 C -0.419756 -4.276019 0.618136 0
M  V30 23 C -1.433059 -4.543811 -0.185668 0
M  V30 24 C -2.118505 -5.806778 -0.393295 0
M  V30 25 C -3.521389 -5.781207 -0.366798 0
M  V30 26 C -4.032311 -7.039876 -0.600514 0
M  V30 27 N -2.946391 -7.808344 -0.765110 0
M  V30 28 N -1.846295 -7.104253 -0.647385 0
M  V30 29 H 1.888378 -5.046814 2.860406 0
M  V30 30 H 2.913362 -2.321686 2.861640 0
M  V30 31 H 2.566216 -0.119441 1.850261 0
M  V30 32 H 2.181622 1.705280 1.042076 0
M  V30 33 H 0.573349 3.185890 -0.986154 0
M  V30 34 H 2.538877 4.712356 -0.932288 0
M  V30 35 H 3.377360 3.635334 0.231726 0
M  V30 36 H 3.170130 3.434040 -2.457659 0
M  V30 37 H 2.135449 5.511923 0.889513 0
M  V30 38 H 1.124079 6.642071 2.872648 0
M  V30 39 H -0.797360 5.596755 4.095738 0
M  V30 40 H -1.674415 3.390600 3.278420 0
M  V30 41 H -0.659641 2.355508 1.366297 0
M  V30 42 H -0.722091 -1.679342 -0.485341 0
M  V30 43 H -1.764185 -3.659248 -0.755416 0
M  V30 44 H -4.226467 -4.955222 -0.196859 0
M  V30 45 H -5.063283 -7.367731 -0.647392 0
M  V30 46 H -0.852677 -7.399129 -0.732829 0
M  V30 END ATOM
M  V30 BEGIN BOND
M  V30 1 2 1 2
M  V30 2 1 2 3
M  V30 3 1 3 4
M  V30 4 2 4 5
M  V30 5 1 5 6
M  V30 6 2 6 7
M  V30 7 1 7 8
M  V30 8 2 8 9
M  V30 9 1 8 10
M  V30 10 1 10 11
M  V30 11 1 11 12
M  V30 12 1 12 13
M  V30 13 1 11 14
M  V30 14 2 14 15
M  V30 15 1 15 16
M  V30 16 2 16 17
M  V30 17 1 17 18
M  V30 18 2 18 19
M  V30 19 1 7 20
M  V30 20 2 20 21
M  V30 21 1 21 22
M  V30 22 2 22 23
M  V30 23 1 23 24
M  V30 24 2 24 25
M  V30 25 1 25 26
M  V30 26 2 26 27
M  V30 27 1 27 28
M  V30 28 1 22 2
M  V30 29 1 28 24
M  V30 30 1 21 4
M  V30 31 1 19 14
M  V30 32 1 3 29
M  V30 33 1 5 30
M  V30 34 1 6 31
M  V30 35 1 10 32
M  V30 36 1 11 33 CFG=3
M  V30 37 1 12 34
M  V30 38 1 12 35
M  V30 39 1 13 36
M  V30 40 1 15 37
M  V30 41 1 16 38
M  V30 42 1 17 39
M  V30 43 1 18 40
M  V30 44 1 19 41
M  V30 45 1 20 42
M  V30 46 1 23 43
M  V30 47 1 25 44
M  V30 48 1 26 45
M  V30 49 1 28 46
M  V30 END BOND
M  V30 END CTAB
M  END
>  <Dataset>  (902) 
ChEMBL_Kinases

>  <Ligand_Instance>  (902) 
nan

>  <PDB_ID>  (902) 
nan

>  <Standardized_SMILES>  (902) 
O=C1Nc2ccc(C(=O)N[C@H](CO)c3ccccc3)cc2/C1=C/c1ccn[nH]1

>  <Name>  (902) 
nan

>  <Pocket>  (902) 
nan

>  <ATP_Site>  (902) 
nan

>  <Peripheral>  (902) 
nan

>  <Num_H_Atoms_ProtBoundConf>  (902) 
nan

>  <Num_Resolved_Atoms>  (902) 
nan

>  <Num_Not_Resolved_Atoms>  (902) 
nan

$$$$
CHEMBL4067532
     RDKit          3D

  0  0  0  0  0  0  0  0  0  0999 V3000
M  V30 BEGIN CTAB
M  V30 COUNTS 46 49 0 0 0
M  V30 BEGIN ATOM
M  V30 1 C 1.160987 -3.536527 2.227286 0
M  V30 2 N -0.062841 -2.976385 1.722640 0
M  V30 3 C 0.007214 -1.941529 0.873012 0
M  V30 4 N 1.167484 -1.269190 0.410997 0
M  V30 5 C 0.959986 -0.244033 -0.632339 0
M  V30 6 C 2.138849 -0.156563 -1.557849 0
M  V30 7 N 3.371579 0.115132 -0.910215 0
M  V30 8 C 3.267677 -0.054291 0.495413 0
M  V30 9 C 2.751221 1.077325 1.259235 0
M  V30 10 C 1.825108 1.029155 2.307136 0
M  V30 11 C 1.409918 2.157955 2.950294 0
M  V30 12 C 1.924801 3.374160 2.547041 0
M  V30 13 C 2.841626 3.464209 1.516451 0
M  V30 14 Cl 3.439143 5.069232 1.077889 0
M  V30 15 C 3.266727 2.303197 0.856983 0
M  V30 16 C 2.552935 -1.365849 0.761914 0
M  V30 17 N -1.195408 -1.509173 0.452344 0
M  V30 18 C -2.365408 -2.038392 0.826826 0
M  V30 19 C -3.578412 -1.451797 0.275470 0
M  V30 20 C -3.574714 -0.391869 -0.603708 0
M  V30 21 C -4.661835 0.230968 -1.176617 0
M  V30 22 N -5.895235 -0.264423 -0.829131 0
M  V30 23 C -5.914920 -1.297076 0.026414 0
M  V30 24 N -4.821652 -1.901128 0.583933 0
M  V30 25 C -2.400195 -3.088290 1.691114 0
M  V30 26 C -1.192895 -3.564843 2.148436 0
M  V30 27 O -1.171200 -4.529228 2.945246 0
M  V30 28 H 1.863280 -3.684087 1.384640 0
M  V30 29 H 0.997401 -4.618192 2.562930 0
M  V30 30 H 1.549495 -3.064472 3.124745 0
M  V30 31 H 0.119233 -0.593765 -1.316825 0
M  V30 32 H 0.578737 0.697799 -0.245879 0
M  V30 33 H 2.226430 -1.164540 -2.054222 0
M  V30 34 H 1.873841 0.576903 -2.346465 0
M  V30 35 H 3.944780 0.881001 -1.264961 0
M  V30 36 H 4.315660 -0.233310 0.892443 0
M  V30 37 H 1.466988 0.020971 2.563359 0
M  V30 38 H 0.686511 1.998663 3.750238 0
M  V30 39 H 1.557463 4.247077 3.096763 0
M  V30 40 H 3.983668 2.454044 0.064212 0
M  V30 41 H 2.780000 -1.568813 1.821346 0
M  V30 42 H 3.028977 -2.093997 0.050107 0
M  V30 43 H -2.569000 -0.017060 -0.862935 0
M  V30 44 H -4.515674 1.059582 -1.856217 0
M  V30 45 H -6.923542 -1.655112 0.271470 0
M  V30 46 H -3.326491 -3.529908 2.006934 0
M  V30 END ATOM
M  V30 BEGIN BOND
M  V30 1 1 1 2
M  V30 2 1 2 3
M  V30 3 1 3 4
M  V30 4 1 4 5
M  V30 5 1 5 6
M  V30 6 1 6 7
M  V30 7 1 7 8
M  V30 8 1 8 9
M  V30 9 2 9 10
M  V30 10 1 10 11
M  V30 11 2 11 12
M  V30 12 1 12 13
M  V30 13 1 13 14
M  V30 14 2 13 15
M  V30 15 1 8 16
M  V30 16 2 3 17
M  V30 17 1 17 18
M  V30 18 1 18 19
M  V30 19 2 19 20
M  V30 20 1 20 21
M  V30 21 2 21 22
M  V30 22 1 22 23
M  V30 23 2 23 24
M  V30 24 2 18 25
M  V30 25 1 25 26
M  V30 26 2 26 27
M  V30 27 1 26 2
M  V30 28 1 16 4
M  V30 29 1 24 19
M  V30 30 1 15 9
M  V30 31 1 1 28
M  V30 32 1 1 29
M  V30 33 1 1 30
M  V30 34 1 5 31
M  V30 35 1 5 32
M  V30 36 1 6 33
M  V30 37 1 6 34
M  V30 38 1 7 35
M  V30 39 1 8 36
M  V30 40 1 10 37
M  V30 41 1 11 38
M  V30 42 1 12 39
M  V30 43 1 15 40
M  V30 44 1 16 41
M  V30 45 1 16 42
M  V30 46 1 20 43
M  V30 47 1 21 44
M  V30 48 1 23 45
M  V30 49 1 25 46
M  V30 END BOND
M  V30 END CTAB
M  END
>  <Dataset>  (903) 
ChEMBL_Kinases

>  <Ligand_Instance>  (903) 
nan

>  <PDB_ID>  (903) 
nan

>  <Standardized_SMILES>  (903) 
Cn1c(N2CCNC(c3cccc(Cl)c3)C2)nc(-c2ccncn2)cc1=O

>  <Name>  (903) 
nan

>  <Pocket>  (903) 
nan

>  <ATP_Site>  (903) 
nan

>  <Peripheral>  (903) 
nan

>  <Num_H_Atoms_ProtBoundConf>  (903) 
nan

>  <Num_Resolved_Atoms>  (903) 
nan

>  <Num_Not_Resolved_Atoms>  (903) 
nan

$$$$
CHEMBL4067488
     RDKit          3D

  0  0  0  0  0  0  0  0  0  0999 V3000
M  V30 BEGIN CTAB
M  V30 COUNTS 42 45 0 0 0
M  V30 BEGIN ATOM
M  V30 1 N 2.096467 -1.216586 4.976668 0
M  V30 2 C 2.593087 -2.460775 4.465685 0
M  V30 3 O 2.226866 -3.276369 5.365950 0
M  V30 4 C 3.340629 -2.914338 3.267849 0
M  V30 5 N 3.651305 -1.794210 2.374797 0
M  V30 6 C 4.734200 -0.997369 2.367908 0
M  V30 7 C 4.509410 -0.107826 1.314836 0
M  V30 8 N 5.317963 0.887050 0.908301 0
M  V30 9 C 4.985436 1.676918 -0.125494 0
M  V30 10 C 3.783871 1.425465 -0.750309 0
M  V30 11 C 2.938130 0.411901 -0.352105 0
M  V30 12 N 1.690993 0.105492 -0.961678 0
M  V30 13 C 0.466991 0.161130 -0.239717 0
M  V30 14 C 0.437521 0.580563 1.071910 0
M  V30 15 C -0.807424 0.581219 1.641841 0
M  V30 16 N -1.917931 0.204777 0.983052 0
M  V30 17 C -1.930210 -0.209960 -0.295267 0
M  V30 18 C -3.202734 -0.580488 -0.861733 0
M  V30 19 C -4.328681 -0.491141 -0.071587 0
M  V30 20 C -5.590000 -0.820845 -0.516746 0
M  V30 21 Cl -6.980718 -0.685950 0.535137 0
M  V30 22 C -5.790897 -1.266772 -1.805351 0
M  V30 23 C -4.686513 -1.368820 -2.624972 0
M  V30 24 C -3.467078 -1.029984 -2.132443 0
M  V30 25 F -2.440172 -1.157809 -2.996470 0
M  V30 26 C -0.694661 -0.215128 -0.874749 0
M  V30 27 C 3.279702 -0.410149 0.720446 0
M  V30 28 N 2.799392 -1.465174 1.424748 0
M  V30 29 H 1.182977 -0.807506 4.671309 0
M  V30 30 H 2.516318 -0.564598 5.673568 0
M  V30 31 H 4.312815 -3.394991 3.554931 0
M  V30 32 H 2.764475 -3.708073 2.735968 0
M  V30 33 H 5.554654 -1.095421 3.064165 0
M  V30 34 H 5.558443 2.504741 -0.536609 0
M  V30 35 H 3.406235 2.000231 -1.601589 0
M  V30 36 H 1.722543 -0.159031 -1.955010 0
M  V30 37 H 1.306687 0.883924 1.609304 0
M  V30 38 H -0.929073 0.896357 2.672920 0
M  V30 39 H -4.280977 -0.146469 0.973495 0
M  V30 40 H -6.792057 -1.517881 -2.125905 0
M  V30 41 H -4.848451 -1.713095 -3.616686 0
M  V30 42 H -0.624640 -0.535556 -1.898658 0
M  V30 END ATOM
M  V30 BEGIN BOND
M  V30 1 1 1 2
M  V30 2 2 2 3
M  V30 3 1 2 4
M  V30 4 1 4 5
M  V30 5 1 5 6
M  V30 6 2 6 7
M  V30 7 1 7 8
M  V30 8 2 8 9
M  V30 9 1 9 10
M  V30 10 2 10 11
M  V30 11 1 11 12
M  V30 12 1 12 13
M  V30 13 2 13 14
M  V30 14 1 14 15
M  V30 15 2 15 16
M  V30 16 1 16 17
M  V30 17 1 17 18
M  V30 18 2 18 19
M  V30 19 1 19 20
M  V30 20 1 20 21
M  V30 21 2 20 22
M  V30 22 1 22 23
M  V30 23 2 23 24
M  V30 24 1 24 25
M  V30 25 2 17 26
M  V30 26 1 11 27
M  V30 27 2 27 28
M  V30 28 1 28 5
M  V30 29 1 27 7
M  V30 30 1 26 13
M  V30 31 1 24 18
M  V30 32 1 1 29
M  V30 33 1 1 30
M  V30 34 1 4 31
M  V30 35 1 4 32
M  V30 36 1 6 33
M  V30 37 1 9 34
M  V30 38 1 10 35
M  V30 39 1 12 36
M  V30 40 1 14 37
M  V30 41 1 15 38
M  V30 42 1 19 39
M  V30 43 1 22 40
M  V30 44 1 23 41
M  V30 45 1 26 42
M  V30 END BOND
M  V30 END CTAB
M  END
>  <Dataset>  (904) 
ChEMBL_Kinases

>  <Ligand_Instance>  (904) 
nan

>  <PDB_ID>  (904) 
nan

>  <Standardized_SMILES>  (904) 
NC(=O)Cn1cc2nccc(Nc3ccnc(-c4cc(Cl)ccc4F)c3)c2n1

>  <Name>  (904) 
nan

>  <Pocket>  (904) 
nan

>  <ATP_Site>  (904) 
nan

>  <Peripheral>  (904) 
nan

>  <Num_H_Atoms_ProtBoundConf>  (904) 
nan

>  <Num_Resolved_Atoms>  (904) 
nan

>  <Num_Not_Resolved_Atoms>  (904) 
nan

$$$$
CHEMBL486101
     RDKit          3D

  0  0  0  0  0  0  0  0  0  0999 V3000
M  V30 BEGIN CTAB
M  V30 COUNTS 58 63 0 0 0
M  V30 BEGIN ATOM
M  V30 1 O 2.788299 2.634867 3.863203 0
M  V30 2 C 1.690300 2.022808 3.865274 0
M  V30 3 N 0.529407 2.276718 4.682996 0
M  V30 4 C -0.466014 1.333325 4.333217 0
M  V30 5 O -1.527979 1.430472 4.958943 0
M  V30 6 C 0.007577 0.454522 3.297960 0
M  V30 7 C 1.284626 0.888432 3.043971 0
M  V30 8 C 2.057328 0.258579 2.082511 0
M  V30 9 C 3.418343 0.678569 1.773406 0
M  V30 10 C 3.599013 1.631509 0.789925 0
M  V30 11 Cl 2.316138 2.369448 -0.109766 0
M  V30 12 C 4.909353 2.023000 0.505873 0
M  V30 13 C 5.936546 1.433799 1.224507 0
M  V30 14 C 5.736118 0.482673 2.204160 0
M  V30 15 C 4.439990 0.088522 2.492386 0
M  V30 16 Cl 4.138414 -1.114377 3.726690 0
M  V30 17 C 1.502190 -0.804104 1.401737 0
M  V30 18 C 0.201214 -1.256675 1.650950 0
M  V30 19 C -0.505355 -0.581766 2.619708 0
M  V30 20 C -1.727705 -1.177652 2.699480 0
M  V30 21 C -2.896046 -1.070006 3.390624 0
M  V30 22 C -4.007108 -1.866146 3.234649 0
M  V30 23 O -5.178355 -1.717218 3.964636 0
M  V30 24 C -3.954067 -2.890223 2.280814 0
M  V30 25 C -2.790684 -3.039337 1.554601 0
M  V30 26 C -1.709938 -2.193464 1.770943 0
M  V30 27 N -0.540831 -2.268775 1.110522 0
M  V30 28 C -0.007410 -3.102332 0.081120 0
M  V30 29 C -0.218929 -2.633028 -1.316244 0
M  V30 30 C -1.610691 -2.476721 -1.740412 0
M  V30 31 O -2.839535 -2.493000 -1.634841 0
M  V30 32 N -1.621705 -2.034371 -3.115380 0
M  V30 33 C -2.837565 -1.776236 -3.861275 0
M  V30 34 C -2.805031 -0.293731 -4.238163 0
M  V30 35 O -1.855305 -0.142197 -5.226345 0
M  V30 36 C -0.604098 -0.389143 -4.654493 0
M  V30 37 C -0.516238 -1.752923 -4.043278 0
M  V30 38 H 0.565785 3.069150 5.381819 0
M  V30 39 H 5.192167 2.753853 -0.234410 0
M  V30 40 H 6.985460 1.672641 1.075436 0
M  V30 41 H 6.542345 0.024423 2.763795 0
M  V30 42 H 2.120215 -1.290595 0.648380 0
M  V30 43 H -3.030070 -0.324617 4.133419 0
M  V30 44 H -5.469525 -0.825173 4.354365 0
M  V30 45 H -4.806387 -3.535875 2.129608 0
M  V30 46 H -2.800113 -3.828857 0.844803 0
M  V30 47 H -0.405751 -4.150633 0.193306 0
M  V30 48 H 1.098485 -3.237371 0.205427 0
M  V30 49 H 0.242941 -3.400928 -1.986097 0
M  V30 50 H 0.377437 -1.706851 -1.526440 0
M  V30 51 H -3.721491 -1.957472 -3.244469 0
M  V30 52 H -2.867693 -2.367968 -4.800567 0
M  V30 53 H -3.800792 0.101217 -4.487405 0
M  V30 54 H -2.423524 0.251308 -3.333729 0
M  V30 55 H 0.120345 -0.348353 -5.474345 0
M  V30 56 H -0.369618 0.441981 -3.967568 0
M  V30 57 H -0.612266 -2.480420 -4.894539 0
M  V30 58 H 0.472389 -1.831128 -3.558131 0
M  V30 END ATOM
M  V30 BEGIN BOND
M  V30 1 2 1 2
M  V30 2 1 2 3
M  V30 3 1 3 4
M  V30 4 2 4 5
M  V30 5 1 4 6
M  V30 6 2 6 7
M  V30 7 1 7 8
M  V30 8 1 8 9
M  V30 9 2 9 10
M  V30 10 1 10 11
M  V30 11 1 10 12
M  V30 12 2 12 13
M  V30 13 1 13 14
M  V30 14 2 14 15
M  V30 15 1 15 16
M  V30 16 2 8 17
M  V30 17 1 17 18
M  V30 18 2 18 19
M  V30 19 1 19 20
M  V30 20 2 20 21
M  V30 21 1 21 22
M  V30 22 1 22 23
M  V30 23 2 22 24
M  V30 24 1 24 25
M  V30 25 2 25 26
M  V30 26 1 26 27
M  V30 27 1 27 28
M  V30 28 1 28 29
M  V30 29 1 29 30
M  V30 30 2 30 31
M  V30 31 1 30 32
M  V30 32 1 32 33
M  V30 33 1 33 34
M  V30 34 1 34 35
M  V30 35 1 35 36
M  V30 36 1 36 37
M  V30 37 1 7 2
M  V30 38 1 15 9
M  V30 39 1 27 18
M  V30 40 1 37 32
M  V30 41 1 19 6
M  V30 42 1 26 20
M  V30 43 1 3 38
M  V30 44 1 12 39
M  V30 45 1 13 40
M  V30 46 1 14 41
M  V30 47 1 17 42
M  V30 48 1 21 43
M  V30 49 1 23 44
M  V30 50 1 24 45
M  V30 51 1 25 46
M  V30 52 1 28 47
M  V30 53 1 28 48
M  V30 54 1 29 49
M  V30 55 1 29 50
M  V30 56 1 33 51
M  V30 57 1 33 52
M  V30 58 1 34 53
M  V30 59 1 34 54
M  V30 60 1 36 55
M  V30 61 1 36 56
M  V30 62 1 37 57
M  V30 63 1 37 58
M  V30 END BOND
M  V30 END CTAB
M  END
>  <Dataset>  (905) 
ChEMBL_Kinases

>  <Ligand_Instance>  (905) 
nan

>  <PDB_ID>  (905) 
nan

>  <Standardized_SMILES>  (905) 
O=C1NC(=O)c2c1c(-c1c(Cl)cccc1Cl)cc1c2c2cc(O)ccc2n1CCC(=O)N1CCOCC1

>  <Name>  (905) 
nan

>  <Pocket>  (905) 
nan

>  <ATP_Site>  (905) 
nan

>  <Peripheral>  (905) 
nan

>  <Num_H_Atoms_ProtBoundConf>  (905) 
nan

>  <Num_Resolved_Atoms>  (905) 
nan

>  <Num_Not_Resolved_Atoms>  (905) 
nan

$$$$
CHEMBL4861035
     RDKit          3D

  0  0  0  0  0  0  0  0  0  0999 V3000
M  V30 BEGIN CTAB
M  V30 COUNTS 50 54 0 0 0
M  V30 BEGIN ATOM
M  V30 1 C 2.864985 0.700625 -6.085532 0
M  V30 2 O 2.321144 -0.401371 -5.388611 0
M  V30 3 C 2.767069 -0.630539 -4.094023 0
M  V30 4 C 3.704764 0.183270 -3.509884 0
M  V30 5 C 4.154681 -0.032675 -2.228448 0
M  V30 6 C 3.655375 -1.091426 -1.506898 0
M  V30 7 N 3.926581 -1.548127 -0.171622 0
M  V30 8 N 2.939735 -0.902066 0.569950 0
M  V30 9 C 3.018589 0.333146 1.203173 0
M  V30 10 O 4.203457 0.757812 0.964352 0
M  V30 11 C 2.158547 1.171706 1.992677 0
M  V30 12 C 2.673848 2.365666 2.426994 0
M  V30 13 N 1.702663 2.993882 3.144127 0
M  V30 14 C 0.600348 2.255098 3.183774 0
M  V30 15 C -0.640736 2.411827 3.754625 0
M  V30 16 C -1.596101 1.418566 3.599951 0
M  V30 17 C -1.249562 0.308115 2.871708 0
M  V30 18 C -2.246287 -0.742082 2.703292 0
M  V30 19 C -2.177777 -1.463179 1.522367 0
M  V30 20 C -3.084267 -2.483832 1.270830 0
M  V30 21 C -4.075579 -2.814838 2.176154 0
M  V30 22 N -4.936058 -3.807387 1.901730 0
M  V30 23 C -5.888131 -4.109167 2.795663 0
M  V30 24 C -5.996235 -3.408957 4.001681 0
M  V30 25 C -5.108645 -2.379726 4.292826 0
M  V30 26 C -4.135005 -2.081046 3.363549 0
M  V30 27 C -3.234146 -1.068730 3.610476 0
M  V30 28 C 0.002470 0.201823 2.323408 0
M  V30 29 N 0.913797 1.169490 2.481473 0
M  V30 30 C 2.697041 -1.933682 -2.087817 0
M  V30 31 C 2.239829 -1.714637 -3.389382 0
M  V30 32 H 2.850126 1.622358 -5.477353 0
M  V30 33 H 3.924422 0.473048 -6.301133 0
M  V30 34 H 2.377673 0.850964 -7.072910 0
M  V30 35 H 4.137319 1.029718 -4.014654 0
M  V30 36 H 4.879475 0.524854 -1.664338 0
M  V30 37 H 4.646184 -2.196835 0.270147 0
M  V30 38 H 2.028352 -1.381323 0.674041 0
M  V30 39 H 3.582209 2.959609 2.386116 0
M  V30 40 H -0.808980 3.322546 4.305698 0
M  V30 41 H -2.531318 1.609026 4.068013 0
M  V30 42 H -1.453629 -1.300011 0.744317 0
M  V30 43 H -3.041841 -3.062216 0.342607 0
M  V30 44 H -6.571144 -4.911558 2.557233 0
M  V30 45 H -6.782861 -3.694438 4.685217 0
M  V30 46 H -5.178615 -1.830256 5.218851 0
M  V30 47 H -3.259774 -0.490058 4.516915 0
M  V30 48 H 0.206855 -0.691164 1.767183 0
M  V30 49 H 2.216001 -2.802736 -1.644108 0
M  V30 50 H 1.504674 -2.330520 -3.885141 0
M  V30 END ATOM
M  V30 BEGIN BOND
M  V30 1 1 1 2
M  V30 2 1 2 3
M  V30 3 2 3 4
M  V30 4 1 4 5
M  V30 5 2 5 6
M  V30 6 1 6 7
M  V30 7 1 7 8
M  V30 8 1 8 9
M  V30 9 2 9 10
M  V30 10 1 9 11
M  V30 11 2 11 12
M  V30 12 1 12 13
M  V30 13 2 13 14
M  V30 14 1 14 15
M  V30 15 2 15 16
M  V30 16 1 16 17
M  V30 17 1 17 18
M  V30 18 2 18 19
M  V30 19 1 19 20
M  V30 20 2 20 21
M  V30 21 1 21 22
M  V30 22 2 22 23
M  V30 23 1 23 24
M  V30 24 2 24 25
M  V30 25 1 25 26
M  V30 26 2 26 27
M  V30 27 2 17 28
M  V30 28 1 28 29
M  V30 29 1 6 30
M  V30 30 2 30 31
M  V30 31 1 31 3
M  V30 32 1 29 11
M  V30 33 1 29 14
M  V30 34 1 27 18
M  V30 35 1 26 21
M  V30 36 1 1 32
M  V30 37 1 1 33
M  V30 38 1 1 34
M  V30 39 1 4 35
M  V30 40 1 5 36
M  V30 41 1 7 37
M  V30 42 1 8 38
M  V30 43 1 12 39
M  V30 44 1 15 40
M  V30 45 1 16 41
M  V30 46 1 19 42
M  V30 47 1 20 43
M  V30 48 1 23 44
M  V30 49 1 24 45
M  V30 50 1 25 46
M  V30 51 1 27 47
M  V30 52 1 28 48
M  V30 53 1 30 49
M  V30 54 1 31 50
M  V30 END BOND
M  V30 END CTAB
M  END
>  <Dataset>  (906) 
ChEMBL_Kinases

>  <Ligand_Instance>  (906) 
nan

>  <PDB_ID>  (906) 
nan

>  <Standardized_SMILES>  (906) 
COc1ccc(NNC(=O)c2cnc3ccc(-c4ccc5ncccc5c4)cn23)cc1

>  <Name>  (906) 
nan

>  <Pocket>  (906) 
nan

>  <ATP_Site>  (906) 
nan

>  <Peripheral>  (906) 
nan

>  <Num_H_Atoms_ProtBoundConf>  (906) 
nan

>  <Num_Resolved_Atoms>  (906) 
nan

>  <Num_Not_Resolved_Atoms>  (906) 
nan

$$$$
CHEMBL4067363
     RDKit          3D

  0  0  0  0  0  0  0  0  0  0999 V3000
M  V30 BEGIN CTAB
M  V30 COUNTS 31 33 0 0 0
M  V30 BEGIN ATOM
M  V30 1 N 1.067132 0.302325 3.817644 0
M  V30 2 C 1.667801 -0.318458 3.046844 0
M  V30 3 C 2.424246 -1.094534 2.112965 0
M  V30 4 C 3.673983 -1.606645 2.427581 0
M  V30 5 N 4.140369 -2.306063 1.376962 0
M  V30 6 C 3.235839 -2.261740 0.399244 0
M  V30 7 N 3.160989 -2.784891 -0.854053 0
M  V30 8 C 2.041536 -2.541066 -1.596372 0
M  V30 9 N 2.057169 -3.132671 -2.896032 0
M  V30 10 N 1.010605 -1.806412 -1.143928 0
M  V30 11 C 1.033995 -1.262682 0.093434 0
M  V30 12 C -0.143394 -0.510577 0.430169 0
M  V30 13 C -0.319974 0.768989 0.911612 0
M  V30 14 C -1.557074 1.303212 1.200292 0
M  V30 15 C -2.704227 0.561694 1.014636 0
M  V30 16 C -4.016097 1.118702 1.317318 0
M  V30 17 N -4.102817 2.451213 1.812249 0
M  V30 18 O -5.125800 0.546239 1.190825 0
M  V30 19 C -2.597621 -0.725895 0.534677 0
M  V30 20 C -1.340625 -1.224428 0.257975 0
M  V30 21 C 2.164421 -1.516193 0.830974 0
M  V30 22 H 4.223045 -1.494126 3.341389 0
M  V30 23 H 5.048565 -2.824207 1.270229 0
M  V30 24 H 1.807620 -3.994437 -3.431384 0
M  V30 25 H 2.486408 -2.387448 -3.497305 0
M  V30 26 H 0.588356 1.317066 1.027214 0
M  V30 27 H -1.577803 2.317375 1.573550 0
M  V30 28 H -3.390068 3.104622 2.203848 0
M  V30 29 H -4.942916 3.030592 1.869249 0
M  V30 30 H -3.496552 -1.297784 0.392232 0
M  V30 31 H -1.362478 -2.256083 -0.118573 0
M  V30 END ATOM
M  V30 BEGIN BOND
M  V30 1 3 1 2
M  V30 2 1 2 3
M  V30 3 2 3 4
M  V30 4 1 4 5
M  V30 5 1 5 6
M  V30 6 2 6 7
M  V30 7 1 7 8
M  V30 8 1 8 9
M  V30 9 2 8 10
M  V30 10 1 10 11
M  V30 11 1 11 12
M  V30 12 2 12 13
M  V30 13 1 13 14
M  V30 14 2 14 15
M  V30 15 1 15 16
M  V30 16 1 16 17
M  V30 17 2 16 18
M  V30 18 1 15 19
M  V30 19 2 19 20
M  V30 20 2 11 21
M  V30 21 1 21 3
M  V30 22 1 21 6
M  V30 23 1 20 12
M  V30 24 1 4 22
M  V30 25 1 5 23
M  V30 26 1 9 24
M  V30 27 1 9 25
M  V30 28 1 13 26
M  V30 29 1 14 27
M  V30 30 1 17 28
M  V30 31 1 17 29
M  V30 32 1 19 30
M  V30 33 1 20 31
M  V30 END BOND
M  V30 END CTAB
M  END
>  <Dataset>  (907) 
ChEMBL_Kinases

>  <Ligand_Instance>  (907) 
nan

>  <PDB_ID>  (907) 
nan

>  <Standardized_SMILES>  (907) 
N#Cc1c[nH]c2nc(N)nc(-c3ccc(C(N)=O)cc3)c12

>  <Name>  (907) 
nan

>  <Pocket>  (907) 
nan

>  <ATP_Site>  (907) 
nan

>  <Peripheral>  (907) 
nan

>  <Num_H_Atoms_ProtBoundConf>  (907) 
nan

>  <Num_Resolved_Atoms>  (907) 
nan

>  <Num_Not_Resolved_Atoms>  (907) 
nan

$$$$
CHEMBL4067286
     RDKit          3D

  0  0  0  0  0  0  0  0  0  0999 V3000
M  V30 BEGIN CTAB
M  V30 COUNTS 70 72 0 0 0
M  V30 BEGIN ATOM
M  V30 1 C 4.712874 -3.477440 4.486187 0
M  V30 2 C 4.617638 -4.603094 3.457501 0
M  V30 3 C 4.081113 -3.970380 2.190202 0
M  V30 4 C 3.923211 -4.954198 1.057853 0
M  V30 5 C 3.383340 -4.187366 -0.132676 0
M  V30 6 C 3.209617 -5.126913 -1.285381 0
M  V30 7 C 2.676191 -4.470565 -2.514845 0
M  V30 8 C 3.593028 -3.372381 -3.002954 0
M  V30 9 C 3.051549 -2.710396 -4.251652 0
M  V30 10 C 1.714364 -2.083989 -4.051678 0
M  V30 11 C 1.719247 -1.005733 -2.988575 0
M  V30 12 C 0.298237 -0.505662 -2.938349 0
M  V30 13 O -0.762256 -0.794044 -3.551715 0
M  V30 14 N 0.234216 0.516746 -1.952419 0
M  V30 15 N -0.831083 1.323648 -1.489727 0
M  V30 16 C -1.518596 0.730557 -0.400761 0
M  V30 17 O -1.019691 -0.400738 -0.082844 0
M  V30 18 C -2.653122 1.194945 0.372222 0
M  V30 19 C -3.083251 0.361636 1.381739 0
M  V30 20 O -2.509032 -0.876581 1.702731 0
M  V30 21 C -4.177603 0.773452 2.152839 0
M  V30 22 C -4.617588 -0.060320 3.172688 0
M  V30 23 C -5.683969 0.249966 3.989315 0
M  V30 24 C -6.339830 1.443938 3.779287 0
M  V30 25 C -5.891363 2.259556 2.764041 0
M  V30 26 C -4.826976 1.970218 1.934431 0
M  V30 27 N -4.403631 2.780618 0.947842 0
M  V30 28 C -5.085299 3.991662 0.740644 0
M  V30 29 C -4.569741 5.176602 1.542791 0
M  V30 30 C -3.214211 5.695017 1.444260 0
M  V30 31 C -4.331676 6.493114 0.819424 0
M  V30 32 C -3.350968 2.366332 0.218778 0
M  V30 33 O -2.975372 3.138567 -0.695610 0
M  V30 34 H 3.720671 -3.269316 4.912151 0
M  V30 35 H 5.055204 -2.531572 3.985088 0
M  V30 36 H 5.461612 -3.702457 5.266077 0
M  V30 37 H 3.923546 -5.350376 3.871446 0
M  V30 38 H 5.628536 -5.025505 3.326612 0
M  V30 39 H 3.124770 -3.480060 2.468903 0
M  V30 40 H 4.805231 -3.185193 1.880699 0
M  V30 41 H 3.178701 -5.726547 1.340503 0
M  V30 42 H 4.914411 -5.336286 0.811085 0
M  V30 43 H 2.429773 -3.730725 0.181646 0
M  V30 44 H 4.147545 -3.380373 -0.330660 0
M  V30 45 H 2.502204 -5.904292 -0.972436 0
M  V30 46 H 4.220699 -5.539665 -1.511686 0
M  V30 47 H 1.640636 -4.082967 -2.336334 0
M  V30 48 H 2.541157 -5.260755 -3.290468 0
M  V30 49 H 4.553287 -3.847923 -3.274810 0
M  V30 50 H 3.715111 -2.649529 -2.171759 0
M  V30 51 H 2.915617 -3.527102 -4.998630 0
M  V30 52 H 3.763026 -2.009417 -4.698133 0
M  V30 53 H 0.939127 -2.842704 -3.844061 0
M  V30 54 H 1.452070 -1.565272 -5.000182 0
M  V30 55 H 2.323950 -0.132937 -3.308242 0
M  V30 56 H 2.079534 -1.330092 -2.011341 0
M  V30 57 H 0.985568 0.922870 -1.319340 0
M  V30 58 H -1.185450 2.240765 -1.796062 0
M  V30 59 H -1.714539 -0.957464 2.309115 0
M  V30 60 H -4.129077 -1.020294 3.379297 0
M  V30 61 H -6.033927 -0.394503 4.787237 0
M  V30 62 H -7.179733 1.723776 4.397314 0
M  V30 63 H -6.433780 3.185742 2.634698 0
M  V30 64 H -6.170855 4.032022 0.806498 0
M  V30 65 H -4.882036 4.277855 -0.338215 0
M  V30 66 H -5.082686 5.365366 2.538208 0
M  V30 67 H -2.777337 6.208832 2.351251 0
M  V30 68 H -2.418052 5.368929 0.776653 0
M  V30 69 H -4.458420 6.507890 -0.288551 0
M  V30 70 H -4.643690 7.448179 1.269343 0
M  V30 END ATOM
M  V30 BEGIN BOND
M  V30 1 1 1 2
M  V30 2 1 2 3
M  V30 3 1 3 4
M  V30 4 1 4 5
M  V30 5 1 5 6
M  V30 6 1 6 7
M  V30 7 1 7 8
M  V30 8 1 8 9
M  V30 9 1 9 10
M  V30 10 1 10 11
M  V30 11 1 11 12
M  V30 12 2 12 13
M  V30 13 1 12 14
M  V30 14 1 14 15
M  V30 15 1 15 16
M  V30 16 2 16 17
M  V30 17 1 16 18
M  V30 18 2 18 19
M  V30 19 1 19 20
M  V30 20 1 19 21
M  V30 21 2 21 22
M  V30 22 1 22 23
M  V30 23 2 23 24
M  V30 24 1 24 25
M  V30 25 2 25 26
M  V30 26 1 26 27
M  V30 27 1 27 28
M  V30 28 1 28 29
M  V30 29 1 29 30
M  V30 30 1 30 31
M  V30 31 1 27 32
M  V30 32 2 32 33
M  V30 33 1 32 18
M  V30 34 1 26 21
M  V30 35 1 31 29
M  V30 36 1 1 34
M  V30 37 1 1 35
M  V30 38 1 1 36
M  V30 39 1 2 37
M  V30 40 1 2 38
M  V30 41 1 3 39
M  V30 42 1 3 40
M  V30 43 1 4 41
M  V30 44 1 4 42
M  V30 45 1 5 43
M  V30 46 1 5 44
M  V30 47 1 6 45
M  V30 48 1 6 46
M  V30 49 1 7 47
M  V30 50 1 7 48
M  V30 51 1 8 49
M  V30 52 1 8 50
M  V30 53 1 9 51
M  V30 54 1 9 52
M  V30 55 1 10 53
M  V30 56 1 10 54
M  V30 57 1 11 55
M  V30 58 1 11 56
M  V30 59 1 14 57
M  V30 60 1 15 58
M  V30 61 1 20 59
M  V30 62 1 22 60
M  V30 63 1 23 61
M  V30 64 1 24 62
M  V30 65 1 25 63
M  V30 66 1 28 64
M  V30 67 1 28 65
M  V30 68 1 29 66
M  V30 69 1 30 67
M  V30 70 1 30 68
M  V30 71 1 31 69
M  V30 72 1 31 70
M  V30 END BOND
M  V30 END CTAB
M  END
>  <Dataset>  (908) 
ChEMBL_Kinases

>  <Ligand_Instance>  (908) 
nan

>  <PDB_ID>  (908) 
nan

>  <Standardized_SMILES>  (908) 
CCCCCCCCCCCC(=O)NNC(=O)c1c(O)c2ccccc2n(CC2CC2)c1=O

>  <Name>  (908) 
nan

>  <Pocket>  (908) 
nan

>  <ATP_Site>  (908) 
nan

>  <Peripheral>  (908) 
nan

>  <Num_H_Atoms_ProtBoundConf>  (908) 
nan

>  <Num_Resolved_Atoms>  (908) 
nan

>  <Num_Not_Resolved_Atoms>  (908) 
nan

$$$$
CHEMBL4067228
     RDKit          3D

  0  0  0  0  0  0  0  0  0  0999 V3000
M  V30 BEGIN CTAB
M  V30 COUNTS 39 41 0 0 0
M  V30 BEGIN ATOM
M  V30 1 O 2.500851 -0.497880 -1.712936 0
M  V30 2 C 1.471658 -0.519060 -0.974338 0
M  V30 3 N 1.344132 -1.827380 -0.443219 0
M  V30 4 C 2.293045 -2.835153 -0.778329 0
M  V30 5 C 2.225875 -3.715705 -1.845614 0
M  V30 6 C 3.227830 -4.643699 -2.043469 0
M  V30 7 C 4.293171 -4.664382 -1.146640 0
M  V30 8 N 4.356578 -3.809214 -0.111701 0
M  V30 9 C 3.371598 -2.891245 0.089333 0
M  V30 10 C 0.615720 0.637651 -0.755453 0
M  V30 11 C 1.053457 1.768901 -1.447408 0
M  V30 12 C 0.396165 2.970565 -1.384835 0
M  V30 13 Cl 0.966128 4.374290 -2.262385 0
M  V30 14 C -0.743561 3.106916 -0.620825 0
M  V30 15 C -1.147435 1.982652 0.044633 0
M  V30 16 C -0.527590 0.751159 0.018889 0
M  V30 17 O -0.895999 -0.367217 0.656772 0
M  V30 18 C -1.895318 -0.754194 1.500749 0
M  V30 19 C -2.021390 -0.076368 2.791898 0
M  V30 20 C -1.216549 -0.607976 3.810347 0
M  V30 21 C -1.182977 -0.135974 5.102495 0
M  V30 22 C -1.983271 0.928295 5.444392 0
M  V30 23 C -2.791201 1.482477 4.474754 0
M  V30 24 C -2.799451 0.986299 3.196516 0
M  V30 25 H 0.554139 -2.010695 0.179967 0
M  V30 26 H 1.345972 -3.607976 -2.482454 0
M  V30 27 H 3.139836 -5.318267 -2.892657 0
M  V30 28 H 5.076549 -5.390945 -1.302486 0
M  V30 29 H 3.518745 -2.245068 0.957097 0
M  V30 30 H 1.949490 1.782755 -2.088885 0
M  V30 31 H -1.291822 4.036074 -0.543999 0
M  V30 32 H -2.037557 2.083828 0.638747 0
M  V30 33 H -1.760287 -1.866104 1.684764 0
M  V30 34 H -2.894906 -0.728335 0.961102 0
M  V30 35 H -0.542597 -1.460484 3.633030 0
M  V30 36 H -0.548437 -0.573278 5.859476 0
M  V30 37 H -1.968906 1.311269 6.454436 0
M  V30 38 H -3.442595 2.318172 4.675848 0
M  V30 39 H -3.422125 1.384493 2.408502 0
M  V30 END ATOM
M  V30 BEGIN BOND
M  V30 1 2 1 2
M  V30 2 1 2 3
M  V30 3 1 3 4
M  V30 4 2 4 5
M  V30 5 1 5 6
M  V30 6 2 6 7
M  V30 7 1 7 8
M  V30 8 2 8 9
M  V30 9 1 2 10
M  V30 10 2 10 11
M  V30 11 1 11 12
M  V30 12 1 12 13
M  V30 13 2 12 14
M  V30 14 1 14 15
M  V30 15 2 15 16
M  V30 16 1 16 17
M  V30 17 1 17 18
M  V30 18 1 18 19
M  V30 19 2 19 20
M  V30 20 1 20 21
M  V30 21 2 21 22
M  V30 22 1 22 23
M  V30 23 2 23 24
M  V30 24 1 9 4
M  V30 25 1 16 10
M  V30 26 1 24 19
M  V30 27 1 3 25
M  V30 28 1 5 26
M  V30 29 1 6 27
M  V30 30 1 7 28
M  V30 31 1 9 29
M  V30 32 1 11 30
M  V30 33 1 14 31
M  V30 34 1 15 32
M  V30 35 1 18 33
M  V30 36 1 18 34
M  V30 37 1 20 35
M  V30 38 1 21 36
M  V30 39 1 22 37
M  V30 40 1 23 38
M  V30 41 1 24 39
M  V30 END BOND
M  V30 END CTAB
M  END
>  <Dataset>  (909) 
ChEMBL_Kinases

>  <Ligand_Instance>  (909) 
nan

>  <PDB_ID>  (909) 
nan

>  <Standardized_SMILES>  (909) 
O=C(Nc1cccnc1)c1cc(Cl)ccc1OCc1ccccc1

>  <Name>  (909) 
nan

>  <Pocket>  (909) 
nan

>  <ATP_Site>  (909) 
nan

>  <Peripheral>  (909) 
nan

>  <Num_H_Atoms_ProtBoundConf>  (909) 
nan

>  <Num_Resolved_Atoms>  (909) 
nan

>  <Num_Not_Resolved_Atoms>  (909) 
nan

$$$$
CHEMBL4067170
     RDKit          3D

  0  0  0  0  0  0  0  0  0  0999 V3000
M  V30 BEGIN CTAB
M  V30 COUNTS 48 51 0 0 0
M  V30 BEGIN ATOM
M  V30 1 C 1.929514 -2.314959 0.037176 0
M  V30 2 C 0.876060 -1.225199 -0.041070 0 CFG=2
M  V30 3 C 1.659591 0.090478 -0.020673 0
M  V30 4 N 2.453993 0.074800 1.193580 0
M  V30 5 C 3.854412 0.137087 1.326195 0
M  V30 6 C 4.554299 0.104756 2.514578 0
M  V30 7 C 5.931514 0.174573 2.499203 0
M  V30 8 C 6.682519 0.276459 1.364770 0
M  V30 9 N 5.977559 0.305565 0.228603 0
M  V30 10 C 4.614517 0.239718 0.187409 0
M  V30 11 C 1.521203 -0.019688 2.299559 0
M  V30 12 C 0.697532 -1.307260 2.217243 0
M  V30 13 N -0.093526 -1.319481 1.007466 0
M  V30 14 C -1.468951 -1.395020 0.637353 0
M  V30 15 N -2.215837 -0.287477 0.494694 0
M  V30 16 C -3.498799 -0.276651 0.152893 0
M  V30 17 C -4.232566 0.977613 0.022810 0
M  V30 18 C -5.563683 1.065067 -0.327305 0
M  V30 19 C -6.230962 2.264959 -0.441957 0
M  V30 20 N -5.555111 3.412070 -0.201487 0
M  V30 21 C -4.248531 3.313393 0.141490 0
M  V30 22 N -3.592691 2.136810 0.254335 0
M  V30 23 C -4.067383 -1.505878 -0.061760 0
M  V30 24 C -3.381127 -2.696881 0.060515 0
M  V30 25 O -3.907757 -3.818743 -0.137392 0
M  V30 26 N -2.083804 -2.592810 0.412054 0
M  V30 27 C -1.293673 -3.797481 0.561562 0
M  V30 28 H 2.831787 -2.011510 0.590624 0
M  V30 29 H 1.546738 -3.217005 0.565898 0
M  V30 30 H 2.270623 -2.571135 -1.000740 0
M  V30 31 H 0.415038 -1.268902 -1.057518 0
M  V30 32 H 0.916025 0.920053 0.007059 0
M  V30 33 H 2.259608 0.083833 -0.931758 0
M  V30 34 H 4.012325 0.026036 3.422807 0
M  V30 35 H 6.409413 0.143534 3.470937 0
M  V30 36 H 7.760214 0.329606 1.382287 0
M  V30 37 H 4.273866 0.280067 -0.816968 0
M  V30 38 H 1.989207 0.013026 3.293223 0
M  V30 39 H 0.844333 0.861210 2.257164 0
M  V30 40 H 1.397227 -2.162248 2.304762 0
M  V30 41 H 0.059435 -1.285594 3.133357 0
M  V30 42 H -6.110351 0.175606 -0.519837 0
M  V30 43 H -7.293679 2.259316 -0.725458 0
M  V30 44 H -3.752798 4.255822 0.323022 0
M  V30 45 H -5.108684 -1.586050 -0.343837 0
M  V30 46 H -0.726852 -3.835326 1.517972 0
M  V30 47 H -1.952928 -4.689698 0.559639 0
M  V30 48 H -0.614837 -3.903677 -0.319757 0
M  V30 END ATOM
M  V30 BEGIN BOND
M  V30 1 1 1 2
M  V30 2 1 2 3
M  V30 3 1 3 4
M  V30 4 1 4 5
M  V30 5 2 5 6
M  V30 6 1 6 7
M  V30 7 2 7 8
M  V30 8 1 8 9
M  V30 9 2 9 10
M  V30 10 1 4 11
M  V30 11 1 11 12
M  V30 12 1 12 13
M  V30 13 1 13 14
M  V30 14 2 14 15
M  V30 15 1 15 16
M  V30 16 1 16 17
M  V30 17 2 17 18
M  V30 18 1 18 19
M  V30 19 2 19 20
M  V30 20 1 20 21
M  V30 21 2 21 22
M  V30 22 2 16 23
M  V30 23 1 23 24
M  V30 24 2 24 25
M  V30 25 1 24 26
M  V30 26 1 26 27
M  V30 27 1 13 2
M  V30 28 1 26 14
M  V30 29 1 10 5
M  V30 30 1 22 17
M  V30 31 1 1 28
M  V30 32 1 1 29
M  V30 33 1 1 30
M  V30 34 1 2 31 CFG=3
M  V30 35 1 3 32
M  V30 36 1 3 33
M  V30 37 1 6 34
M  V30 38 1 7 35
M  V30 39 1 8 36
M  V30 40 1 10 37
M  V30 41 1 11 38
M  V30 42 1 11 39
M  V30 43 1 12 40
M  V30 44 1 12 41
M  V30 45 1 18 42
M  V30 46 1 19 43
M  V30 47 1 21 44
M  V30 48 1 23 45
M  V30 49 1 27 46
M  V30 50 1 27 47
M  V30 51 1 27 48
M  V30 END BOND
M  V30 END CTAB
M  END
>  <Dataset>  (910) 
ChEMBL_Kinases

>  <Ligand_Instance>  (910) 
nan

>  <PDB_ID>  (910) 
nan

>  <Standardized_SMILES>  (910) 
C[C@@H]1CN(c2cccnc2)CCN1c1nc(-c2ccncn2)cc(=O)n1C

>  <Name>  (910) 
nan

>  <Pocket>  (910) 
nan

>  <ATP_Site>  (910) 
nan

>  <Peripheral>  (910) 
nan

>  <Num_H_Atoms_ProtBoundConf>  (910) 
nan

>  <Num_Resolved_Atoms>  (910) 
nan

>  <Num_Not_Resolved_Atoms>  (910) 
nan

$$$$
CHEMBL4067710
     RDKit          3D

  0  0  0  0  0  0  0  0  0  0999 V3000
M  V30 BEGIN CTAB
M  V30 COUNTS 77 81 0 0 0
M  V30 BEGIN ATOM
M  V30 1 C 3.677088 -0.170192 3.252752 0
M  V30 2 C 5.088417 -0.136958 2.718426 0
M  V30 3 C 5.292668 1.029829 1.767654 0 CFG=2
M  V30 4 C 5.020429 2.260187 2.591786 0
M  V30 5 C 5.784099 2.656654 3.675886 0
M  V30 6 C 6.980061 2.097887 4.237160 0
M  V30 7 N 7.933646 1.636045 4.701862 0
M  V30 8 N 5.215278 3.752161 4.201040 0
M  V30 9 C 4.137897 4.048109 3.489566 0
M  V30 10 N 4.021086 3.139531 2.508481 0
M  V30 11 C 3.131046 2.953865 1.414777 0
M  V30 12 C 2.090948 3.858459 1.348114 0
M  V30 13 N 1.220074 3.721579 0.334785 0
M  V30 14 C 1.391803 2.735911 -0.549271 0
M  V30 15 N 0.392675 2.707771 -1.557245 0
M  V30 16 C -0.746087 1.860213 -1.666685 0
M  V30 17 C -0.797802 0.893359 -0.675563 0
M  V30 18 C -1.835641 -0.010129 -0.679163 0
M  V30 19 F -1.965093 -0.974783 0.242548 0
M  V30 20 C -2.825823 0.013251 -1.634418 0
M  V30 21 C -3.985817 -0.841802 -1.819284 0
M  V30 22 O -4.947112 -0.635580 -2.634047 0
M  V30 23 N -4.222332 -2.037603 -1.119643 0
M  V30 24 C -5.248899 -3.055110 -1.084113 0
M  V30 25 C -4.650817 -4.313195 -1.675681 0
M  V30 26 C -4.816735 -5.528603 -0.799594 0
M  V30 27 N -4.344108 -5.351375 0.535347 0
M  V30 28 C -4.406251 -6.571565 1.243373 0
M  V30 29 C -3.957355 -6.609992 2.643136 0
M  V30 30 C -4.801720 -4.163859 1.138675 0
M  V30 31 C -5.755232 -3.329121 0.324759 0
M  V30 32 C -2.744506 0.989851 -2.608176 0
M  V30 33 C -1.723863 1.912990 -2.641262 0
M  V30 34 O -1.480281 2.948652 -3.519415 0
M  V30 35 C -2.283858 3.254749 -4.624020 0
M  V30 36 N 2.414205 1.886376 -0.441326 0
M  V30 37 C 3.343642 1.918589 0.518330 0
M  V30 38 N 4.438489 0.974972 0.595853 0
M  V30 39 C 4.644725 0.062701 -0.478358 0
M  V30 40 C 3.735281 0.250688 -1.677390 0
M  V30 41 C 4.548171 -1.390568 -0.119811 0
M  V30 42 H 3.539072 -0.941475 4.023979 0
M  V30 43 H 3.428742 0.797631 3.755616 0
M  V30 44 H 2.915204 -0.297617 2.466691 0
M  V30 45 H 5.735589 0.068966 3.636359 0
M  V30 46 H 5.409501 -1.105316 2.336865 0
M  V30 47 H 6.356721 1.069982 1.477136 0
M  V30 48 H 3.436087 4.869693 3.630526 0
M  V30 49 H 1.975722 4.646835 2.077471 0
M  V30 50 H 0.534043 3.416427 -2.314834 0
M  V30 51 H -0.076129 0.784253 0.119446 0
M  V30 52 H -3.548506 -2.387168 -0.418293 0
M  V30 53 H -6.133808 -2.773048 -1.697992 0
M  V30 54 H -5.200616 -4.536722 -2.611546 0
M  V30 55 H -3.604796 -4.146804 -1.982001 0
M  V30 56 H -4.214948 -6.336196 -1.264460 0
M  V30 57 H -5.866168 -5.864074 -0.827793 0
M  V30 58 H -3.794578 -7.315177 0.652283 0
M  V30 59 H -5.440913 -6.970175 1.168481 0
M  V30 60 H -4.384734 -5.759721 3.227119 0
M  V30 61 H -4.446432 -7.510044 3.120311 0
M  V30 62 H -2.880286 -6.779339 2.830097 0
M  V30 63 H -3.908524 -3.509175 1.340024 0
M  V30 64 H -5.278106 -4.302365 2.128413 0
M  V30 65 H -5.824018 -2.354293 0.850322 0
M  V30 66 H -6.782351 -3.740305 0.313185 0
M  V30 67 H -3.450985 1.116788 -3.409051 0
M  V30 68 H -1.735965 3.034284 -5.584510 0
M  V30 69 H -3.256738 2.738506 -4.572243 0
M  V30 70 H -2.556924 4.353160 -4.640726 0
M  V30 71 H 5.697218 0.208926 -0.872641 0
M  V30 72 H 2.722145 -0.136207 -1.517801 0
M  V30 73 H 4.172152 -0.470385 -2.450320 0
M  V30 74 H 3.826240 1.224659 -2.169596 0
M  V30 75 H 5.508981 -1.872095 0.146762 0
M  V30 76 H 3.828091 -1.605061 0.687677 0
M  V30 77 H 4.199362 -1.974279 -1.029126 0
M  V30 END ATOM
M  V30 BEGIN BOND
M  V30 1 1 1 2
M  V30 2 1 2 3
M  V30 3 1 3 4
M  V30 4 2 4 5
M  V30 5 1 5 6
M  V30 6 3 6 7
M  V30 7 1 5 8
M  V30 8 2 8 9
M  V30 9 1 9 10
M  V30 10 1 10 11
M  V30 11 2 11 12
M  V30 12 1 12 13
M  V30 13 2 13 14
M  V30 14 1 14 15
M  V30 15 1 15 16
M  V30 16 2 16 17
M  V30 17 1 17 18
M  V30 18 1 18 19
M  V30 19 2 18 20
M  V30 20 1 20 21
M  V30 21 2 21 22
M  V30 22 1 21 23
M  V30 23 1 23 24
M  V30 24 1 24 25
M  V30 25 1 25 26
M  V30 26 1 26 27
M  V30 27 1 27 28
M  V30 28 1 28 29
M  V30 29 1 27 30
M  V30 30 1 30 31
M  V30 31 1 20 32
M  V30 32 2 32 33
M  V30 33 1 33 34
M  V30 34 1 34 35
M  V30 35 1 14 36
M  V30 36 2 36 37
M  V30 37 1 37 38
M  V30 38 1 38 39
M  V30 39 1 39 40
M  V30 40 1 39 41
M  V30 41 1 38 3
M  V30 42 1 10 4
M  V30 43 1 37 11
M  V30 44 1 33 16
M  V30 45 1 31 24
M  V30 46 1 1 42
M  V30 47 1 1 43
M  V30 48 1 1 44
M  V30 49 1 2 45
M  V30 50 1 2 46
M  V30 51 1 3 47 CFG=3
M  V30 52 1 9 48
M  V30 53 1 12 49
M  V30 54 1 15 50
M  V30 55 1 17 51
M  V30 56 1 23 52
M  V30 57 1 24 53
M  V30 58 1 25 54
M  V30 59 1 25 55
M  V30 60 1 26 56
M  V30 61 1 26 57
M  V30 62 1 28 58
M  V30 63 1 28 59
M  V30 64 1 29 60
M  V30 65 1 29 61
M  V30 66 1 29 62
M  V30 67 1 30 63
M  V30 68 1 30 64
M  V30 69 1 31 65
M  V30 70 1 31 66
M  V30 71 1 32 67
M  V30 72 1 35 68
M  V30 73 1 35 69
M  V30 74 1 35 70
M  V30 75 1 39 71
M  V30 76 1 40 72
M  V30 77 1 40 73
M  V30 78 1 40 74
M  V30 79 1 41 75
M  V30 80 1 41 76
M  V30 81 1 41 77
M  V30 END BOND
M  V30 END CTAB
M  END
>  <Dataset>  (911) 
ChEMBL_Kinases

>  <Ligand_Instance>  (911) 
nan

>  <PDB_ID>  (911) 
nan

>  <Standardized_SMILES>  (911) 
CC[C@@H]1c2c(C#N)ncn2-c2cnc(Nc3cc(F)c(C(=O)NC4CCN(CC)CC4)cc3OC)nc2N1C(C)C

>  <Name>  (911) 
nan

>  <Pocket>  (911) 
nan

>  <ATP_Site>  (911) 
nan

>  <Peripheral>  (911) 
nan

>  <Num_H_Atoms_ProtBoundConf>  (911) 
nan

>  <Num_Resolved_Atoms>  (911) 
nan

>  <Num_Not_Resolved_Atoms>  (911) 
nan

$$$$
CHEMBL4069055
     RDKit          3D

  0  0  0  0  0  0  0  0  0  0999 V3000
M  V30 BEGIN CTAB
M  V30 COUNTS 25 27 0 0 0
M  V30 BEGIN ATOM
M  V30 1 C -0.317911 -2.168089 1.029881 0
M  V30 2 N -0.712914 -0.823749 1.437487 0
M  V30 3 C -0.362104 0.182833 0.629548 0
M  V30 4 C 0.379486 0.463962 -0.593141 0
M  V30 5 C 1.641699 0.008824 -0.783110 0
M  V30 6 S 2.825620 -0.957924 0.141845 0
M  V30 7 C 4.241290 -0.438189 -0.819059 0
M  V30 8 S 5.647210 -0.713320 -0.043197 0
M  V30 9 N 3.710510 0.072685 -2.006635 0
M  V30 10 C 2.356660 0.315693 -2.018663 0
M  V30 11 O 1.880172 0.784201 -3.112690 0
M  V30 12 C -0.840405 1.365458 1.172538 0
M  V30 13 C -1.493694 0.985642 2.350587 0
M  V30 14 S -2.448586 1.521393 3.828403 0
M  V30 15 C -2.639194 -0.232157 4.531872 0
M  V30 16 C -1.963047 -1.035205 3.576461 0
M  V30 17 C -1.408583 -0.389662 2.507788 0
M  V30 18 H 0.659225 -2.396171 1.484257 0
M  V30 19 H -0.364647 -2.314162 -0.067497 0
M  V30 20 H -1.072524 -2.880435 1.472584 0
M  V30 21 H -0.086305 1.049882 -1.405444 0
M  V30 22 H 4.465610 0.199158 -2.738727 0
M  V30 23 H -0.878045 2.433933 0.993694 0
M  V30 24 H -3.144345 -0.367354 5.405740 0
M  V30 25 H -1.989731 -2.071884 3.855441 0
M  V30 END ATOM
M  V30 BEGIN BOND
M  V30 1 1 1 2
M  V30 2 1 2 3
M  V30 3 1 3 4
M  V30 4 2 4 5
M  V30 5 1 5 6
M  V30 6 1 6 7
M  V30 7 2 7 8
M  V30 8 1 7 9
M  V30 9 1 9 10
M  V30 10 2 10 11
M  V30 11 2 3 12
M  V30 12 1 12 13
M  V30 13 1 13 14
M  V30 14 1 14 15
M  V30 15 2 15 16
M  V30 16 1 16 17
M  V30 17 1 17 2
M  V30 18 1 10 5
M  V30 19 2 17 13
M  V30 20 1 1 18
M  V30 21 1 1 19
M  V30 22 1 1 20
M  V30 23 1 4 21
M  V30 24 1 9 22
M  V30 25 1 12 23
M  V30 26 1 15 24
M  V30 27 1 16 25
M  V30 END BOND
M  V30 END CTAB
M  END
>  <Dataset>  (912) 
ChEMBL_Kinases

>  <Ligand_Instance>  (912) 
nan

>  <PDB_ID>  (912) 
nan

>  <Standardized_SMILES>  (912) 
Cn1c(/C=C2\SC(=S)NC2=O)cc2sccc21

>  <Name>  (912) 
nan

>  <Pocket>  (912) 
nan

>  <ATP_Site>  (912) 
nan

>  <Peripheral>  (912) 
nan

>  <Num_H_Atoms_ProtBoundConf>  (912) 
nan

>  <Num_Resolved_Atoms>  (912) 
nan

>  <Num_Not_Resolved_Atoms>  (912) 
nan

$$$$
CHEMBL4069033
     RDKit          3D

  0  0  0  0  0  0  0  0  0  0999 V3000
M  V30 BEGIN CTAB
M  V30 COUNTS 72 77 0 0 0
M  V30 BEGIN ATOM
M  V30 1 O 3.658666 -4.351482 -1.250141 0
M  V30 2 C 2.405548 -4.189892 -1.058016 0
M  V30 3 N 1.614029 -5.320524 -0.773500 0
M  V30 4 C 2.109625 -6.680536 -0.676227 0
M  V30 5 C 2.718458 -7.046428 -2.012022 0
M  V30 6 N 1.682876 -6.935411 -3.025190 0
M  V30 7 C 0.698868 -7.948708 -2.822520 0
M  V30 8 C -0.159311 -8.214728 -4.015040 0
M  V30 9 O 0.486256 -8.185533 -5.229441 0
M  V30 10 C 1.147126 -6.944419 -5.359737 0
M  V30 11 C 2.266670 -6.968359 -4.352345 0
M  V30 12 C 1.902671 -2.825472 -1.152694 0
M  V30 13 C 2.816350 -1.817523 -1.384685 0
M  V30 14 C 2.424717 -0.480352 -1.484089 0
M  V30 15 C 1.088983 -0.154004 -1.347547 0
M  V30 16 C 0.171389 -1.186644 -1.112968 0
M  V30 17 C 0.568881 -2.516403 -1.014868 0
M  V30 18 C -1.296194 -1.119002 -0.932348 0
M  V30 19 O -1.970865 -2.130639 -1.234788 0
M  V30 20 C -1.966290 0.095163 -0.411514 0
M  V30 21 C -3.287556 -0.198710 -0.146486 0
M  V30 22 C -4.138876 0.760141 0.360471 0
M  V30 23 C -3.644435 2.025447 0.600091 0
M  V30 24 N -4.438455 3.100093 1.103858 0
M  V30 25 C -4.096357 4.238740 1.884669 0
M  V30 26 C -4.865753 5.378043 1.816203 0
M  V30 27 C -4.530831 6.468661 2.592519 0
M  V30 28 C -3.424058 6.328689 3.395497 0
M  V30 29 F -3.169302 7.427666 4.114068 0
M  V30 30 C -2.622643 5.229294 3.507858 0
M  V30 31 N -1.482858 5.047711 4.313709 0
M  V30 32 C -0.774830 5.836891 5.209756 0
M  V30 33 O -1.182498 6.987996 5.395819 0
M  V30 34 C 0.403241 5.445668 5.954953 0
M  V30 35 C 1.107485 4.313248 6.010422 0
M  V30 36 C 2.202944 4.233203 6.829258 0
M  V30 37 C 2.523100 5.357108 7.568723 0
M  V30 38 S 1.186036 6.596468 7.066367 0
M  V30 39 C -3.002843 4.175463 2.713977 0
M  V30 40 C -2.319953 2.336280 0.338786 0
M  V30 41 C -1.477418 1.368786 -0.169053 0
M  V30 42 O -0.146963 1.694040 -0.429169 0
M  V30 43 C 0.733447 1.283763 -1.455343 0
M  V30 44 H 0.609038 -5.141048 -0.626970 0
M  V30 45 H 2.881662 -6.748632 0.130630 0
M  V30 46 H 1.277999 -7.372523 -0.470489 0
M  V30 47 H 3.613204 -6.450870 -2.265257 0
M  V30 48 H 3.039123 -8.117950 -1.915751 0
M  V30 49 H -0.001314 -7.582820 -2.015535 0
M  V30 50 H 1.212558 -8.867713 -2.469221 0
M  V30 51 H -1.063386 -7.544452 -3.997987 0
M  V30 52 H -0.599661 -9.246069 -3.898954 0
M  V30 53 H 0.445983 -6.110317 -5.133147 0
M  V30 54 H 1.485977 -6.841834 -6.398562 0
M  V30 55 H 2.895959 -6.093230 -4.516978 0
M  V30 56 H 2.821196 -7.936671 -4.516762 0
M  V30 57 H 3.870162 -1.931406 -1.508141 0
M  V30 58 H 3.091281 0.350921 -1.663653 0
M  V30 59 H -0.168046 -3.278895 -0.833853 0
M  V30 60 H -3.680628 -1.171450 -0.326163 0
M  V30 61 H -5.193806 0.608574 0.595735 0
M  V30 62 H -5.450000 2.998142 0.830556 0
M  V30 63 H -5.707130 5.343980 1.140528 0
M  V30 64 H -5.138809 7.357374 2.535209 0
M  V30 65 H -0.996550 4.115073 4.284097 0
M  V30 66 H 0.777090 3.490985 5.393286 0
M  V30 67 H 2.831218 3.361096 6.937691 0
M  V30 68 H 3.350607 5.498567 8.273957 0
M  V30 69 H -2.451983 3.244491 2.724270 0
M  V30 70 H -1.804815 3.275722 0.468191 0
M  V30 71 H 0.355284 1.469896 -2.475725 0
M  V30 72 H 1.660979 1.889139 -1.337636 0
M  V30 END ATOM
M  V30 BEGIN BOND
M  V30 1 2 1 2
M  V30 2 1 2 3
M  V30 3 1 3 4
M  V30 4 1 4 5
M  V30 5 1 5 6
M  V30 6 1 6 7
M  V30 7 1 7 8
M  V30 8 1 8 9
M  V30 9 1 9 10
M  V30 10 1 10 11
M  V30 11 1 2 12
M  V30 12 2 12 13
M  V30 13 1 13 14
M  V30 14 2 14 15
M  V30 15 1 15 16
M  V30 16 2 16 17
M  V30 17 1 16 18
M  V30 18 2 18 19
M  V30 19 1 18 20
M  V30 20 2 20 21
M  V30 21 1 21 22
M  V30 22 2 22 23
M  V30 23 1 23 24
M  V30 24 1 24 25
M  V30 25 2 25 26
M  V30 26 1 26 27
M  V30 27 2 27 28
M  V30 28 1 28 29
M  V30 29 1 28 30
M  V30 30 1 30 31
M  V30 31 1 31 32
M  V30 32 2 32 33
M  V30 33 1 32 34
M  V30 34 2 34 35
M  V30 35 1 35 36
M  V30 36 2 36 37
M  V30 37 1 37 38
M  V30 38 2 30 39
M  V30 39 1 23 40
M  V30 40 2 40 41
M  V30 41 1 41 42
M  V30 42 1 42 43
M  V30 43 1 11 6
M  V30 44 1 17 12
M  V30 45 1 41 20
M  V30 46 1 43 15
M  V30 47 1 39 25
M  V30 48 1 38 34
M  V30 49 1 3 44
M  V30 50 1 4 45
M  V30 51 1 4 46
M  V30 52 1 5 47
M  V30 53 1 5 48
M  V30 54 1 7 49
M  V30 55 1 7 50
M  V30 56 1 8 51
M  V30 57 1 8 52
M  V30 58 1 10 53
M  V30 59 1 10 54
M  V30 60 1 11 55
M  V30 61 1 11 56
M  V30 62 1 13 57
M  V30 63 1 14 58
M  V30 64 1 17 59
M  V30 65 1 21 60
M  V30 66 1 22 61
M  V30 67 1 24 62
M  V30 68 1 26 63
M  V30 69 1 27 64
M  V30 70 1 31 65
M  V30 71 1 35 66
M  V30 72 1 36 67
M  V30 73 1 37 68
M  V30 74 1 39 69
M  V30 75 1 40 70
M  V30 76 1 43 71
M  V30 77 1 43 72
M  V30 END BOND
M  V30 END CTAB
M  END
>  <Dataset>  (913) 
ChEMBL_Kinases

>  <Ligand_Instance>  (913) 
nan

>  <PDB_ID>  (913) 
nan

>  <Standardized_SMILES>  (913) 
O=C(NCCN1CCOCC1)c1ccc2c(c1)C(=O)c1ccc(Nc3ccc(F)c(NC(=O)c4cccs4)c3)cc1OC2

>  <Name>  (913) 
nan

>  <Pocket>  (913) 
nan

>  <ATP_Site>  (913) 
nan

>  <Peripheral>  (913) 
nan

>  <Num_H_Atoms_ProtBoundConf>  (913) 
nan

>  <Num_Resolved_Atoms>  (913) 
nan

>  <Num_Not_Resolved_Atoms>  (913) 
nan

$$$$
CHEMBL4069022
     RDKit          3D

  0  0  0  0  0  0  0  0  0  0999 V3000
M  V30 BEGIN CTAB
M  V30 COUNTS 47 50 0 0 0
M  V30 BEGIN ATOM
M  V30 1 C -0.304466 -4.082706 5.556928 0
M  V30 2 C -0.484315 -3.414089 4.218038 0
M  V30 3 C -0.682402 -4.093074 3.027922 0
M  V30 4 C -0.796390 -3.167963 2.010474 0
M  V30 5 N -1.027540 -3.480826 0.643153 0
M  V30 6 C -0.984381 -2.307921 -0.204214 0
M  V30 7 N 0.124445 -1.541702 -0.055769 0
M  V30 8 C 0.369183 -0.416223 -0.736676 0
M  V30 9 C 1.632106 0.225578 -0.389333 0
M  V30 10 O 2.579923 -0.500956 -0.773632 0
M  V30 11 N 1.690831 1.464200 0.275089 0
M  V30 12 C 0.554897 2.289886 0.710042 0
M  V30 13 C 0.976617 3.728713 0.400314 0
M  V30 14 N 2.052697 4.098281 1.310766 0
M  V30 15 C 2.845732 2.959180 1.697578 0
M  V30 16 C 3.025974 1.953264 0.553990 0 CFG=1
M  V30 17 C 3.928462 0.857180 1.074219 0
M  V30 18 N -0.570508 -0.020487 -1.639377 0
M  V30 19 C -1.689221 -0.736250 -1.830623 0
M  V30 20 C -2.638280 -0.337570 -2.733521 0
M  V30 21 C -3.792020 -1.118293 -2.891553 0
M  V30 22 C -3.987670 -2.274468 -2.157764 0
M  V30 23 Cl -5.455988 -3.186552 -2.420094 0
M  V30 24 C -3.031520 -2.702374 -1.229482 0
M  V30 25 C -1.915094 -1.888936 -1.118611 0
M  V30 26 N -0.663927 -1.959204 2.621834 0
M  V30 27 N -0.482377 -2.089248 3.907893 0
M  V30 28 H 0.140919 -5.065967 5.353668 0
M  V30 29 H -1.277244 -4.186585 6.061833 0
M  V30 30 H 0.370276 -3.404849 6.114562 0
M  V30 31 H -0.754117 -5.164365 2.854559 0
M  V30 32 H -1.202469 -4.441805 0.307425 0
M  V30 33 H -0.372826 2.058105 0.177260 0
M  V30 34 H 0.421665 2.187389 1.807843 0
M  V30 35 H 0.123619 4.430011 0.444371 0
M  V30 36 H 1.453979 3.679528 -0.626727 0
M  V30 37 H 2.616500 4.847825 0.841997 0
M  V30 38 H 2.324766 2.444925 2.523093 0
M  V30 39 H 3.832129 3.307934 2.067717 0
M  V30 40 H 3.524866 2.437164 -0.287682 0
M  V30 41 H 4.518289 1.266704 1.904421 0
M  V30 42 H 4.684603 0.525522 0.311601 0
M  V30 43 H 3.381020 -0.049654 1.387578 0
M  V30 44 H -2.472711 0.578356 -3.308053 0
M  V30 45 H -4.488115 -0.734756 -3.621605 0
M  V30 46 H -3.160471 -3.601768 -0.644812 0
M  V30 47 H -0.349357 -1.315426 4.624956 0
M  V30 END ATOM
M  V30 BEGIN BOND
M  V30 1 1 1 2
M  V30 2 2 2 3
M  V30 3 1 3 4
M  V30 4 1 4 5
M  V30 5 1 5 6
M  V30 6 2 6 7
M  V30 7 1 7 8
M  V30 8 1 8 9
M  V30 9 2 9 10
M  V30 10 1 9 11
M  V30 11 1 11 12
M  V30 12 1 12 13
M  V30 13 1 13 14
M  V30 14 1 14 15
M  V30 15 1 15 16
M  V30 16 1 16 17
M  V30 17 2 8 18
M  V30 18 1 18 19
M  V30 19 2 19 20
M  V30 20 1 20 21
M  V30 21 2 21 22
M  V30 22 1 22 23
M  V30 23 1 22 24
M  V30 24 2 24 25
M  V30 25 2 4 26
M  V30 26 1 26 27
M  V30 27 1 27 2
M  V30 28 1 25 6
M  V30 29 1 16 11
M  V30 30 1 25 19
M  V30 31 1 1 28
M  V30 32 1 1 29
M  V30 33 1 1 30
M  V30 34 1 3 31
M  V30 35 1 5 32
M  V30 36 1 12 33
M  V30 37 1 12 34
M  V30 38 1 13 35
M  V30 39 1 13 36
M  V30 40 1 14 37
M  V30 41 1 15 38
M  V30 42 1 15 39
M  V30 43 1 16 40 CFG=3
M  V30 44 1 17 41
M  V30 45 1 17 42
M  V30 46 1 17 43
M  V30 47 1 20 44
M  V30 48 1 21 45
M  V30 49 1 24 46
M  V30 50 1 27 47
M  V30 END BOND
M  V30 END CTAB
M  END
>  <Dataset>  (914) 
ChEMBL_Kinases

>  <Ligand_Instance>  (914) 
nan

>  <PDB_ID>  (914) 
nan

>  <Standardized_SMILES>  (914) 
Cc1cc(Nc2nc(C(=O)N3CCNC[C@H]3C)nc3ccc(Cl)cc23)n[nH]1

>  <Name>  (914) 
nan

>  <Pocket>  (914) 
nan

>  <ATP_Site>  (914) 
nan

>  <Peripheral>  (914) 
nan

>  <Num_H_Atoms_ProtBoundConf>  (914) 
nan

>  <Num_Resolved_Atoms>  (914) 
nan

>  <Num_Not_Resolved_Atoms>  (914) 
nan

$$$$
CHEMBL4068965
     RDKit          3D

  0  0  0  0  0  0  0  0  0  0999 V3000
M  V30 BEGIN CTAB
M  V30 COUNTS 42 44 0 0 0
M  V30 BEGIN ATOM
M  V30 1 C 0.508530 -3.808047 2.312020 0
M  V30 2 C 0.045864 -3.140640 1.007061 0 CFG=2
M  V30 3 C 0.791359 -3.900211 -0.103150 0
M  V30 4 N 0.971269 -3.120974 -1.290791 0
M  V30 5 C -0.265212 -2.984767 -1.994446 0
M  V30 6 C 1.665362 -1.874028 -1.045593 0
M  V30 7 C 1.800711 -1.699267 0.471117 0
M  V30 8 N 0.436546 -1.748769 0.985325 0
M  V30 9 C -0.137214 -0.496185 1.313528 0
M  V30 10 N 0.667076 0.553467 1.069669 0
M  V30 11 C 0.270144 1.835850 1.329893 0
M  V30 12 C 1.182871 2.936013 1.044808 0
M  V30 13 C 2.424588 2.649288 0.518564 0
M  V30 14 C 3.197247 3.775012 0.292449 0
M  V30 15 N 2.839004 5.048126 0.536752 0
M  V30 16 C 1.595596 5.251008 1.057247 0
M  V30 17 N 0.777445 4.185606 1.306591 0
M  V30 18 C -0.985134 2.031501 1.852929 0
M  V30 19 C -1.829309 0.977248 2.112628 0
M  V30 20 O -2.979467 1.117770 2.588868 0
M  V30 21 N -1.349180 -0.243117 1.823680 0
M  V30 22 C -2.216234 -1.360787 2.092407 0
M  V30 23 H 1.087776 -4.732776 2.125511 0
M  V30 24 H 1.158063 -3.137188 2.886905 0
M  V30 25 H -0.396116 -4.132574 2.864173 0
M  V30 26 H -1.016349 -3.311297 0.836937 0
M  V30 27 H 0.116044 -4.748537 -0.389686 0
M  V30 28 H 1.728574 -4.306724 0.307711 0
M  V30 29 H -0.837749 -2.069469 -1.756112 0
M  V30 30 H -0.116633 -3.043604 -3.096102 0
M  V30 31 H -0.936530 -3.839852 -1.740505 0
M  V30 32 H 1.084002 -1.022311 -1.469486 0
M  V30 33 H 2.689211 -1.920585 -1.464861 0
M  V30 34 H 2.428007 -2.498600 0.867512 0
M  V30 35 H 2.266202 -0.697883 0.652947 0
M  V30 36 H 2.771840 1.659054 0.300091 0
M  V30 37 H 4.196221 3.659841 -0.121376 0
M  V30 38 H 1.142748 6.200237 1.314355 0
M  V30 39 H -1.343130 3.025775 2.075002 0
M  V30 40 H -3.122836 -1.025644 2.696372 0
M  V30 41 H -1.772460 -2.135088 2.717656 0
M  V30 42 H -2.673852 -1.699421 1.143111 0
M  V30 END ATOM
M  V30 BEGIN BOND
M  V30 1 1 1 2
M  V30 2 1 2 3
M  V30 3 1 3 4
M  V30 4 1 4 5
M  V30 5 1 4 6
M  V30 6 1 6 7
M  V30 7 1 7 8
M  V30 8 1 8 9
M  V30 9 2 9 10
M  V30 10 1 10 11
M  V30 11 1 11 12
M  V30 12 2 12 13
M  V30 13 1 13 14
M  V30 14 2 14 15
M  V30 15 1 15 16
M  V30 16 2 16 17
M  V30 17 2 11 18
M  V30 18 1 18 19
M  V30 19 2 19 20
M  V30 20 1 19 21
M  V30 21 1 21 22
M  V30 22 1 8 2
M  V30 23 1 21 9
M  V30 24 1 17 12
M  V30 25 1 1 23
M  V30 26 1 1 24
M  V30 27 1 1 25
M  V30 28 1 2 26 CFG=3
M  V30 29 1 3 27
M  V30 30 1 3 28
M  V30 31 1 5 29
M  V30 32 1 5 30
M  V30 33 1 5 31
M  V30 34 1 6 32
M  V30 35 1 6 33
M  V30 36 1 7 34
M  V30 37 1 7 35
M  V30 38 1 13 36
M  V30 39 1 14 37
M  V30 40 1 16 38
M  V30 41 1 18 39
M  V30 42 1 22 40
M  V30 43 1 22 41
M  V30 44 1 22 42
M  V30 END BOND
M  V30 END CTAB
M  END
>  <Dataset>  (915) 
ChEMBL_Kinases

>  <Ligand_Instance>  (915) 
nan

>  <PDB_ID>  (915) 
nan

>  <Standardized_SMILES>  (915) 
C[C@@H]1CN(C)CCN1c1nc(-c2ccncn2)cc(=O)n1C

>  <Name>  (915) 
nan

>  <Pocket>  (915) 
nan

>  <ATP_Site>  (915) 
nan

>  <Peripheral>  (915) 
nan

>  <Num_H_Atoms_ProtBoundConf>  (915) 
nan

>  <Num_Resolved_Atoms>  (915) 
nan

>  <Num_Not_Resolved_Atoms>  (915) 
nan

$$$$
CHEMBL4860771
     RDKit          3D

  0  0  0  0  0  0  0  0  0  0999 V3000
M  V30 BEGIN CTAB
M  V30 COUNTS 47 49 0 0 0
M  V30 BEGIN ATOM
M  V30 1 C 2.115095 -3.848004 2.543683 0
M  V30 2 N 0.800584 -3.852374 1.935776 0
M  V30 3 C 0.221284 -3.322480 0.770480 0
M  V30 4 N 0.999629 -2.610932 -0.063768 0
M  V30 5 C 0.492432 -2.075523 -1.197475 0
M  V30 6 N 1.150899 -1.312154 -2.186157 0
M  V30 7 C 1.277848 0.101110 -2.026497 0
M  V30 8 C 1.873017 0.865964 -3.012794 0
M  V30 9 N 1.981820 2.191050 -2.819910 0
M  V30 10 C 1.543282 2.812877 -1.718911 0
M  V30 11 C 1.698601 4.252847 -1.585373 0
M  V30 12 N 1.803150 5.403573 -1.484655 0
M  V30 13 C 0.928021 2.118454 -0.668435 0
M  V30 14 N 0.448313 2.745855 0.511896 0
M  V30 15 C -0.173751 2.217299 1.682289 0
M  V30 16 C 0.662418 1.292991 2.509278 0
M  V30 17 C -0.052381 1.042654 3.846321 0
M  V30 18 N -1.394695 0.582883 3.661115 0
M  V30 19 C -1.679577 0.299466 2.263629 0
M  V30 20 C -1.488113 1.518138 1.408236 0
M  V30 21 C 0.833307 0.760743 -0.902525 0
M  V30 22 N -0.810289 -2.261924 -1.487886 0
M  V30 23 C -1.589399 -2.975242 -0.651810 0
M  V30 24 C -1.132951 -3.542141 0.511403 0
M  V30 25 C -2.000598 -4.330168 1.432659 0
M  V30 26 F -3.274117 -4.340029 0.852254 0
M  V30 27 F -1.549466 -5.614058 1.621090 0
M  V30 28 F -2.136927 -3.732328 2.672895 0
M  V30 29 H 2.890776 -3.352037 1.907831 0
M  V30 30 H 2.489371 -4.880382 2.720384 0
M  V30 31 H 2.082222 -3.313307 3.535646 0
M  V30 32 H 0.209646 -4.411582 2.604389 0
M  V30 33 H 1.549754 -1.757097 -3.036904 0
M  V30 34 H 2.253663 0.446432 -3.929271 0
M  V30 35 H 0.604417 3.802703 0.465818 0
M  V30 36 H -0.411090 3.087069 2.360306 0
M  V30 37 H 1.622448 1.807731 2.809318 0
M  V30 38 H 0.925881 0.338590 2.069266 0
M  V30 39 H 0.523741 0.270215 4.378342 0
M  V30 40 H -0.024494 1.981699 4.439755 0
M  V30 41 H -1.588909 -0.222565 4.263336 0
M  V30 42 H -2.755301 0.007399 2.156393 0
M  V30 43 H -1.079766 -0.568954 1.981924 0
M  V30 44 H -2.330849 2.207704 1.669928 0
M  V30 45 H -1.644434 1.264340 0.353723 0
M  V30 46 H 0.376357 0.104631 -0.185476 0
M  V30 47 H -2.650782 -3.145409 -0.859921 0
M  V30 END ATOM
M  V30 BEGIN BOND
M  V30 1 1 1 2
M  V30 2 1 2 3
M  V30 3 2 3 4
M  V30 4 1 4 5
M  V30 5 1 5 6
M  V30 6 1 6 7
M  V30 7 2 7 8
M  V30 8 1 8 9
M  V30 9 2 9 10
M  V30 10 1 10 11
M  V30 11 3 11 12
M  V30 12 1 10 13
M  V30 13 1 13 14
M  V30 14 1 14 15
M  V30 15 1 15 16
M  V30 16 1 16 17
M  V30 17 1 17 18
M  V30 18 1 18 19
M  V30 19 1 19 20
M  V30 20 2 13 21
M  V30 21 2 5 22
M  V30 22 1 22 23
M  V30 23 2 23 24
M  V30 24 1 24 25
M  V30 25 1 25 26
M  V30 26 1 25 27
M  V30 27 1 25 28
M  V30 28 1 24 3
M  V30 29 1 21 7
M  V30 30 1 20 15
M  V30 31 1 1 29
M  V30 32 1 1 30
M  V30 33 1 1 31
M  V30 34 1 2 32
M  V30 35 1 6 33
M  V30 36 1 8 34
M  V30 37 1 14 35
M  V30 38 1 15 36
M  V30 39 1 16 37
M  V30 40 1 16 38
M  V30 41 1 17 39
M  V30 42 1 17 40
M  V30 43 1 18 41
M  V30 44 1 19 42
M  V30 45 1 19 43
M  V30 46 1 20 44
M  V30 47 1 20 45
M  V30 48 1 21 46
M  V30 49 1 23 47
M  V30 END BOND
M  V30 END CTAB
M  END
>  <Dataset>  (916) 
ChEMBL_Kinases

>  <Ligand_Instance>  (916) 
nan

>  <PDB_ID>  (916) 
nan

>  <Standardized_SMILES>  (916) 
CNc1nc(Nc2cnc(C#N)c(NC3CCNCC3)c2)ncc1C(F)(F)F

>  <Name>  (916) 
nan

>  <Pocket>  (916) 
nan

>  <ATP_Site>  (916) 
nan

>  <Peripheral>  (916) 
nan

>  <Num_H_Atoms_ProtBoundConf>  (916) 
nan

>  <Num_Resolved_Atoms>  (916) 
nan

>  <Num_Not_Resolved_Atoms>  (916) 
nan

$$$$
CHEMBL4860819
     RDKit          3D

  0  0  0  0  0  0  0  0  0  0999 V3000
M  V30 BEGIN CTAB
M  V30 COUNTS 44 46 0 0 0
M  V30 BEGIN ATOM
M  V30 1 C 2.043331 -4.276358 2.032935 0
M  V30 2 O 1.997823 -2.888638 2.025101 0
M  V30 3 C 2.630007 -2.114700 3.039196 0
M  V30 4 N 3.350918 -2.102745 4.153660 0
M  V30 5 N 3.548539 -0.829140 4.523903 0
M  V30 6 C 4.339361 -0.808349 5.734923 0
M  V30 7 C 2.881848 -0.180118 3.528184 0
M  V30 8 C 2.212752 -0.956087 2.452824 0
M  V30 9 C 1.759205 0.304248 1.815525 0
M  V30 10 O 1.283928 -0.571429 0.964442 0
M  V30 11 N 1.555848 1.720125 1.602680 0
M  V30 12 C 0.816563 1.738356 0.386450 0
M  V30 13 C 0.653692 3.117875 0.209272 0
M  V30 14 C -0.030661 3.670198 -0.887453 0
M  V30 15 C -0.524369 2.741960 -1.768494 0
M  V30 16 C -0.367948 1.386386 -1.601047 0
M  V30 17 C -0.813947 0.282304 -2.429611 0
M  V30 18 N -0.388321 0.149783 -3.716371 0
M  V30 19 N -0.950245 -0.947516 -4.213322 0
M  V30 20 C -1.707831 -1.469797 -3.236317 0
M  V30 21 N -1.644823 -0.730846 -2.118380 0
M  V30 22 C -2.267046 -0.886314 -0.842531 0 CFG=1
M  V30 23 C -3.598616 -0.171705 -0.783153 0
M  V30 24 C -2.552378 -2.360376 -0.511379 0
M  V30 25 F -3.153366 -2.330903 0.754251 0
M  V30 26 F -3.446717 -2.854698 -1.409919 0
M  V30 27 F -1.364123 -3.028434 -0.433490 0
M  V30 28 N 0.295325 0.932421 -0.531709 0
M  V30 29 H 3.032054 -4.670719 1.649331 0
M  V30 30 H 1.821840 -4.717803 3.050597 0
M  V30 31 H 1.236769 -4.700091 1.384086 0
M  V30 32 H 5.287022 -1.331051 5.627971 0
M  V30 33 H 3.768524 -1.283919 6.558522 0
M  V30 34 H 4.457702 0.259848 6.033458 0
M  V30 35 H 3.126850 0.837029 3.965009 0
M  V30 36 H 2.061069 1.707092 2.433791 0
M  V30 37 H 1.015606 3.934400 0.858539 0
M  V30 38 H -0.235498 4.675801 -1.156617 0
M  V30 39 H -1.073009 3.008059 -2.662291 0
M  V30 40 H -2.293624 -2.361659 -3.326161 0
M  V30 41 H -1.570425 -0.547346 -0.023803 0
M  V30 42 H -3.783013 0.339140 -1.750335 0
M  V30 43 H -3.561751 0.510559 0.084109 0
M  V30 44 H -4.450981 -0.865663 -0.588790 0
M  V30 END ATOM
M  V30 BEGIN BOND
M  V30 1 1 1 2
M  V30 2 1 2 3
M  V30 3 2 3 4
M  V30 4 1 4 5
M  V30 5 1 5 6
M  V30 6 1 5 7
M  V30 7 2 7 8
M  V30 8 1 8 9
M  V30 9 2 9 10
M  V30 10 1 9 11
M  V30 11 1 11 12
M  V30 12 2 12 13
M  V30 13 1 13 14
M  V30 14 2 14 15
M  V30 15 1 15 16
M  V30 16 1 16 17
M  V30 17 2 17 18
M  V30 18 1 18 19
M  V30 19 2 19 20
M  V30 20 1 20 21
M  V30 21 1 21 22
M  V30 22 1 22 23
M  V30 23 1 22 24
M  V30 24 1 24 25
M  V30 25 1 24 26
M  V30 26 1 24 27
M  V30 27 2 16 28
M  V30 28 1 8 3
M  V30 29 1 28 12
M  V30 30 1 21 17
M  V30 31 1 1 29
M  V30 32 1 1 30
M  V30 33 1 1 31
M  V30 34 1 6 32
M  V30 35 1 6 33
M  V30 36 1 6 34
M  V30 37 1 7 35
M  V30 38 1 11 36
M  V30 39 1 13 37
M  V30 40 1 14 38
M  V30 41 1 15 39
M  V30 42 1 20 40
M  V30 43 1 22 41 CFG=1
M  V30 44 1 23 42
M  V30 45 1 23 43
M  V30 46 1 23 44
M  V30 END BOND
M  V30 END CTAB
M  END
>  <Dataset>  (917) 
ChEMBL_Kinases

>  <Ligand_Instance>  (917) 
nan

>  <PDB_ID>  (917) 
nan

>  <Standardized_SMILES>  (917) 
COc1nn(C)cc1C(=O)Nc1cccc(-c2nncn2[C@@H](C)C(F)(F)F)n1

>  <Name>  (917) 
nan

>  <Pocket>  (917) 
nan

>  <ATP_Site>  (917) 
nan

>  <Peripheral>  (917) 
nan

>  <Num_H_Atoms_ProtBoundConf>  (917) 
nan

>  <Num_Resolved_Atoms>  (917) 
nan

>  <Num_Not_Resolved_Atoms>  (917) 
nan

$$$$
CHEMBL4068861
     RDKit          3D

  0  0  0  0  0  0  0  0  0  0999 V3000
M  V30 BEGIN CTAB
M  V30 COUNTS 27 29 0 0 0
M  V30 BEGIN ATOM
M  V30 1 N -2.152759 -2.414597 1.760853 0
M  V30 2 C -1.017501 -2.483457 1.624239 0
M  V30 3 C 0.402499 -2.588637 1.469689 0
M  V30 4 C 1.116522 -3.722901 1.835124 0
M  V30 5 N 2.425956 -3.486949 1.571577 0
M  V30 6 C 2.603799 -2.246898 1.048731 0
M  V30 7 N 3.673674 -1.543557 0.636824 0
M  V30 8 C 3.500366 -0.293193 0.163755 0
M  V30 9 C 2.233536 0.254134 0.104806 0
M  V30 10 C 1.087785 -0.438335 0.521177 0
M  V30 11 C -0.149690 0.268734 0.358534 0
M  V30 12 C -0.129355 1.516715 0.999442 0
M  V30 13 C -1.198713 2.388333 0.969282 0
M  V30 14 C -2.351620 2.054190 0.291705 0
M  V30 15 C -2.387352 0.830930 -0.343803 0
M  V30 16 O -3.505140 0.409794 -1.050011 0
M  V30 17 C -1.317477 -0.035059 -0.310835 0
M  V30 18 C 1.346045 -1.705972 0.991693 0
M  V30 19 H 0.735744 -4.640012 2.253822 0
M  V30 20 H 3.195867 -4.187328 1.754941 0
M  V30 21 H 4.370381 0.265694 -0.165552 0
M  V30 22 H 2.176086 1.261610 -0.286538 0
M  V30 23 H 0.714948 1.915697 1.573761 0
M  V30 24 H -1.200011 3.352951 1.457187 0
M  V30 25 H -3.244737 2.653058 0.201363 0
M  V30 26 H -3.808720 -0.529649 -1.161243 0
M  V30 27 H -1.274471 -0.999656 -0.792289 0
M  V30 END ATOM
M  V30 BEGIN BOND
M  V30 1 3 1 2
M  V30 2 1 2 3
M  V30 3 2 3 4
M  V30 4 1 4 5
M  V30 5 1 5 6
M  V30 6 2 6 7
M  V30 7 1 7 8
M  V30 8 2 8 9
M  V30 9 1 9 10
M  V30 10 1 10 11
M  V30 11 2 11 12
M  V30 12 1 12 13
M  V30 13 2 13 14
M  V30 14 1 14 15
M  V30 15 1 15 16
M  V30 16 2 15 17
M  V30 17 2 10 18
M  V30 18 1 18 3
M  V30 19 1 18 6
M  V30 20 1 17 11
M  V30 21 1 4 19
M  V30 22 1 5 20
M  V30 23 1 8 21
M  V30 24 1 9 22
M  V30 25 1 12 23
M  V30 26 1 13 24
M  V30 27 1 14 25
M  V30 28 1 16 26
M  V30 29 1 17 27
M  V30 END BOND
M  V30 END CTAB
M  END
>  <Dataset>  (918) 
ChEMBL_Kinases

>  <Ligand_Instance>  (918) 
nan

>  <PDB_ID>  (918) 
nan

>  <Standardized_SMILES>  (918) 
N#Cc1c[nH]c2nccc(-c3cccc(O)c3)c12

>  <Name>  (918) 
nan

>  <Pocket>  (918) 
nan

>  <ATP_Site>  (918) 
nan

>  <Peripheral>  (918) 
nan

>  <Num_H_Atoms_ProtBoundConf>  (918) 
nan

>  <Num_Resolved_Atoms>  (918) 
nan

>  <Num_Not_Resolved_Atoms>  (918) 
nan

$$$$
CHEMBL4068839
     RDKit          3D

  0  0  0  0  0  0  0  0  0  0999 V3000
M  V30 BEGIN CTAB
M  V30 COUNTS 59 63 0 0 0
M  V30 BEGIN ATOM
M  V30 1 C 0.679934 -2.109351 3.010251 0
M  V30 2 C 0.264802 -0.850779 3.027503 0
M  V30 3 C 1.628971 -0.864374 2.583158 0
M  V30 4 O 2.120105 -2.019877 2.530623 0
M  V30 5 N 2.580041 0.110554 2.181916 0
M  V30 6 C 3.783604 -0.597010 1.859160 0
M  V30 7 C 4.894795 0.306141 1.402477 0
M  V30 8 C 4.477858 1.368844 0.434009 0
M  V30 9 C 3.111369 1.893728 0.628743 0 CFG=1
M  V30 10 N 2.146658 1.384908 -0.348202 0
M  V30 11 N 1.009336 0.759395 -0.063958 0
M  V30 12 C 0.353901 0.422587 -1.213604 0
M  V30 13 C -0.916944 -0.279653 -1.140262 0
M  V30 14 C -0.909555 -1.404064 -0.304396 0
M  V30 15 C -2.025723 -2.184164 -0.098128 0
M  V30 16 C -3.219532 -1.884297 -0.717820 0
M  V30 17 O -4.434694 -2.528646 -0.646416 0
M  V30 18 C -4.649944 -3.660587 0.128976 0
M  V30 19 C -4.411695 -3.369288 1.560637 0
M  V30 20 C -4.240833 -2.116379 2.142854 0
M  V30 21 C -4.036903 -2.057434 3.512073 0
M  V30 22 C -3.994641 -3.179208 4.328466 0
M  V30 23 C -4.175372 -4.374151 3.652919 0
M  V30 24 N -4.376322 -4.465145 2.319163 0
M  V30 25 C -3.237830 -0.767012 -1.551841 0
M  V30 26 Cl -4.685696 -0.245723 -2.420480 0
M  V30 27 C -2.108149 -0.001218 -1.742650 0
M  V30 28 C 1.170933 0.884811 -2.205614 0
M  V30 29 C 0.983110 0.798710 -3.565952 0
M  V30 30 N -0.160749 0.162397 -4.114283 0
M  V30 31 N 1.935800 1.327751 -4.354377 0
M  V30 32 C 3.036353 1.920632 -3.816000 0
M  V30 33 N 3.225004 2.006074 -2.483093 0
M  V30 34 C 2.291270 1.487010 -1.673932 0
M  V30 35 C 2.606797 1.550182 2.035918 0
M  V30 36 H 0.309363 -3.116658 3.226210 0
M  V30 37 H 0.548080 -3.174590 3.153791 0
M  V30 38 H -0.672889 -0.391525 3.290494 0
M  V30 39 H 4.136426 -1.099431 2.807708 0
M  V30 40 H 3.623901 -1.422255 1.136658 0
M  V30 41 H 5.388936 0.718407 2.312668 0
M  V30 42 H 5.663771 -0.355879 0.917464 0
M  V30 43 H 5.204737 2.199452 0.543883 0
M  V30 44 H 4.592938 1.033937 -0.623128 0
M  V30 45 H 3.113557 3.000048 0.562468 0
M  V30 46 H -0.023401 -1.722629 0.226952 0
M  V30 47 H -2.055690 -3.058695 0.534288 0
M  V30 48 H -5.721050 -3.964892 0.034036 0
M  V30 49 H -4.081107 -4.554447 -0.194452 0
M  V30 50 H -4.282714 -1.287724 1.475135 0
M  V30 51 H -3.904961 -1.090422 3.961417 0
M  V30 52 H -3.834984 -3.103936 5.382370 0
M  V30 53 H -4.146138 -5.274925 4.275039 0
M  V30 54 H -2.127448 0.861413 -2.370558 0
M  V30 55 H -0.336544 -0.498228 -4.901363 0
M  V30 56 H 0.096709 -0.449999 -4.937616 0
M  V30 57 H 3.767469 2.327982 -4.517730 0
M  V30 58 H 3.150547 2.088683 2.805753 0
M  V30 59 H 1.543301 1.896013 2.030224 0
M  V30 END ATOM
M  V30 BEGIN BOND
M  V30 1 2 1 2
M  V30 2 1 2 3
M  V30 3 2 3 4
M  V30 4 1 3 5
M  V30 5 1 5 6
M  V30 6 1 6 7
M  V30 7 1 7 8
M  V30 8 1 8 9
M  V30 9 1 9 10
M  V30 10 1 10 11
M  V30 11 2 11 12
M  V30 12 1 12 13
M  V30 13 2 13 14
M  V30 14 1 14 15
M  V30 15 2 15 16
M  V30 16 1 16 17
M  V30 17 1 17 18
M  V30 18 1 18 19
M  V30 19 2 19 20
M  V30 20 1 20 21
M  V30 21 2 21 22
M  V30 22 1 22 23
M  V30 23 2 23 24
M  V30 24 1 16 25
M  V30 25 1 25 26
M  V30 26 2 25 27
M  V30 27 1 12 28
M  V30 28 2 28 29
M  V30 29 1 29 30
M  V30 30 1 29 31
M  V30 31 2 31 32
M  V30 32 1 32 33
M  V30 33 2 33 34
M  V30 34 1 9 35
M  V30 35 1 35 5
M  V30 36 1 34 10
M  V30 37 1 27 13
M  V30 38 1 34 28
M  V30 39 1 24 19
M  V30 40 1 1 36
M  V30 41 1 1 37
M  V30 42 1 2 38
M  V30 43 1 6 39
M  V30 44 1 6 40
M  V30 45 1 7 41
M  V30 46 1 7 42
M  V30 47 1 8 43
M  V30 48 1 8 44
M  V30 49 1 9 45 CFG=1
M  V30 50 1 14 46
M  V30 51 1 15 47
M  V30 52 1 18 48
M  V30 53 1 18 49
M  V30 54 1 20 50
M  V30 55 1 21 51
M  V30 56 1 22 52
M  V30 57 1 23 53
M  V30 58 1 27 54
M  V30 59 1 30 55
M  V30 60 1 30 56
M  V30 61 1 32 57
M  V30 62 1 35 58
M  V30 63 1 35 59
M  V30 END BOND
M  V30 END CTAB
M  END
>  <Dataset>  (919) 
ChEMBL_Kinases

>  <Ligand_Instance>  (919) 
nan

>  <PDB_ID>  (919) 
nan

>  <Standardized_SMILES>  (919) 
C=CC(=O)N1CCC[C@@H](n2nc(-c3ccc(OCc4ccccn4)c(Cl)c3)c3c(N)ncnc32)C1

>  <Name>  (919) 
nan

>  <Pocket>  (919) 
nan

>  <ATP_Site>  (919) 
nan

>  <Peripheral>  (919) 
nan

>  <Num_H_Atoms_ProtBoundConf>  (919) 
nan

>  <Num_Resolved_Atoms>  (919) 
nan

>  <Num_Not_Resolved_Atoms>  (919) 
nan

$$$$
CHEMBL4068792
     RDKit          3D

  0  0  0  0  0  0  0  0  0  0999 V3000
M  V30 BEGIN CTAB
M  V30 COUNTS 43 45 0 0 0
M  V30 BEGIN ATOM
M  V30 1 C 0.186127 -6.233428 2.495233 0
M  V30 2 O -0.536288 -5.415352 1.616684 0
M  V30 3 C -0.030402 -4.402469 0.848373 0
M  V30 4 C 1.282428 -3.984141 0.782881 0
M  V30 5 C 1.711290 -2.949262 -0.022194 0
M  V30 6 C 0.718247 -2.351677 -0.770114 0
M  V30 7 C 1.089678 -1.211128 -1.680439 0
M  V30 8 O 0.955203 -0.056836 -0.912259 0
M  V30 9 C 1.176722 1.236485 -1.283587 0
M  V30 10 C 1.587613 1.478142 -2.576131 0
M  V30 11 C 1.827103 2.758260 -3.010665 0
M  V30 12 C 1.635979 3.751897 -2.099902 0
M  V30 13 Br 1.953330 5.549236 -2.647468 0
M  V30 14 C 1.226641 3.503126 -0.814489 0
M  V30 15 C 0.979529 2.227572 -0.353448 0
M  V30 16 C 0.551356 2.083014 1.023461 0
M  V30 17 O 0.416262 3.098616 1.754903 0
M  V30 18 N 0.231109 0.916657 1.757125 0
M  V30 19 C -0.170638 1.020060 3.115965 0
M  V30 20 C -1.534759 1.161931 3.268991 0
M  V30 21 C -2.078519 1.275727 4.550284 0
M  V30 22 C -1.224086 1.242830 5.647504 0
M  V30 23 N 0.109605 1.102611 5.465654 0
M  V30 24 C 0.656053 0.991122 4.239195 0
M  V30 25 C -0.617077 -2.697277 -0.773208 0
M  V30 26 C -0.972893 -3.752007 0.065851 0
M  V30 27 H 1.274460 -6.105988 2.468626 0
M  V30 28 H 0.010855 -7.313022 2.224838 0
M  V30 29 H -0.229856 -6.145330 3.523982 0
M  V30 30 H 1.987617 -4.516082 1.407859 0
M  V30 31 H 2.734813 -2.637746 -0.060493 0
M  V30 32 H 0.384071 -1.149438 -2.538180 0
M  V30 33 H 2.090549 -1.355577 -2.137797 0
M  V30 34 H 1.724554 0.647999 -3.261762 0
M  V30 35 H 2.145191 2.895148 -4.025322 0
M  V30 36 H 1.097316 4.367613 -0.144468 0
M  V30 37 H 0.306844 0.009065 1.252405 0
M  V30 38 H -2.252651 1.193805 2.437381 0
M  V30 39 H -3.157557 1.388638 4.685966 0
M  V30 40 H -1.607803 1.328479 6.665580 0
M  V30 41 H 1.705333 0.877484 4.025421 0
M  V30 42 H -1.332565 -2.182009 -1.385987 0
M  V30 43 H -2.035813 -4.026128 0.062541 0
M  V30 END ATOM
M  V30 BEGIN BOND
M  V30 1 1 1 2
M  V30 2 1 2 3
M  V30 3 2 3 4
M  V30 4 1 4 5
M  V30 5 2 5 6
M  V30 6 1 6 7
M  V30 7 1 7 8
M  V30 8 1 8 9
M  V30 9 2 9 10
M  V30 10 1 10 11
M  V30 11 2 11 12
M  V30 12 1 12 13
M  V30 13 1 12 14
M  V30 14 2 14 15
M  V30 15 1 15 16
M  V30 16 2 16 17
M  V30 17 1 16 18
M  V30 18 1 18 19
M  V30 19 2 19 20
M  V30 20 1 20 21
M  V30 21 2 21 22
M  V30 22 1 22 23
M  V30 23 2 23 24
M  V30 24 1 6 25
M  V30 25 2 25 26
M  V30 26 1 26 3
M  V30 27 1 15 9
M  V30 28 1 24 19
M  V30 29 1 1 27
M  V30 30 1 1 28
M  V30 31 1 1 29
M  V30 32 1 4 30
M  V30 33 1 5 31
M  V30 34 1 7 32
M  V30 35 1 7 33
M  V30 36 1 10 34
M  V30 37 1 11 35
M  V30 38 1 14 36
M  V30 39 1 18 37
M  V30 40 1 20 38
M  V30 41 1 21 39
M  V30 42 1 22 40
M  V30 43 1 24 41
M  V30 44 1 25 42
M  V30 45 1 26 43
M  V30 END BOND
M  V30 END CTAB
M  END
>  <Dataset>  (920) 
ChEMBL_Kinases

>  <Ligand_Instance>  (920) 
nan

>  <PDB_ID>  (920) 
nan

>  <Standardized_SMILES>  (920) 
COc1ccc(COc2ccc(Br)cc2C(=O)Nc2cccnc2)cc1

>  <Name>  (920) 
nan

>  <Pocket>  (920) 
nan

>  <ATP_Site>  (920) 
nan

>  <Peripheral>  (920) 
nan

>  <Num_H_Atoms_ProtBoundConf>  (920) 
nan

>  <Num_Resolved_Atoms>  (920) 
nan

>  <Num_Not_Resolved_Atoms>  (920) 
nan

$$$$
CHEMBL4068776
     RDKit          3D

  0  0  0  0  0  0  0  0  0  0999 V3000
M  V30 BEGIN CTAB
M  V30 COUNTS 57 59 0 0 0
M  V30 BEGIN ATOM
M  V30 1 C 1.319482 -3.937502 2.650353 0
M  V30 2 C 1.148068 -2.570846 3.239940 0
M  V30 3 N -0.129618 -2.198935 3.699489 0
M  V30 4 C 0.033792 -0.979884 4.531175 0
M  V30 5 C 0.427640 0.223756 3.736852 0
M  V30 6 C -1.097612 -1.819854 2.730054 0
M  V30 7 C -1.681872 -2.813695 1.809011 0
M  V30 8 C -2.373726 -3.947438 2.523553 0
M  V30 9 N -0.867843 -3.222188 0.698230 0
M  V30 10 C -0.403734 -2.286261 -0.261190 0
M  V30 11 N -0.717895 -1.005312 -0.183848 0
M  V30 12 C -0.337879 -0.053558 -1.048900 0
M  V30 13 C -0.780760 1.309277 -0.799030 0
M  V30 14 C -0.545921 2.372167 -1.500479 0
M  V30 15 C -0.875390 3.778296 -1.439338 0
M  V30 16 C -1.616481 4.435780 -0.491811 0
M  V30 17 Cl -2.284593 3.552617 0.848855 0
M  V30 18 C -1.901803 5.784756 -0.486121 0
M  V30 19 C -1.381976 6.502125 -1.537257 0
M  V30 20 Cl -1.691319 8.234857 -1.622645 0
M  V30 21 C -0.628748 5.919282 -2.527949 0
M  V30 22 C -0.390294 4.568920 -2.459582 0
M  V30 23 Cl 0.588650 3.927620 -3.783372 0
M  V30 24 N 0.429785 -0.407926 -2.093567 0
M  V30 25 C 0.820720 -1.696730 -2.283392 0
M  V30 26 C 1.609618 -2.059085 -3.355556 0
M  V30 27 C 1.994460 -3.385836 -3.522559 0
M  V30 28 C 1.566766 -4.321918 -2.590498 0
M  V30 29 N 2.018302 -5.631719 -2.861126 0
M  V30 30 C 0.779874 -3.904273 -1.538523 0
M  V30 31 C 0.385050 -2.614717 -1.345328 0
M  V30 32 H 1.629647 -3.840284 1.595578 0
M  V30 33 H 2.200947 -4.446462 3.151452 0
M  V30 34 H 0.430714 -4.585654 2.725794 0
M  V30 35 H 1.436990 -1.811280 2.440768 0
M  V30 36 H 1.901986 -2.450988 4.058933 0
M  V30 37 H 0.687683 -1.173206 5.396451 0
M  V30 38 H -1.005772 -0.792000 4.931185 0
M  V30 39 H 0.803780 1.002407 4.473854 0
M  V30 40 H -0.496017 0.702336 3.323140 0
M  V30 41 H 1.191577 0.070334 2.970032 0
M  V30 42 H -1.989515 -1.300695 3.235301 0
M  V30 43 H -0.664879 -0.931789 2.148581 0
M  V30 44 H -2.574597 -2.276125 1.262804 0
M  V30 45 H -3.429234 -4.055665 2.224186 0
M  V30 46 H -1.895425 -4.923180 2.278378 0
M  V30 47 H -2.378001 -3.750203 3.616556 0
M  V30 48 H -0.683808 -4.226852 0.668943 0
M  V30 49 H -1.383433 1.531923 0.061112 0
M  V30 50 H 0.072807 2.025926 -2.346692 0
M  V30 51 H -2.489931 6.264930 0.280245 0
M  V30 52 H -0.249869 6.535223 -3.324004 0
M  V30 53 H 1.923401 -1.282206 -4.066479 0
M  V30 54 H 2.615995 -3.560815 -4.402396 0
M  V30 55 H 1.581997 -6.403501 -3.439338 0
M  V30 56 H 2.916132 -5.908085 -2.439090 0
M  V30 57 H 0.494095 -4.679617 -0.869643 0
M  V30 END ATOM
M  V30 BEGIN BOND
M  V30 1 1 1 2
M  V30 2 1 2 3
M  V30 3 1 3 4
M  V30 4 1 4 5
M  V30 5 1 3 6
M  V30 6 1 6 7
M  V30 7 1 7 8
M  V30 8 1 7 9
M  V30 9 1 9 10
M  V30 10 2 10 11
M  V30 11 1 11 12
M  V30 12 1 12 13
M  V30 13 2 13 14
M  V30 14 1 14 15
M  V30 15 2 15 16
M  V30 16 1 16 17
M  V30 17 1 16 18
M  V30 18 2 18 19
M  V30 19 1 19 20
M  V30 20 1 19 21
M  V30 21 2 21 22
M  V30 22 1 22 23
M  V30 23 2 12 24
M  V30 24 1 24 25
M  V30 25 2 25 26
M  V30 26 1 26 27
M  V30 27 2 27 28
M  V30 28 1 28 29
M  V30 29 1 28 30
M  V30 30 2 30 31
M  V30 31 1 31 10
M  V30 32 1 22 15
M  V30 33 1 31 25
M  V30 34 1 1 32
M  V30 35 1 1 33
M  V30 36 1 1 34
M  V30 37 1 2 35
M  V30 38 1 2 36
M  V30 39 1 4 37
M  V30 40 1 4 38
M  V30 41 1 5 39
M  V30 42 1 5 40
M  V30 43 1 5 41
M  V30 44 1 6 42
M  V30 45 1 6 43
M  V30 46 1 7 44
M  V30 47 1 8 45
M  V30 48 1 8 46
M  V30 49 1 8 47
M  V30 50 1 9 48
M  V30 51 1 13 49
M  V30 52 1 14 50
M  V30 53 1 18 51
M  V30 54 1 21 52
M  V30 55 1 26 53
M  V30 56 1 27 54
M  V30 57 1 29 55
M  V30 58 1 29 56
M  V30 59 1 30 57
M  V30 END BOND
M  V30 END CTAB
M  END
>  <Dataset>  (921) 
ChEMBL_Kinases

>  <Ligand_Instance>  (921) 
nan

>  <PDB_ID>  (921) 
nan

>  <Standardized_SMILES>  (921) 
CCN(CC)CC(C)Nc1nc(/C=C/c2c(Cl)cc(Cl)cc2Cl)nc2ccc(N)cc12

>  <Name>  (921) 
nan

>  <Pocket>  (921) 
nan

>  <ATP_Site>  (921) 
nan

>  <Peripheral>  (921) 
nan

>  <Num_H_Atoms_ProtBoundConf>  (921) 
nan

>  <Num_Resolved_Atoms>  (921) 
nan

>  <Num_Not_Resolved_Atoms>  (921) 
nan

$$$$
CHEMBL4068755
     RDKit          3D

  0  0  0  0  0  0  0  0  0  0999 V3000
M  V30 BEGIN CTAB
M  V30 COUNTS 69 73 0 0 0
M  V30 BEGIN ATOM
M  V30 1 C 8.351788 0.782443 7.248561 0
M  V30 2 O 8.021192 2.128872 6.950559 0
M  V30 3 C 7.296841 2.381451 5.771899 0
M  V30 4 C 6.868075 1.422325 4.852842 0
M  V30 5 C 6.154313 1.891089 3.735950 0
M  V30 6 C 5.873320 3.253132 3.530883 0
M  V30 7 N 5.141572 3.347944 2.316342 0
M  V30 8 C 3.738903 3.313042 2.102559 0
M  V30 9 O 2.916763 3.202967 3.042436 0
M  V30 10 N 3.181042 3.396843 0.795608 0
M  V30 11 C 1.747162 3.324749 0.900476 0
M  V30 12 C 0.825014 4.344749 0.960595 0
M  V30 13 C -0.516814 4.010849 1.080715 0
M  V30 14 C -0.976911 2.699756 1.143966 0
M  V30 15 C -2.452863 2.579477 1.250786 0
M  V30 16 N -3.119247 2.306405 0.022425 0
M  V30 17 C -3.462438 0.881670 -0.102621 0
M  V30 18 N -3.387000 -0.017987 0.569363 0
M  V30 19 C -3.739854 -1.284997 0.381738 0
M  V30 20 C -3.683713 -2.433423 1.174205 0
M  V30 21 C -4.148661 -3.633331 0.704695 0
M  V30 22 C -4.708098 -3.824167 -0.572927 0
M  V30 23 O -5.107453 -5.071098 -0.830690 0
M  V30 24 C -5.659089 -5.729082 -1.875046 0
M  V30 25 C -5.010659 -6.001591 -3.156018 0
M  V30 26 N -4.483300 -4.975332 -3.984713 0
M  V30 27 C -4.303440 -5.484192 -5.362821 0
M  V30 28 C -3.222059 -4.664022 -6.012379 0
M  V30 29 O -1.962694 -5.119573 -5.527637 0
M  V30 30 C -2.140467 -5.535938 -4.191062 0
M  V30 31 C -3.136691 -4.578445 -3.585882 0
M  V30 32 C -4.785795 -2.727334 -1.393193 0
M  V30 33 C -4.291305 -1.543432 -0.842881 0
M  V30 34 S -4.251319 0.126355 -1.649794 0
M  V30 35 C -0.038913 1.703147 1.081629 0
M  V30 36 C 1.321657 1.998571 0.961741 0
M  V30 37 C 6.327374 4.144520 4.479597 0
M  V30 38 C 7.023994 3.728001 5.578342 0
M  V30 39 H 8.531006 0.640041 8.333106 0
M  V30 40 H 9.241083 0.480606 6.650417 0
M  V30 41 H 7.499683 0.119256 7.006273 0
M  V30 42 H 7.108164 0.409816 5.044810 0
M  V30 43 H 5.887053 1.042261 3.106719 0
M  V30 44 H 5.749697 3.454852 1.480964 0
M  V30 45 H 3.843635 3.496649 0.014319 0
M  V30 46 H 1.257540 5.323286 0.907827 0
M  V30 47 H -1.180392 4.868388 1.125156 0
M  V30 48 H -2.878168 3.512858 1.703756 0
M  V30 49 H -2.668943 1.799067 2.032532 0
M  V30 50 H -3.375492 2.939760 -0.742388 0
M  V30 51 H -3.261331 -2.370362 2.179026 0
M  V30 52 H -4.061554 -4.482747 1.411739 0
M  V30 53 H -6.718276 -5.298007 -2.061164 0
M  V30 54 H -5.984976 -6.759937 -1.443633 0
M  V30 55 H -4.167516 -6.752079 -2.957854 0
M  V30 56 H -5.709870 -6.667552 -3.786257 0
M  V30 57 H -5.252939 -5.287943 -5.947444 0
M  V30 58 H -4.108286 -6.563515 -5.357449 0
M  V30 59 H -3.267999 -3.596240 -5.821389 0
M  V30 60 H -3.175852 -4.823308 -7.111072 0
M  V30 61 H -2.524980 -6.560250 -4.118475 0
M  V30 62 H -1.165432 -5.497834 -3.636474 0
M  V30 63 H -2.992082 -4.690499 -2.484479 0
M  V30 64 H -2.863936 -3.562067 -3.888197 0
M  V30 65 H -5.191872 -2.803725 -2.362757 0
M  V30 66 H -0.466252 0.706165 1.133815 0
M  V30 67 H 1.956703 1.110653 0.923974 0
M  V30 68 H 6.026913 5.143010 4.177286 0
M  V30 69 H 7.323284 4.519206 6.241394 0
M  V30 END ATOM
M  V30 BEGIN BOND
M  V30 1 1 1 2
M  V30 2 1 2 3
M  V30 3 2 3 4
M  V30 4 1 4 5
M  V30 5 2 5 6
M  V30 6 1 6 7
M  V30 7 1 7 8
M  V30 8 2 8 9
M  V30 9 1 8 10
M  V30 10 1 10 11
M  V30 11 2 11 12
M  V30 12 1 12 13
M  V30 13 2 13 14
M  V30 14 1 14 15
M  V30 15 1 15 16
M  V30 16 1 16 17
M  V30 17 2 17 18
M  V30 18 1 18 19
M  V30 19 2 19 20
M  V30 20 1 20 21
M  V30 21 2 21 22
M  V30 22 1 22 23
M  V30 23 1 23 24
M  V30 24 1 24 25
M  V30 25 1 25 26
M  V30 26 1 26 27
M  V30 27 1 27 28
M  V30 28 1 28 29
M  V30 29 1 29 30
M  V30 30 1 30 31
M  V30 31 1 22 32
M  V30 32 2 32 33
M  V30 33 1 33 34
M  V30 34 1 14 35
M  V30 35 2 35 36
M  V30 36 1 6 37
M  V30 37 2 37 38
M  V30 38 1 38 3
M  V30 39 1 36 11
M  V30 40 1 34 17
M  V30 41 1 33 19
M  V30 42 1 31 26
M  V30 43 1 1 39
M  V30 44 1 1 40
M  V30 45 1 1 41
M  V30 46 1 4 42
M  V30 47 1 5 43
M  V30 48 1 7 44
M  V30 49 1 10 45
M  V30 50 1 12 46
M  V30 51 1 13 47
M  V30 52 1 15 48
M  V30 53 1 15 49
M  V30 54 1 16 50
M  V30 55 1 20 51
M  V30 56 1 21 52
M  V30 57 1 24 53
M  V30 58 1 24 54
M  V30 59 1 25 55
M  V30 60 1 25 56
M  V30 61 1 27 57
M  V30 62 1 27 58
M  V30 63 1 28 59
M  V30 64 1 28 60
M  V30 65 1 30 61
M  V30 66 1 30 62
M  V30 67 1 31 63
M  V30 68 1 31 64
M  V30 69 1 32 65
M  V30 70 1 35 66
M  V30 71 1 36 67
M  V30 72 1 37 68
M  V30 73 1 38 69
M  V30 END BOND
M  V30 END CTAB
M  END
>  <Dataset>  (922) 
ChEMBL_Kinases

>  <Ligand_Instance>  (922) 
nan

>  <PDB_ID>  (922) 
nan

>  <Standardized_SMILES>  (922) 
COc1ccc(NC(=O)Nc2ccc(CNc3nc4ccc(OCCN5CCOCC5)cc4s3)cc2)cc1

>  <Name>  (922) 
nan

>  <Pocket>  (922) 
nan

>  <ATP_Site>  (922) 
nan

>  <Peripheral>  (922) 
nan

>  <Num_H_Atoms_ProtBoundConf>  (922) 
nan

>  <Num_Resolved_Atoms>  (922) 
nan

>  <Num_Not_Resolved_Atoms>  (922) 
nan

$$$$
CHEMBL4068060
     RDKit          3D

  0  0  0  0  0  0  0  0  0  0999 V3000
M  V30 BEGIN CTAB
M  V30 COUNTS 67 71 0 0 0
M  V30 BEGIN ATOM
M  V30 1 C 3.875903 -1.011269 -0.187868 0
M  V30 2 C 3.744880 -0.781297 -1.644146 0
M  V30 3 C 4.275946 -1.729068 -2.492133 0
M  V30 4 C 4.204697 -1.583929 -3.856783 0
M  V30 5 F 4.757199 -2.572558 -4.602986 0
M  V30 6 C 3.610477 -0.504418 -4.475147 0
M  V30 7 N 3.559226 -0.403672 -5.884676 0
M  V30 8 C 3.018837 0.603311 -6.712460 0
M  V30 9 O 2.498655 1.570861 -6.138187 0
M  V30 10 C 3.113603 0.427973 -8.152962 0
M  V30 11 C 2.529049 1.521562 -8.688241 0
M  V30 12 C 2.563312 1.458715 -10.171801 0
M  V30 13 S 3.438297 -0.177274 -10.600723 0
M  V30 14 C 3.693326 -0.655638 -8.866448 0
M  V30 15 C 3.099240 0.406593 -3.589753 0
M  V30 16 C 3.139148 0.317180 -2.216329 0
M  V30 17 N 2.583965 1.318452 -1.352853 0
M  V30 18 C 1.526492 0.889348 -0.507874 0
M  V30 19 C 1.011382 1.681399 0.500112 0
M  V30 20 C -0.024617 1.324107 1.351524 0
M  V30 21 C -0.589657 0.077596 1.181545 0
M  V30 22 C -0.123071 -0.765831 0.192445 0
M  V30 23 C 0.910161 -0.337979 -0.613428 0
M  V30 24 O -0.607124 -2.034557 -0.074607 0
M  V30 25 C -1.615193 -2.869330 0.371031 0
M  V30 26 C -2.172745 -2.591004 1.703656 0
M  V30 27 C -2.768842 -3.737203 2.234237 0
M  V30 28 C -3.376198 -3.733768 3.496414 0
M  V30 29 C -3.398684 -2.580338 4.253632 0
M  V30 30 C -4.031769 -2.592499 5.568235 0
M  V30 31 O -4.520284 -3.692713 5.911860 0
M  V30 32 N -4.108337 -1.475952 6.416353 0
M  V30 33 C -4.737889 -1.475753 7.738015 0
M  V30 34 C -4.645274 -0.118066 8.379231 0
M  V30 35 O -5.292326 0.837337 7.587038 0
M  V30 36 C -3.179425 0.299287 8.549062 0
M  V30 37 O -2.522395 -0.659379 9.347064 0
M  V30 38 C -2.802584 -1.441373 3.718627 0
M  V30 39 C -2.204244 -1.445016 2.475248 0
M  V30 40 C -1.656247 -0.120634 2.163693 0
M  V30 41 O -2.131345 0.868746 2.771984 0
M  V30 42 H 4.935256 -1.317122 0.055743 0
M  V30 43 H 3.246787 -1.886882 0.067659 0
M  V30 44 H 3.584967 -0.177501 0.447788 0
M  V30 45 H 4.758183 -2.603643 -2.067935 0
M  V30 46 H 4.003755 -1.229220 -6.382781 0
M  V30 47 H 2.030925 2.453687 -8.704347 0
M  V30 48 H 2.329653 1.896015 -11.212988 0
M  V30 49 H 4.108164 -1.432459 -8.370349 0
M  V30 50 H 2.605040 1.302068 -3.927759 0
M  V30 51 H 2.868273 2.319449 -1.277320 0
M  V30 52 H 1.425628 2.686186 0.680177 0
M  V30 53 H -0.389261 1.986280 2.125767 0
M  V30 54 H 1.247388 -1.042274 -1.389429 0
M  V30 55 H -2.446242 -3.032193 -0.377043 0
M  V30 56 H -1.156798 -3.900373 0.453262 0
M  V30 57 H -2.743641 -4.645094 1.621561 0
M  V30 58 H -3.818088 -4.657252 3.846441 0
M  V30 59 H -3.691805 -0.580560 6.090857 0
M  V30 60 H -5.745470 -1.884988 7.718735 0
M  V30 61 H -4.108685 -2.173863 8.342988 0
M  V30 62 H -5.093250 -0.191739 9.383903 0
M  V30 63 H -5.771003 1.458770 8.202630 0
M  V30 64 H -2.646021 0.326346 7.585180 0
M  V30 65 H -3.102546 1.293738 9.010966 0
M  V30 66 H -2.268023 -1.458430 8.824619 0
M  V30 67 H -2.797968 -0.521116 4.274850 0
M  V30 END ATOM
M  V30 BEGIN BOND
M  V30 1 1 1 2
M  V30 2 2 2 3
M  V30 3 1 3 4
M  V30 4 1 4 5
M  V30 5 2 4 6
M  V30 6 1 6 7
M  V30 7 1 7 8
M  V30 8 2 8 9
M  V30 9 1 8 10
M  V30 10 1 10 11
M  V30 11 2 11 12
M  V30 12 1 12 13
M  V30 13 1 13 14
M  V30 14 1 6 15
M  V30 15 2 15 16
M  V30 16 1 16 17
M  V30 17 1 17 18
M  V30 18 2 18 19
M  V30 19 1 19 20
M  V30 20 2 20 21
M  V30 21 1 21 22
M  V30 22 2 22 23
M  V30 23 1 22 24
M  V30 24 1 24 25
M  V30 25 1 25 26
M  V30 26 2 26 27
M  V30 27 1 27 28
M  V30 28 2 28 29
M  V30 29 1 29 30
M  V30 30 2 30 31
M  V30 31 1 30 32
M  V30 32 1 32 33
M  V30 33 1 33 34
M  V30 34 1 34 35
M  V30 35 1 34 36
M  V30 36 1 36 37
M  V30 37 1 29 38
M  V30 38 2 38 39
M  V30 39 1 39 40
M  V30 40 2 40 41
M  V30 41 1 16 2
M  V30 42 1 23 18
M  V30 43 1 39 26
M  V30 44 2 14 10
M  V30 45 1 40 21
M  V30 46 1 1 42
M  V30 47 1 1 43
M  V30 48 1 1 44
M  V30 49 1 3 45
M  V30 50 1 7 46
M  V30 51 1 11 47
M  V30 52 1 12 48
M  V30 53 1 14 49
M  V30 54 1 15 50
M  V30 55 1 17 51
M  V30 56 1 19 52
M  V30 57 1 20 53
M  V30 58 1 23 54
M  V30 59 1 25 55
M  V30 60 1 25 56
M  V30 61 1 27 57
M  V30 62 1 28 58
M  V30 63 1 32 59
M  V30 64 1 33 60
M  V30 65 1 33 61
M  V30 66 1 34 62
M  V30 67 1 35 63
M  V30 68 1 36 64
M  V30 69 1 36 65
M  V30 70 1 37 66
M  V30 71 1 38 67
M  V30 END BOND
M  V30 END CTAB
M  END
>  <Dataset>  (923) 
ChEMBL_Kinases

>  <Ligand_Instance>  (923) 
nan

>  <PDB_ID>  (923) 
nan

>  <Standardized_SMILES>  (923) 
Cc1cc(F)c(NC(=O)c2ccsc2)cc1Nc1ccc2c(c1)OCc1ccc(C(=O)NCC(O)CO)cc1C2=O

>  <Name>  (923) 
nan

>  <Pocket>  (923) 
nan

>  <ATP_Site>  (923) 
nan

>  <Peripheral>  (923) 
nan

>  <Num_H_Atoms_ProtBoundConf>  (923) 
nan

>  <Num_Resolved_Atoms>  (923) 
nan

>  <Num_Not_Resolved_Atoms>  (923) 
nan

$$$$
CHEMBL4068705
     RDKit          3D

  0  0  0  0  0  0  0  0  0  0999 V3000
M  V30 BEGIN CTAB
M  V30 COUNTS 57 61 0 0 0
M  V30 BEGIN ATOM
M  V30 1 C 3.570973 0.605608 6.933432 0
M  V30 2 C 3.188651 -0.365020 5.874828 0
M  V30 3 C 2.192371 -1.278878 6.168337 0
M  V30 4 C 1.768481 -2.222829 5.244474 0
M  V30 5 C 2.417170 -2.176581 4.016633 0
M  V30 6 C 3.418214 -1.270001 3.699712 0
M  V30 7 C 4.058463 -1.292848 2.358468 0
M  V30 8 N 3.380614 -0.444000 1.396374 0
M  V30 9 C 3.725005 0.951567 1.198813 0
M  V30 10 C 2.498872 1.815478 1.222253 0
M  V30 11 C 1.419370 1.213258 0.404081 0
M  V30 12 N 0.347366 1.805115 -0.194692 0
M  V30 13 C -0.391636 0.911634 -0.841218 0
M  V30 14 C -1.615762 1.150659 -1.603422 0
M  V30 15 C -2.151389 2.416669 -1.728346 0
M  V30 16 C -3.315573 2.600086 -2.461101 0
M  V30 17 N -3.907327 1.535540 -3.041488 0
M  V30 18 C -3.395825 0.279303 -2.930678 0
M  V30 19 N -4.045285 -0.827847 -3.556635 0
M  V30 20 C -3.437360 -2.131742 -3.390989 0
M  V30 21 C -3.326380 -2.579225 -1.969139 0
M  V30 22 C -4.244832 -3.757838 -1.739578 0
M  V30 23 O -3.912725 -4.853230 -2.509301 0
M  V30 24 C -3.427484 -4.506628 -3.765846 0
M  V30 25 C -4.060702 -3.196004 -4.222345 0
M  V30 26 N -2.284093 0.161012 -2.220725 0
M  V30 27 C 0.178092 -0.338360 -0.691007 0
M  V30 28 C 1.285199 -0.125099 0.075458 0
M  V30 29 C 2.330796 -0.994320 0.607049 0
M  V30 30 O 2.311874 -2.229758 0.372709 0
M  V30 31 N 3.782327 -0.372499 4.657021 0
M  V30 32 H 3.671311 0.093301 7.920993 0
M  V30 33 H 2.746824 1.327434 7.055587 0
M  V30 34 H 4.525729 1.111581 6.751558 0
M  V30 35 H 1.701914 -1.284372 7.152352 0
M  V30 36 H 0.990779 -2.957062 5.434150 0
M  V30 37 H 2.134310 -2.885865 3.250161 0
M  V30 38 H 4.085423 -2.355424 2.011010 0
M  V30 39 H 5.113293 -0.936222 2.486611 0
M  V30 40 H 4.385316 1.319341 2.014900 0
M  V30 41 H 4.205893 1.073263 0.196942 0
M  V30 42 H 2.124509 1.928999 2.257387 0
M  V30 43 H 2.730937 2.811686 0.756759 0
M  V30 44 H 0.104992 2.809348 -0.173738 0
M  V30 45 H -1.616863 3.230694 -1.230584 0
M  V30 46 H -3.709537 3.608647 -2.539083 0
M  V30 47 H -4.912906 -0.661950 -4.097450 0
M  V30 48 H -2.385484 -2.003374 -3.778156 0
M  V30 49 H -2.264685 -2.815004 -1.677905 0
M  V30 50 H -3.650329 -1.769016 -1.291964 0
M  V30 51 H -4.120226 -4.046939 -0.670357 0
M  V30 52 H -5.269920 -3.399404 -1.875374 0
M  V30 53 H -3.528029 -5.297562 -4.506359 0
M  V30 54 H -2.344484 -4.287928 -3.624355 0
M  V30 55 H -3.740118 -3.060967 -5.285707 0
M  V30 56 H -5.166798 -3.228444 -4.154090 0
M  V30 57 H -0.107301 -1.321735 -1.055330 0
M  V30 END ATOM
M  V30 BEGIN BOND
M  V30 1 1 1 2
M  V30 2 2 2 3
M  V30 3 1 3 4
M  V30 4 2 4 5
M  V30 5 1 5 6
M  V30 6 1 6 7
M  V30 7 1 7 8
M  V30 8 1 8 9
M  V30 9 1 9 10
M  V30 10 1 10 11
M  V30 11 1 11 12
M  V30 12 1 12 13
M  V30 13 1 13 14
M  V30 14 2 14 15
M  V30 15 1 15 16
M  V30 16 2 16 17
M  V30 17 1 17 18
M  V30 18 1 18 19
M  V30 19 1 19 20
M  V30 20 1 20 21
M  V30 21 1 21 22
M  V30 22 1 22 23
M  V30 23 1 23 24
M  V30 24 1 24 25
M  V30 25 2 18 26
M  V30 26 2 13 27
M  V30 27 1 27 28
M  V30 28 1 28 29
M  V30 29 2 29 30
M  V30 30 2 6 31
M  V30 31 1 31 2
M  V30 32 1 29 8
M  V30 33 2 28 11
M  V30 34 1 26 14
M  V30 35 1 25 20
M  V30 36 1 1 32
M  V30 37 1 1 33
M  V30 38 1 1 34
M  V30 39 1 3 35
M  V30 40 1 4 36
M  V30 41 1 5 37
M  V30 42 1 7 38
M  V30 43 1 7 39
M  V30 44 1 9 40
M  V30 45 1 9 41
M  V30 46 1 10 42
M  V30 47 1 10 43
M  V30 48 1 12 44
M  V30 49 1 15 45
M  V30 50 1 16 46
M  V30 51 1 19 47
M  V30 52 1 20 48
M  V30 53 1 21 49
M  V30 54 1 21 50
M  V30 55 1 22 51
M  V30 56 1 22 52
M  V30 57 1 24 53
M  V30 58 1 24 54
M  V30 59 1 25 55
M  V30 60 1 25 56
M  V30 61 1 27 57
M  V30 END BOND
M  V30 END CTAB
M  END
>  <Dataset>  (924) 
ChEMBL_Kinases

>  <Ligand_Instance>  (924) 
nan

>  <PDB_ID>  (924) 
nan

>  <Standardized_SMILES>  (924) 
Cc1cccc(CN2CCc3[nH]c(-c4ccnc(NC5CCOCC5)n4)cc3C2=O)n1

>  <Name>  (924) 
nan

>  <Pocket>  (924) 
nan

>  <ATP_Site>  (924) 
nan

>  <Peripheral>  (924) 
nan

>  <Num_H_Atoms_ProtBoundConf>  (924) 
nan

>  <Num_Resolved_Atoms>  (924) 
nan

>  <Num_Not_Resolved_Atoms>  (924) 
nan

$$$$
CHEMBL4068699
     RDKit          3D

  0  0  0  0  0  0  0  0  0  0999 V3000
M  V30 BEGIN CTAB
M  V30 COUNTS 37 40 0 0 0
M  V30 BEGIN ATOM
M  V30 1 C -0.512244 -4.212297 4.104714 0
M  V30 2 C -0.701568 -2.896727 3.755962 0
M  V30 3 C -0.513092 -2.455663 2.465684 0
M  V30 4 C -0.127585 -3.307552 1.467153 0
M  V30 5 C 0.124462 -3.112943 0.111280 0
M  V30 6 C 0.040455 -1.874982 -0.655505 0
M  V30 7 C -0.582597 -1.855182 -1.907101 0
M  V30 8 C -0.644252 -0.666864 -2.605525 0
M  V30 9 N -0.126113 0.479364 -2.127793 0
M  V30 10 C 0.485830 0.508936 -0.922253 0
M  V30 11 N 1.035837 1.709047 -0.407082 0
M  V30 12 C 1.707384 1.897139 0.841051 0
M  V30 13 C 1.132716 3.189891 1.435983 0
M  V30 14 O -0.126364 3.454156 0.898442 0
M  V30 15 C -0.048058 3.805621 -0.433290 0
M  V30 16 C 0.933392 2.924123 -1.200388 0
M  V30 17 C 0.553680 -0.672447 -0.214846 0
M  V30 18 N 0.466038 -4.332867 -0.338551 0
M  V30 19 N 0.434060 -5.228729 0.648315 0
M  V30 20 C 0.068361 -4.645566 1.806071 0
M  V30 21 C -0.118801 -5.092108 3.095325 0
M  V30 22 H -0.675474 -4.489297 5.123943 0
M  V30 23 H -1.007731 -2.185035 4.516083 0
M  V30 24 H -0.675993 -1.427025 2.262006 0
M  V30 25 H -1.015689 -2.749570 -2.337261 0
M  V30 26 H -1.125355 -0.609383 -3.592434 0
M  V30 27 H 2.782282 2.122524 0.620271 0
M  V30 28 H 1.682111 1.076177 1.547951 0
M  V30 29 H 1.088581 3.114383 2.527254 0
M  V30 30 H 1.770544 4.058884 1.187542 0
M  V30 31 H 0.108033 4.879062 -0.600247 0
M  V30 32 H -1.047181 3.561323 -0.890345 0
M  V30 33 H 0.573159 2.720555 -2.224445 0
M  V30 34 H 1.941463 3.429907 -1.232122 0
M  V30 35 H 1.034934 -0.686565 0.751155 0
M  V30 36 H 0.647295 -6.253873 0.614113 0
M  V30 37 H 0.035126 -6.132840 3.351863 0
M  V30 END ATOM
M  V30 BEGIN BOND
M  V30 1 2 1 2
M  V30 2 1 2 3
M  V30 3 2 3 4
M  V30 4 1 4 5
M  V30 5 1 5 6
M  V30 6 2 6 7
M  V30 7 1 7 8
M  V30 8 2 8 9
M  V30 9 1 9 10
M  V30 10 1 10 11
M  V30 11 1 11 12
M  V30 12 1 12 13
M  V30 13 1 13 14
M  V30 14 1 14 15
M  V30 15 1 15 16
M  V30 16 2 10 17
M  V30 17 2 5 18
M  V30 18 1 18 19
M  V30 19 1 19 20
M  V30 20 2 20 21
M  V30 21 1 21 1
M  V30 22 1 20 4
M  V30 23 1 17 6
M  V30 24 1 16 11
M  V30 25 1 1 22
M  V30 26 1 2 23
M  V30 27 1 3 24
M  V30 28 1 7 25
M  V30 29 1 8 26
M  V30 30 1 12 27
M  V30 31 1 12 28
M  V30 32 1 13 29
M  V30 33 1 13 30
M  V30 34 1 15 31
M  V30 35 1 15 32
M  V30 36 1 16 33
M  V30 37 1 16 34
M  V30 38 1 17 35
M  V30 39 1 19 36
M  V30 40 1 21 37
M  V30 END BOND
M  V30 END CTAB
M  END
>  <Dataset>  (925) 
ChEMBL_Kinases

>  <Ligand_Instance>  (925) 
nan

>  <PDB_ID>  (925) 
nan

>  <Standardized_SMILES>  (925) 
c1ccc2c(-c3ccnc(N4CCOCC4)c3)n[nH]c2c1

>  <Name>  (925) 
nan

>  <Pocket>  (925) 
nan

>  <ATP_Site>  (925) 
nan

>  <Peripheral>  (925) 
nan

>  <Num_H_Atoms_ProtBoundConf>  (925) 
nan

>  <Num_Resolved_Atoms>  (925) 
nan

>  <Num_Not_Resolved_Atoms>  (925) 
nan

$$$$
CHEMBL4068572
     RDKit          3D

  0  0  0  0  0  0  0  0  0  0999 V3000
M  V30 BEGIN CTAB
M  V30 COUNTS 44 47 0 0 0
M  V30 BEGIN ATOM
M  V30 1 N 0.286411 -4.813211 3.691301 0
M  V30 2 C 1.349978 -3.960314 4.086706 0
M  V30 3 O 2.008317 -4.142868 5.141789 0
M  V30 4 C 1.765359 -2.805854 3.303867 0
M  V30 5 C 2.784657 -1.993159 3.684677 0
M  V30 6 N 3.048348 -0.971875 2.860830 0
M  V30 7 C 2.397879 -0.714081 1.734958 0
M  V30 8 S 3.026487 0.736907 0.887541 0
M  V30 9 C 2.089930 2.155842 1.536258 0
M  V30 10 C 0.636599 2.092396 1.155642 0
M  V30 11 C 0.059097 3.484804 1.279858 0
M  V30 12 C 0.677506 4.352541 0.204861 0
M  V30 13 N 2.076156 4.110277 0.036047 0
M  V30 14 C 2.701828 3.474583 1.159944 0
M  V30 15 C 1.353869 -1.488857 1.279327 0
M  V30 16 C 0.592032 -1.364730 0.162022 0
M  V30 17 C -0.374551 -2.237820 -0.083529 0
M  V30 18 C -1.358483 -2.417113 -1.141751 0
M  V30 19 C -2.255241 -3.464028 -1.093081 0
M  V30 20 C -3.197009 -3.659361 -2.080952 0
M  V30 21 C -3.194096 -2.748809 -3.123722 0
M  V30 22 C -2.313695 -1.667384 -3.233063 0
M  V30 23 C -1.388072 -1.532487 -2.196286 0
M  V30 24 S -0.298408 -3.359559 1.290199 0
M  V30 25 C 1.059010 -2.563895 2.124336 0
M  V30 26 H -0.755113 -4.808352 3.789998 0
M  V30 27 H 0.589218 -5.673209 3.165580 0
M  V30 28 H 3.303767 -2.216835 4.603915 0
M  V30 29 H 2.095354 2.132927 2.664923 0
M  V30 30 H 0.452298 1.691060 0.145549 0
M  V30 31 H 0.105265 1.416841 1.878432 0
M  V30 32 H 0.242544 3.893116 2.280095 0
M  V30 33 H -1.047102 3.417576 1.165074 0
M  V30 34 H 0.418019 5.431054 0.395437 0
M  V30 35 H 0.171063 4.082790 -0.758582 0
M  V30 36 H 2.359005 3.767295 -0.887795 0
M  V30 37 H 2.658574 4.211513 1.998592 0
M  V30 38 H 3.789534 3.378903 0.924220 0
M  V30 39 H 0.710306 -0.582927 -0.576635 0
M  V30 40 H -2.261784 -4.183606 -0.272987 0
M  V30 41 H -3.906286 -4.474443 -2.057066 0
M  V30 42 H -3.958210 -2.932660 -3.894856 0
M  V30 43 H -2.401366 -1.017909 -4.093368 0
M  V30 44 H -0.701108 -0.705900 -2.260718 0
M  V30 END ATOM
M  V30 BEGIN BOND
M  V30 1 1 1 2
M  V30 2 2 2 3
M  V30 3 1 2 4
M  V30 4 2 4 5
M  V30 5 1 5 6
M  V30 6 2 6 7
M  V30 7 1 7 8
M  V30 8 1 8 9
M  V30 9 1 9 10
M  V30 10 1 10 11
M  V30 11 1 11 12
M  V30 12 1 12 13
M  V30 13 1 13 14
M  V30 14 1 7 15
M  V30 15 1 15 16
M  V30 16 2 16 17
M  V30 17 1 17 18
M  V30 18 2 18 19
M  V30 19 1 19 20
M  V30 20 2 20 21
M  V30 21 1 21 22
M  V30 22 2 22 23
M  V30 23 1 17 24
M  V30 24 1 24 25
M  V30 25 1 25 4
M  V30 26 1 14 9
M  V30 27 2 25 15
M  V30 28 1 23 18
M  V30 29 1 1 26
M  V30 30 1 1 27
M  V30 31 1 5 28
M  V30 32 1 9 29
M  V30 33 1 10 30
M  V30 34 1 10 31
M  V30 35 1 11 32
M  V30 36 1 11 33
M  V30 37 1 12 34
M  V30 38 1 12 35
M  V30 39 1 13 36
M  V30 40 1 14 37
M  V30 41 1 14 38
M  V30 42 1 16 39
M  V30 43 1 19 40
M  V30 44 1 20 41
M  V30 45 1 21 42
M  V30 46 1 22 43
M  V30 47 1 23 44
M  V30 END BOND
M  V30 END CTAB
M  END
>  <Dataset>  (926) 
ChEMBL_Kinases

>  <Ligand_Instance>  (926) 
nan

>  <PDB_ID>  (926) 
nan

>  <Standardized_SMILES>  (926) 
NC(=O)c1cnc(SC2CCCNC2)c2cc(-c3ccccc3)sc12

>  <Name>  (926) 
nan

>  <Pocket>  (926) 
nan

>  <ATP_Site>  (926) 
nan

>  <Peripheral>  (926) 
nan

>  <Num_H_Atoms_ProtBoundConf>  (926) 
nan

>  <Num_Resolved_Atoms>  (926) 
nan

>  <Num_Not_Resolved_Atoms>  (926) 
nan

$$$$
CHEMBL4860842
     RDKit          3D

  0  0  0  0  0  0  0  0  0  0999 V3000
M  V30 BEGIN CTAB
M  V30 COUNTS 62 66 0 0 0
M  V30 BEGIN ATOM
M  V30 1 C 1.448283 -0.947837 6.476964 0
M  V30 2 C 2.656999 -1.840867 6.219332 0
M  V30 3 C 3.535091 -2.178007 7.430549 0
M  V30 4 C 2.514828 -2.878982 5.165701 0
M  V30 5 C 3.422712 -1.644805 4.971564 0
M  V30 6 C 2.938099 -0.784668 3.867740 0
M  V30 7 O 1.710384 -0.477285 3.932272 0
M  V30 8 N 3.713105 -0.306518 2.795456 0
M  V30 9 C 3.268146 0.509847 1.732666 0
M  V30 10 N 3.563031 1.066235 0.724587 0
M  V30 11 C 2.787869 1.795303 -0.041141 0
M  V30 12 C 3.183788 2.420236 -1.224565 0
M  V30 13 C 2.277341 3.149010 -1.944498 0
M  V30 14 C 0.961608 3.325313 -1.589732 0
M  V30 15 O -0.171990 3.966445 -2.072342 0
M  V30 16 C -1.133819 3.174619 -2.708871 0
M  V30 17 C -2.235911 3.877433 -3.148377 0
M  V30 18 C -3.235943 3.183644 -3.780277 0
M  V30 19 C -3.160550 1.804898 -3.985083 0
M  V30 20 F -4.137111 1.114983 -4.611744 0
M  V30 21 C -2.060068 1.087976 -3.549766 0
M  V30 22 N -1.854805 -0.310392 -3.613208 0
M  V30 23 C -2.836864 -1.333582 -3.532791 0
M  V30 24 O -4.075914 -1.116869 -3.378154 0
M  V30 25 C -2.520638 -2.789808 -3.618104 0
M  V30 26 C -2.648632 -3.409794 -2.265666 0
M  V30 27 C -1.453130 -3.810568 -1.655745 0
M  V30 28 C -1.385841 -4.360476 -0.396071 0
M  V30 29 C -2.572365 -4.524044 0.305630 0
M  V30 30 C -3.787547 -4.133283 -0.277666 0
M  V30 31 C -5.018296 -4.302167 0.521992 0
M  V30 32 F -6.130724 -4.464004 -0.262697 0
M  V30 33 F -5.227738 -3.114350 1.243050 0
M  V30 34 F -4.906271 -5.395092 1.339559 0
M  V30 35 C -3.783742 -3.587927 -1.548231 0
M  V30 36 C -1.054606 1.796198 -2.912435 0
M  V30 37 C 0.537909 2.706132 -0.401722 0
M  V30 38 C 1.477709 1.965926 0.319397 0
M  V30 39 S 1.422873 1.006691 1.840041 0
M  V30 40 H 1.183607 -1.111455 7.549292 0
M  V30 41 H 1.640857 0.115715 6.241260 0
M  V30 42 H 0.562115 -1.345709 5.922995 0
M  V30 43 H 2.940299 -2.348637 8.334184 0
M  V30 44 H 4.166867 -3.048885 7.136556 0
M  V30 45 H 4.225117 -1.328114 7.640438 0
M  V30 46 H 3.007199 -3.842146 5.320875 0
M  V30 47 H 1.534213 -2.895576 4.642262 0
M  V30 48 H 4.521702 -1.905908 4.928866 0
M  V30 49 H 4.719772 -0.565980 2.755406 0
M  V30 50 H 4.138016 2.444704 -1.718649 0
M  V30 51 H 2.416079 3.689226 -2.869446 0
M  V30 52 H -2.395262 4.940510 -3.043337 0
M  V30 53 H -4.156211 3.628581 -4.172933 0
M  V30 54 H -0.894743 -0.702043 -3.736223 0
M  V30 55 H -3.290894 -3.256802 -4.260618 0
M  V30 56 H -1.547274 -3.017421 -4.066575 0
M  V30 57 H -0.503005 -3.687812 -2.192423 0
M  V30 58 H -0.414066 -4.646831 0.009539 0
M  V30 59 H -2.457904 -4.960044 1.291598 0
M  V30 60 H -4.691467 -3.283180 -2.009981 0
M  V30 61 H -0.127721 1.405137 -2.508143 0
M  V30 62 H -0.405746 2.660867 0.121150 0
M  V30 END ATOM
M  V30 BEGIN BOND
M  V30 1 1 1 2
M  V30 2 1 2 3
M  V30 3 1 2 4
M  V30 4 1 4 5
M  V30 5 1 5 6
M  V30 6 2 6 7
M  V30 7 1 6 8
M  V30 8 1 8 9
M  V30 9 2 9 10
M  V30 10 1 10 11
M  V30 11 2 11 12
M  V30 12 1 12 13
M  V30 13 2 13 14
M  V30 14 1 14 15
M  V30 15 1 15 16
M  V30 16 2 16 17
M  V30 17 1 17 18
M  V30 18 2 18 19
M  V30 19 1 19 20
M  V30 20 1 19 21
M  V30 21 1 21 22
M  V30 22 1 22 23
M  V30 23 2 23 24
M  V30 24 1 23 25
M  V30 25 1 25 26
M  V30 26 2 26 27
M  V30 27 1 27 28
M  V30 28 2 28 29
M  V30 29 1 29 30
M  V30 30 1 30 31
M  V30 31 1 31 32
M  V30 32 1 31 33
M  V30 33 1 31 34
M  V30 34 2 30 35
M  V30 35 2 21 36
M  V30 36 1 14 37
M  V30 37 2 37 38
M  V30 38 1 38 39
M  V30 39 1 5 2
M  V30 40 1 39 9
M  V30 41 1 38 11
M  V30 42 1 36 16
M  V30 43 1 35 26
M  V30 44 1 1 40
M  V30 45 1 1 41
M  V30 46 1 1 42
M  V30 47 1 3 43
M  V30 48 1 3 44
M  V30 49 1 3 45
M  V30 50 1 4 46
M  V30 51 1 4 47
M  V30 52 1 5 48
M  V30 53 1 8 49
M  V30 54 1 12 50
M  V30 55 1 13 51
M  V30 56 1 17 52
M  V30 57 1 18 53
M  V30 58 1 22 54
M  V30 59 1 25 55
M  V30 60 1 25 56
M  V30 61 1 27 57
M  V30 62 1 28 58
M  V30 63 1 29 59
M  V30 64 1 35 60
M  V30 65 1 36 61
M  V30 66 1 37 62
M  V30 END BOND
M  V30 END CTAB
M  END
>  <Dataset>  (927) 
ChEMBL_Kinases

>  <Ligand_Instance>  (927) 
nan

>  <PDB_ID>  (927) 
nan

>  <Standardized_SMILES>  (927) 
CC1(C)CC1C(=O)Nc1nc2ccc(Oc3ccc(F)c(NC(=O)Cc4cccc(C(F)(F)F)c4)c3)cc2s1

>  <Name>  (927) 
nan

>  <Pocket>  (927) 
nan

>  <ATP_Site>  (927) 
nan

>  <Peripheral>  (927) 
nan

>  <Num_H_Atoms_ProtBoundConf>  (927) 
nan

>  <Num_Resolved_Atoms>  (927) 
nan

>  <Num_Not_Resolved_Atoms>  (927) 
nan

$$$$
CHEMBL4068388
     RDKit          3D

  0  0  0  0  0  0  0  0  0  0999 V3000
M  V30 BEGIN CTAB
M  V30 COUNTS 21 22 0 0 0
M  V30 BEGIN ATOM
M  V30 1 O 1.219600 -1.920549 3.920626 0
M  V30 2 C 1.875995 -1.674182 2.882526 0
M  V30 3 N 3.197330 -2.074199 2.563655 0
M  V30 4 C 3.767059 -1.688380 1.319219 0
M  V30 5 S 5.293291 -2.017734 0.878283 0
M  V30 6 S 2.466279 -0.800721 0.419440 0
M  V30 7 C 1.277353 -0.865545 1.789699 0
M  V30 8 C 0.124030 -0.278395 1.738684 0
M  V30 9 C -0.409902 0.505056 0.642180 0
M  V30 10 C -0.322618 -0.007457 -0.642269 0
M  V30 11 C -0.783935 0.771735 -1.674528 0
M  V30 12 C -1.313624 2.026346 -1.393327 0
M  V30 13 C -1.397223 2.531073 -0.098308 0
M  V30 14 C -0.924913 1.728375 0.943643 0
M  V30 15 Cl -1.004634 2.305506 2.599910 0
M  V30 16 H 3.726373 -2.650347 3.294471 0
M  V30 17 H -0.534147 -0.355607 2.614970 0
M  V30 18 H 0.084056 -0.973753 -0.884018 0
M  V30 19 H -0.789718 0.550185 -2.705445 0
M  V30 20 H -1.693336 2.687664 -2.157233 0
M  V30 21 H -1.809477 3.486093 0.116376 0
M  V30 END ATOM
M  V30 BEGIN BOND
M  V30 1 2 1 2
M  V30 2 1 2 3
M  V30 3 1 3 4
M  V30 4 2 4 5
M  V30 5 1 4 6
M  V30 6 1 6 7
M  V30 7 2 7 8
M  V30 8 1 8 9
M  V30 9 2 9 10
M  V30 10 1 10 11
M  V30 11 2 11 12
M  V30 12 1 12 13
M  V30 13 2 13 14
M  V30 14 1 14 15
M  V30 15 1 7 2
M  V30 16 1 14 9
M  V30 17 1 3 16
M  V30 18 1 8 17
M  V30 19 1 10 18
M  V30 20 1 11 19
M  V30 21 1 12 20
M  V30 22 1 13 21
M  V30 END BOND
M  V30 END CTAB
M  END
>  <Dataset>  (928) 
ChEMBL_Kinases

>  <Ligand_Instance>  (928) 
nan

>  <PDB_ID>  (928) 
nan

>  <Standardized_SMILES>  (928) 
O=C1NC(=S)S/C1=C\c1ccccc1Cl

>  <Name>  (928) 
nan

>  <Pocket>  (928) 
nan

>  <ATP_Site>  (928) 
nan

>  <Peripheral>  (928) 
nan

>  <Num_H_Atoms_ProtBoundConf>  (928) 
nan

>  <Num_Resolved_Atoms>  (928) 
nan

>  <Num_Not_Resolved_Atoms>  (928) 
nan

$$$$
CHEMBL4068387
     RDKit          3D

  0  0  0  0  0  0  0  0  0  0999 V3000
M  V30 BEGIN CTAB
M  V30 COUNTS 61 65 0 0 0
M  V30 BEGIN ATOM
M  V30 1 C 5.424076 -1.930872 5.367978 0
M  V30 2 N 4.794754 -1.448090 4.185987 0
M  V30 3 C 5.122464 -1.572790 2.823601 0
M  V30 4 O 6.173516 -2.242311 2.658144 0
M  V30 5 C 4.334421 -0.996248 1.741418 0
M  V30 6 C 4.631190 -1.275172 0.426731 0
M  V30 7 C 3.868883 -0.734538 -0.612338 0
M  V30 8 C 2.780603 0.107673 -0.338345 0
M  V30 9 C 2.564325 0.328156 1.016657 0
M  V30 10 C 3.284672 -0.179368 2.073702 0
M  V30 11 C 1.441693 1.193024 1.461388 0
M  V30 12 O 1.576704 1.738052 2.590908 0
M  V30 13 C 0.187555 1.479286 0.721577 0
M  V30 14 C -0.832522 1.652413 1.647947 0
M  V30 15 C -2.073944 1.875816 1.041137 0
M  V30 16 C -2.194773 1.909377 -0.357766 0
M  V30 17 N -3.597053 2.057376 -0.671354 0
M  V30 18 C -4.235624 0.795599 -0.356281 0
M  V30 19 C -5.579135 0.641575 -0.003962 0
M  V30 20 C -6.091798 -0.625344 0.268613 0
M  V30 21 C -5.301124 -1.765857 0.203187 0
M  V30 22 C -5.856455 -3.115940 0.506318 0
M  V30 23 C -3.971904 -1.698891 -0.134134 0
M  V30 24 C -3.058305 -2.816393 -0.232713 0
M  V30 25 O -3.347797 -3.950533 0.216652 0
M  V30 26 N -1.776482 -2.722400 -0.837832 0
M  V30 27 C -0.779620 -3.744241 -0.996176 0
M  V30 28 C 0.676156 -3.338268 -0.836890 0
M  V30 29 C 0.126836 -3.739550 -2.177033 0
M  V30 30 C -3.529512 -0.420333 -0.391448 0
M  V30 31 C -1.104047 1.724933 -1.172570 0
M  V30 32 C 0.174047 1.494609 -0.654099 0
M  V30 33 C 1.096645 1.350088 -1.765309 0
M  V30 34 C 2.250491 0.448682 -1.649091 0
M  V30 35 H 5.516529 -1.093878 6.100665 0
M  V30 36 H 4.700590 -2.674224 5.834275 0
M  V30 37 H 6.385723 -2.414298 5.116177 0
M  V30 38 H 3.919883 -0.903997 4.467362 0
M  V30 39 H 5.471241 -1.926021 0.226617 0
M  V30 40 H 4.209437 -1.041339 -1.606831 0
M  V30 41 H 2.949605 0.117507 3.039491 0
M  V30 42 H -0.615860 1.611592 2.696339 0
M  V30 43 H -2.861774 2.015283 1.785104 0
M  V30 44 H -4.240748 2.788002 -1.047217 0
M  V30 45 H -6.141535 1.552132 0.035232 0
M  V30 46 H -7.143315 -0.697548 0.534689 0
M  V30 47 H -5.632855 -3.864290 -0.251084 0
M  V30 48 H -6.936794 -2.991227 0.700243 0
M  V30 49 H -5.412747 -3.516874 1.472569 0
M  V30 50 H -1.433437 -1.827638 -1.244368 0
M  V30 51 H -1.031531 -4.751603 -0.565497 0
M  V30 52 H 0.894100 -2.238470 -0.739224 0
M  V30 53 H 1.393106 -4.020584 -0.339421 0
M  V30 54 H -0.009844 -2.945096 -2.962112 0
M  V30 55 H 0.422615 -4.730654 -2.562099 0
M  V30 56 H -2.490196 -0.316707 -0.667414 0
M  V30 57 H -1.381475 1.781726 -2.206875 0
M  V30 58 H 1.486618 2.405559 -1.972547 0
M  V30 59 H 0.537333 1.057282 -2.694228 0
M  V30 60 H 3.115816 0.961849 -2.190185 0
M  V30 61 H 2.122761 -0.476622 -2.288835 0
M  V30 END ATOM
M  V30 BEGIN BOND
M  V30 1 1 1 2
M  V30 2 1 2 3
M  V30 3 2 3 4
M  V30 4 1 3 5
M  V30 5 2 5 6
M  V30 6 1 6 7
M  V30 7 2 7 8
M  V30 8 1 8 9
M  V30 9 2 9 10
M  V30 10 1 9 11
M  V30 11 2 11 12
M  V30 12 1 11 13
M  V30 13 2 13 14
M  V30 14 1 14 15
M  V30 15 2 15 16
M  V30 16 1 16 17
M  V30 17 1 17 18
M  V30 18 2 18 19
M  V30 19 1 19 20
M  V30 20 2 20 21
M  V30 21 1 21 22
M  V30 22 1 21 23
M  V30 23 1 23 24
M  V30 24 2 24 25
M  V30 25 1 24 26
M  V30 26 1 26 27
M  V30 27 1 27 28
M  V30 28 1 28 29
M  V30 29 2 23 30
M  V30 30 1 16 31
M  V30 31 2 31 32
M  V30 32 1 32 33
M  V30 33 1 33 34
M  V30 34 1 10 5
M  V30 35 1 32 13
M  V30 36 1 34 8
M  V30 37 1 30 18
M  V30 38 1 29 27
M  V30 39 1 1 35
M  V30 40 1 1 36
M  V30 41 1 1 37
M  V30 42 1 2 38
M  V30 43 1 6 39
M  V30 44 1 7 40
M  V30 45 1 10 41
M  V30 46 1 14 42
M  V30 47 1 15 43
M  V30 48 1 17 44
M  V30 49 1 19 45
M  V30 50 1 20 46
M  V30 51 1 22 47
M  V30 52 1 22 48
M  V30 53 1 22 49
M  V30 54 1 26 50
M  V30 55 1 27 51
M  V30 56 1 28 52
M  V30 57 1 28 53
M  V30 58 1 29 54
M  V30 59 1 29 55
M  V30 60 1 30 56
M  V30 61 1 31 57
M  V30 62 1 33 58
M  V30 63 1 33 59
M  V30 64 1 34 60
M  V30 65 1 34 61
M  V30 END BOND
M  V30 END CTAB
M  END
>  <Dataset>  (929) 
ChEMBL_Kinases

>  <Ligand_Instance>  (929) 
nan

>  <PDB_ID>  (929) 
nan

>  <Standardized_SMILES>  (929) 
CNC(=O)c1ccc2c(c1)C(=O)c1ccc(Nc3ccc(C)c(C(=O)NC4CC4)c3)cc1CC2

>  <Name>  (929) 
nan

>  <Pocket>  (929) 
nan

>  <ATP_Site>  (929) 
nan

>  <Peripheral>  (929) 
nan

>  <Num_H_Atoms_ProtBoundConf>  (929) 
nan

>  <Num_Resolved_Atoms>  (929) 
nan

>  <Num_Not_Resolved_Atoms>  (929) 
nan

$$$$
CHEMBL4068247
     RDKit          3D

  0  0  0  0  0  0  0  0  0  0999 V3000
M  V30 BEGIN CTAB
M  V30 COUNTS 53 58 0 0 0
M  V30 BEGIN ATOM
M  V30 1 Cl -3.036453 -0.255729 6.006444 0
M  V30 2 C -2.034060 -0.351151 4.570224 0
M  V30 3 C -0.778640 0.236850 4.581872 0
M  V30 4 C -0.020021 0.140399 3.429338 0
M  V30 5 C -0.452751 -0.497175 2.309838 0
M  V30 6 C 0.365287 -0.548581 1.198181 0
M  V30 7 N 1.674553 0.022861 1.140476 0
M  V30 8 C 2.441807 -0.066290 -0.050788 0
M  V30 9 C 1.957224 0.837187 -1.137174 0
M  V30 10 C 2.043300 2.261217 -0.726901 0
M  V30 11 C 3.193038 2.969511 -1.094141 0
M  V30 12 N 3.166929 4.243664 -0.613851 0
M  V30 13 C 2.030780 4.393630 0.059151 0
M  V30 14 C 1.392380 5.385357 0.763127 0
M  V30 15 C 0.157069 5.178300 1.350678 0
M  V30 16 C -0.498563 3.967049 1.261390 0
M  V30 17 C 0.112089 2.966780 0.570264 0
M  V30 18 C 1.339793 3.184907 -0.007909 0
M  V30 19 N -0.103864 -1.188636 0.112740 0
M  V30 20 C -1.316678 -1.767169 0.076682 0
M  V30 21 N -1.927292 -2.481954 -0.990954 0
M  V30 22 C -1.871885 -3.906795 -1.110217 0
M  V30 23 C -2.460204 -4.625998 -2.152468 0
M  V30 24 C -2.331190 -6.007318 -2.121266 0
M  V30 25 C -1.650230 -6.640598 -1.102762 0
M  V30 26 N -1.401350 -7.940432 -0.864604 0
M  V30 27 N -0.695668 -8.077645 0.258402 0
M  V30 28 C -0.464130 -6.859570 0.787534 0
M  V30 29 C -1.056186 -5.929361 -0.053034 0
M  V30 30 C -1.180019 -4.550293 -0.076769 0
M  V30 31 N -2.068371 -1.685824 1.183986 0
M  V30 32 C -1.705881 -1.076728 2.317992 0
M  V30 33 C -2.526083 -1.018206 3.447075 0
M  V30 34 H -0.423555 0.753306 5.481075 0
M  V30 35 H 0.930637 0.610140 3.501622 0
M  V30 36 H 2.119870 0.514629 1.933168 0
M  V30 37 H 3.520683 0.124972 0.157103 0
M  V30 38 H 2.354989 -1.125238 -0.439856 0
M  V30 39 H 0.865263 0.610392 -1.293046 0
M  V30 40 H 2.478617 0.640893 -2.091342 0
M  V30 41 H 4.062554 2.680930 -1.675074 0
M  V30 42 H 3.809240 5.043688 -0.669301 0
M  V30 43 H 1.885337 6.349009 0.851745 0
M  V30 44 H -0.364682 5.961995 1.918570 0
M  V30 45 H -1.471268 3.807586 1.725667 0
M  V30 46 H -0.414257 2.031609 0.497716 0
M  V30 47 H -2.432276 -1.909735 -1.701636 0
M  V30 48 H -2.970626 -4.073993 -2.906617 0
M  V30 49 H -2.794275 -6.538117 -2.938848 0
M  V30 50 H -1.701019 -8.776931 -1.453637 0
M  V30 51 H 0.071176 -6.554811 1.696536 0
M  V30 52 H -0.725396 -3.992473 0.728913 0
M  V30 53 H -3.509676 -1.484089 3.422289 0
M  V30 END ATOM
M  V30 BEGIN BOND
M  V30 1 1 1 2
M  V30 2 2 2 3
M  V30 3 1 3 4
M  V30 4 2 4 5
M  V30 5 1 5 6
M  V30 6 1 6 7
M  V30 7 1 7 8
M  V30 8 1 8 9
M  V30 9 1 9 10
M  V30 10 2 10 11
M  V30 11 1 11 12
M  V30 12 1 12 13
M  V30 13 2 13 14
M  V30 14 1 14 15
M  V30 15 2 15 16
M  V30 16 1 16 17
M  V30 17 2 17 18
M  V30 18 2 6 19
M  V30 19 1 19 20
M  V30 20 1 20 21
M  V30 21 1 21 22
M  V30 22 2 22 23
M  V30 23 1 23 24
M  V30 24 2 24 25
M  V30 25 1 25 26
M  V30 26 1 26 27
M  V30 27 2 27 28
M  V30 28 1 28 29
M  V30 29 2 29 30
M  V30 30 2 20 31
M  V30 31 1 31 32
M  V30 32 2 32 33
M  V30 33 1 33 2
M  V30 34 1 32 5
M  V30 35 1 18 10
M  V30 36 1 30 22
M  V30 37 1 18 13
M  V30 38 1 29 25
M  V30 39 1 3 34
M  V30 40 1 4 35
M  V30 41 1 7 36
M  V30 42 1 8 37
M  V30 43 1 8 38
M  V30 44 1 9 39
M  V30 45 1 9 40
M  V30 46 1 11 41
M  V30 47 1 12 42
M  V30 48 1 14 43
M  V30 49 1 15 44
M  V30 50 1 16 45
M  V30 51 1 17 46
M  V30 52 1 21 47
M  V30 53 1 23 48
M  V30 54 1 24 49
M  V30 55 1 26 50
M  V30 56 1 28 51
M  V30 57 1 30 52
M  V30 58 1 33 53
M  V30 END BOND
M  V30 END CTAB
M  END
>  <Dataset>  (930) 
ChEMBL_Kinases

>  <Ligand_Instance>  (930) 
nan

>  <PDB_ID>  (930) 
nan

>  <Standardized_SMILES>  (930) 
Clc1ccc2c(NCCc3c[nH]c4ccccc34)nc(Nc3ccc4[nH]ncc4c3)nc2c1

>  <Name>  (930) 
nan

>  <Pocket>  (930) 
nan

>  <ATP_Site>  (930) 
nan

>  <Peripheral>  (930) 
nan

>  <Num_H_Atoms_ProtBoundConf>  (930) 
nan

>  <Num_Resolved_Atoms>  (930) 
nan

>  <Num_Not_Resolved_Atoms>  (930) 
nan

$$$$
CHEMBL4068155
     RDKit          3D

  0  0  0  0  0  0  0  0  0  0999 V3000
M  V30 BEGIN CTAB
M  V30 COUNTS 55 59 0 0 0
M  V30 BEGIN ATOM
M  V30 1 C -1.773160 -2.704401 6.785802 0
M  V30 2 O -0.818746 -1.697014 6.600252 0
M  V30 3 C -0.271186 -1.316763 5.384401 0
M  V30 4 C 0.660945 -0.297394 5.395478 0
M  V30 5 C 1.286204 0.184694 4.269856 0
M  V30 6 C 0.932477 -0.412698 3.078319 0
M  V30 7 N 1.485274 -0.011631 1.920337 0
M  V30 8 C 1.144402 -0.593918 0.734329 0
M  V30 9 C 1.827912 -0.037402 -0.451079 0
M  V30 10 O 2.616750 -0.738844 -1.154411 0
M  V30 11 N 1.481512 1.346404 -0.676731 0
M  V30 12 C 0.556728 2.113630 0.171548 0
M  V30 13 C 0.221597 3.372621 -0.619335 0
M  V30 14 N 1.385881 4.167240 -0.879078 0
M  V30 15 C 2.541062 3.401083 -1.307038 0 CFG=2
M  V30 16 C 3.273611 4.114576 -2.431457 0
M  V30 17 C 2.064775 2.053224 -1.800840 0
M  V30 18 N 0.227733 -1.609773 0.662992 0
M  V30 19 C -0.340128 -2.024284 1.818382 0
M  V30 20 N -1.285587 -3.076883 1.674862 0
M  V30 21 C -1.477819 -3.659224 0.395899 0
M  V30 22 C -2.076996 -3.350689 -0.801981 0
M  V30 23 C -1.892331 -4.418351 -1.646398 0
M  V30 24 C -2.381209 -4.471624 -3.044939 0
M  V30 25 C -2.193650 -3.219786 -3.842739 0
M  V30 26 C -3.562950 -3.603605 -3.424921 0
M  V30 27 N -1.197677 -5.359740 -0.982109 0
M  V30 28 N -0.961209 -4.889069 0.228078 0
M  V30 29 C 0.008218 -1.434232 3.009689 0
M  V30 30 C -0.592760 -1.884899 4.162072 0
M  V30 31 H -2.414188 -2.696108 5.853963 0
M  V30 32 H -1.350051 -3.728277 6.841884 0
M  V30 33 H -2.491168 -2.475383 7.600741 0
M  V30 34 H 0.962078 0.194525 6.336034 0
M  V30 35 H 2.021025 0.985814 4.281973 0
M  V30 36 H -0.373567 1.563800 0.350844 0
M  V30 37 H 1.054588 2.438668 1.099093 0
M  V30 38 H -0.324544 3.126832 -1.549125 0
M  V30 39 H -0.480970 3.960756 0.014169 0
M  V30 40 H 1.605857 4.796905 -0.062320 0
M  V30 41 H 3.188244 3.242620 -0.439344 0
M  V30 42 H 3.935815 4.896348 -2.023743 0
M  V30 43 H 3.884319 3.381056 -2.976803 0
M  V30 44 H 2.534966 4.618124 -3.090918 0
M  V30 45 H 1.248879 2.259539 -2.545657 0
M  V30 46 H 2.885019 1.465370 -2.262775 0
M  V30 47 H -1.890481 -3.511730 2.397866 0
M  V30 48 H -2.564082 -2.392540 -0.901264 0
M  V30 49 H -2.287133 -5.439703 -3.580690 0
M  V30 50 H -1.663607 -2.376108 -3.356667 0
M  V30 51 H -1.926880 -3.286746 -4.924541 0
M  V30 52 H -4.219701 -3.984259 -4.262182 0
M  V30 53 H -4.051745 -2.960163 -2.671776 0
M  V30 54 H -0.915132 -6.291847 -1.389543 0
M  V30 55 H -1.312138 -2.669677 4.138787 0
M  V30 END ATOM
M  V30 BEGIN BOND
M  V30 1 1 1 2
M  V30 2 1 2 3
M  V30 3 2 3 4
M  V30 4 1 4 5
M  V30 5 2 5 6
M  V30 6 1 6 7
M  V30 7 2 7 8
M  V30 8 1 8 9
M  V30 9 2 9 10
M  V30 10 1 9 11
M  V30 11 1 11 12
M  V30 12 1 12 13
M  V30 13 1 13 14
M  V30 14 1 14 15
M  V30 15 1 15 16
M  V30 16 1 15 17
M  V30 17 1 8 18
M  V30 18 2 18 19
M  V30 19 1 19 20
M  V30 20 1 20 21
M  V30 21 1 21 22
M  V30 22 2 22 23
M  V30 23 1 23 24
M  V30 24 1 24 25
M  V30 25 1 25 26
M  V30 26 1 23 27
M  V30 27 1 27 28
M  V30 28 1 19 29
M  V30 29 2 29 30
M  V30 30 1 30 3
M  V30 31 1 29 6
M  V30 32 1 17 11
M  V30 33 2 28 21
M  V30 34 1 26 24
M  V30 35 1 1 31
M  V30 36 1 1 32
M  V30 37 1 1 33
M  V30 38 1 4 34
M  V30 39 1 5 35
M  V30 40 1 12 36
M  V30 41 1 12 37
M  V30 42 1 13 38
M  V30 43 1 13 39
M  V30 44 1 14 40
M  V30 45 1 15 41 CFG=1
M  V30 46 1 16 42
M  V30 47 1 16 43
M  V30 48 1 16 44
M  V30 49 1 17 45
M  V30 50 1 17 46
M  V30 51 1 20 47
M  V30 52 1 22 48
M  V30 53 1 24 49
M  V30 54 1 25 50
M  V30 55 1 25 51
M  V30 56 1 26 52
M  V30 57 1 26 53
M  V30 58 1 27 54
M  V30 59 1 30 55
M  V30 END BOND
M  V30 END CTAB
M  END
>  <Dataset>  (931) 
ChEMBL_Kinases

>  <Ligand_Instance>  (931) 
nan

>  <PDB_ID>  (931) 
nan

>  <Standardized_SMILES>  (931) 
COc1ccc2nc(C(=O)N3CCN[C@H](C)C3)nc(Nc3cc(C4CC4)[nH]n3)c2c1

>  <Name>  (931) 
nan

>  <Pocket>  (931) 
nan

>  <ATP_Site>  (931) 
nan

>  <Peripheral>  (931) 
nan

>  <Num_H_Atoms_ProtBoundConf>  (931) 
nan

>  <Num_Resolved_Atoms>  (931) 
nan

>  <Num_Not_Resolved_Atoms>  (931) 
nan

$$$$
CHEMBL4068148
     RDKit          3D

  0  0  0  0  0  0  0  0  0  0999 V3000
M  V30 BEGIN CTAB
M  V30 COUNTS 39 41 0 0 0
M  V30 BEGIN ATOM
M  V30 1 C 0.675972 -3.815140 2.451446 0
M  V30 2 C -0.427087 -2.777505 2.223944 0 CFG=2
M  V30 3 C -1.461164 -3.448537 1.346462 0
M  V30 4 N -0.971231 -3.850392 0.073203 0
M  V30 5 C 0.126397 -3.138520 -0.458540 0
M  V30 6 C 0.864412 -2.229066 0.441878 0
M  V30 7 N 0.027403 -1.632254 1.477236 0
M  V30 8 C -0.118768 -0.219540 1.495415 0
M  V30 9 N 0.609610 0.365754 0.529398 0
M  V30 10 C 0.631287 1.719465 0.338561 0
M  V30 11 C 1.434640 2.294769 -0.734232 0
M  V30 12 C 1.503339 3.643798 -0.983387 0
M  V30 13 C 2.313746 4.034519 -2.057102 0
M  V30 14 N 3.000748 3.155950 -2.821776 0
M  V30 15 C 2.903455 1.840475 -2.539719 0
M  V30 16 N 2.129692 1.450199 -1.512682 0
M  V30 17 C -0.148790 2.442267 1.209910 0
M  V30 18 C -0.906950 1.874336 2.209967 0
M  V30 19 O -1.619409 2.535159 3.005295 0
M  V30 20 N -0.861666 0.522692 2.317238 0
M  V30 21 C -1.633040 -0.143171 3.328893 0
M  V30 22 H 0.354280 -4.484845 3.302328 0
M  V30 23 H 0.830559 -4.435935 1.559168 0
M  V30 24 H 1.593853 -3.324572 2.831456 0
M  V30 25 H -0.833099 -2.592147 3.216117 0
M  V30 26 H -1.791190 -4.365549 1.884130 0
M  V30 27 H -2.349051 -2.784144 1.320274 0
M  V30 28 H -1.775400 -3.897417 -0.593233 0
M  V30 29 H 0.853983 -3.906643 -0.854377 0
M  V30 30 H -0.193508 -2.584273 -1.364485 0
M  V30 31 H 1.334943 -1.381865 -0.128382 0
M  V30 32 H 1.749935 -2.755543 0.888767 0
M  V30 33 H 0.946347 4.292262 -0.354364 0
M  V30 34 H 2.331717 5.110548 -2.209783 0
M  V30 35 H 3.429694 1.079076 -3.114482 0
M  V30 36 H -0.184906 3.505635 1.124692 0
M  V30 37 H -1.073345 -0.493359 4.201006 0
M  V30 38 H -2.370020 -0.872954 2.907664 0
M  V30 39 H -2.340421 0.625663 3.788211 0
M  V30 END ATOM
M  V30 BEGIN BOND
M  V30 1 1 1 2
M  V30 2 1 2 3
M  V30 3 1 3 4
M  V30 4 1 4 5
M  V30 5 1 5 6
M  V30 6 1 6 7
M  V30 7 1 7 8
M  V30 8 2 8 9
M  V30 9 1 9 10
M  V30 10 1 10 11
M  V30 11 2 11 12
M  V30 12 1 12 13
M  V30 13 2 13 14
M  V30 14 1 14 15
M  V30 15 2 15 16
M  V30 16 2 10 17
M  V30 17 1 17 18
M  V30 18 2 18 19
M  V30 19 1 18 20
M  V30 20 1 20 21
M  V30 21 1 7 2
M  V30 22 1 20 8
M  V30 23 1 16 11
M  V30 24 1 1 22
M  V30 25 1 1 23
M  V30 26 1 1 24
M  V30 27 1 2 25 CFG=1
M  V30 28 1 3 26
M  V30 29 1 3 27
M  V30 30 1 4 28
M  V30 31 1 5 29
M  V30 32 1 5 30
M  V30 33 1 6 31
M  V30 34 1 6 32
M  V30 35 1 12 33
M  V30 36 1 13 34
M  V30 37 1 15 35
M  V30 38 1 17 36
M  V30 39 1 21 37
M  V30 40 1 21 38
M  V30 41 1 21 39
M  V30 END BOND
M  V30 END CTAB
M  END
>  <Dataset>  (932) 
ChEMBL_Kinases

>  <Ligand_Instance>  (932) 
nan

>  <PDB_ID>  (932) 
nan

>  <Standardized_SMILES>  (932) 
C[C@@H]1CNCCN1c1nc(-c2ccncn2)cc(=O)n1C

>  <Name>  (932) 
nan

>  <Pocket>  (932) 
nan

>  <ATP_Site>  (932) 
nan

>  <Peripheral>  (932) 
nan

>  <Num_H_Atoms_ProtBoundConf>  (932) 
nan

>  <Num_Resolved_Atoms>  (932) 
nan

>  <Num_Not_Resolved_Atoms>  (932) 
nan

$$$$
CHEMBL4068096
     RDKit          3D

  0  0  0  0  0  0  0  0  0  0999 V3000
M  V30 BEGIN CTAB
M  V30 COUNTS 31 33 0 0 0
M  V30 BEGIN ATOM
M  V30 1 C -1.609404 -5.106986 3.046307 0
M  V30 2 O -1.571072 -4.036175 2.150109 0
M  V30 3 C -0.550551 -3.098885 2.056516 0
M  V30 4 C 0.602086 -3.039359 2.812018 0
M  V30 5 C 1.533978 -2.044255 2.606554 0
M  V30 6 C 1.355847 -1.057022 1.630889 0
M  V30 7 C 0.197109 -1.152902 0.902453 0
M  V30 8 C -0.200570 -0.300099 -0.111025 0
M  V30 9 C 0.366603 0.889591 -0.739505 0
M  V30 10 C 0.371847 1.037120 -2.112389 0
M  V30 11 C 0.925725 2.191692 -2.653419 0
M  V30 12 N 1.461774 3.180290 -1.887257 0
M  V30 13 C 1.453907 3.031101 -0.549958 0
M  V30 14 N 2.007626 4.048892 0.275517 0
M  V30 15 C 0.914423 1.901154 0.030911 0
M  V30 16 C -1.433311 -0.787215 -0.554029 0
M  V30 17 N -1.746045 -1.889674 0.177376 0
M  V30 18 C -0.767339 -2.129723 1.069371 0
M  V30 19 H -2.357587 -4.945631 3.851919 0
M  V30 20 H -0.650247 -5.331359 3.548093 0
M  V30 21 H -1.904531 -6.085265 2.565897 0
M  V30 22 H 0.710142 -3.811186 3.552962 0
M  V30 23 H 2.434011 -2.025637 3.220518 0
M  V30 24 H 2.089757 -0.276730 1.471996 0
M  V30 25 H -0.045477 0.272061 -2.754867 0
M  V30 26 H 0.914000 2.276473 -3.735524 0
M  V30 27 H 2.445823 4.895087 -0.139160 0
M  V30 28 H 1.981237 3.959273 1.313959 0
M  V30 29 H 0.920522 1.804435 1.120646 0
M  V30 30 H -2.083643 -0.420654 -1.325224 0
M  V30 31 H -2.612007 -2.472724 0.073811 0
M  V30 END ATOM
M  V30 BEGIN BOND
M  V30 1 1 1 2
M  V30 2 1 2 3
M  V30 3 2 3 4
M  V30 4 1 4 5
M  V30 5 2 5 6
M  V30 6 1 6 7
M  V30 7 1 7 8
M  V30 8 1 8 9
M  V30 9 2 9 10
M  V30 10 1 10 11
M  V30 11 2 11 12
M  V30 12 1 12 13
M  V30 13 1 13 14
M  V30 14 2 13 15
M  V30 15 2 8 16
M  V30 16 1 16 17
M  V30 17 1 17 18
M  V30 18 1 18 3
M  V30 19 2 18 7
M  V30 20 1 15 9
M  V30 21 1 1 19
M  V30 22 1 1 20
M  V30 23 1 1 21
M  V30 24 1 4 22
M  V30 25 1 5 23
M  V30 26 1 6 24
M  V30 27 1 10 25
M  V30 28 1 11 26
M  V30 29 1 14 27
M  V30 30 1 14 28
M  V30 31 1 15 29
M  V30 32 1 16 30
M  V30 33 1 17 31
M  V30 END BOND
M  V30 END CTAB
M  END
>  <Dataset>  (933) 
ChEMBL_Kinases

>  <Ligand_Instance>  (933) 
nan

>  <PDB_ID>  (933) 
nan

>  <Standardized_SMILES>  (933) 
COc1cccc2c(-c3ccnc(N)c3)c[nH]c12

>  <Name>  (933) 
nan

>  <Pocket>  (933) 
nan

>  <ATP_Site>  (933) 
nan

>  <Peripheral>  (933) 
nan

>  <Num_H_Atoms_ProtBoundConf>  (933) 
nan

>  <Num_Resolved_Atoms>  (933) 
nan

>  <Num_Not_Resolved_Atoms>  (933) 
nan

$$$$
CHEMBL4068071
     RDKit          3D

  0  0  0  0  0  0  0  0  0  0999 V3000
M  V30 BEGIN CTAB
M  V30 COUNTS 42 45 0 0 0
M  V30 BEGIN ATOM
M  V30 1 C -0.201588 -6.776774 1.021463 0
M  V30 2 C 1.149774 -6.316121 1.402803 0
M  V30 3 N 2.130094 -7.072569 1.963591 0
M  V30 4 N 3.215722 -6.354524 2.179288 0
M  V30 5 C 2.989520 -5.087243 1.765190 0
M  V30 6 C 1.715581 -5.062223 1.286031 0
M  V30 7 C 1.070656 -3.903901 0.744996 0
M  V30 8 C 1.456490 -2.637275 0.558125 0
M  V30 9 C 0.616357 -1.724986 0.008781 0
M  V30 10 N 0.779715 -0.417562 -0.271236 0
M  V30 11 C -0.195772 0.322375 -0.825877 0
M  V30 12 C 0.123104 1.759891 -1.081807 0
M  V30 13 N -0.191105 2.632891 -0.000472 0
M  V30 14 C 0.172858 3.979254 -0.399415 0
M  V30 15 C 0.496556 4.722420 0.872928 0
M  V30 16 C 0.569137 3.683458 1.948786 0 CFG=1
M  V30 17 C -0.535822 3.783111 2.967222 0
M  V30 18 C 0.484592 2.358640 1.222104 0
M  V30 19 N -1.417929 -0.132856 -1.160650 0
M  V30 20 C -1.683719 -1.428400 -0.921725 0
M  V30 21 O -2.747489 -2.020594 -1.162058 0
M  V30 22 C -0.668720 -2.177507 -0.350039 0
M  V30 23 S -0.612669 -3.963378 0.136037 0
M  V30 24 H -1.023419 -6.139035 1.423199 0
M  V30 25 H -0.372936 -7.780729 1.468521 0
M  V30 26 H -0.304645 -6.937573 -0.077110 0
M  V30 27 H 4.098979 -6.707189 2.598876 0
M  V30 28 H 3.676531 -4.226397 1.795790 0
M  V30 29 H 2.462056 -2.384263 0.865235 0
M  V30 30 H 1.185337 1.833004 -1.417431 0
M  V30 31 H -0.473955 2.069971 -1.964680 0
M  V30 32 H -0.707430 4.427791 -0.904447 0
M  V30 33 H 1.042344 3.958593 -1.077054 0
M  V30 34 H -0.249432 5.526681 1.092191 0
M  V30 35 H 1.464769 5.250112 0.758924 0
M  V30 36 H 1.528307 3.790080 2.503701 0
M  V30 37 H -0.721658 2.741290 3.334448 0
M  V30 38 H -1.482266 4.125665 2.517825 0
M  V30 39 H -0.228287 4.359084 3.844300 0
M  V30 40 H 1.534630 2.027403 1.094331 0
M  V30 41 H -0.105371 1.675562 1.859120 0
M  V30 42 H -2.174004 0.431277 -1.588094 0
M  V30 END ATOM
M  V30 BEGIN BOND
M  V30 1 1 1 2
M  V30 2 2 2 3
M  V30 3 1 3 4
M  V30 4 1 4 5
M  V30 5 2 5 6
M  V30 6 1 6 7
M  V30 7 2 7 8
M  V30 8 1 8 9
M  V30 9 1 9 10
M  V30 10 2 10 11
M  V30 11 1 11 12
M  V30 12 1 12 13
M  V30 13 1 13 14
M  V30 14 1 14 15
M  V30 15 1 15 16
M  V30 16 1 16 17
M  V30 17 1 16 18
M  V30 18 1 11 19
M  V30 19 1 19 20
M  V30 20 2 20 21
M  V30 21 1 20 22
M  V30 22 1 22 23
M  V30 23 1 6 2
M  V30 24 1 23 7
M  V30 25 2 22 9
M  V30 26 1 18 13
M  V30 27 1 1 24
M  V30 28 1 1 25
M  V30 29 1 1 26
M  V30 30 1 4 27
M  V30 31 1 5 28
M  V30 32 1 8 29
M  V30 33 1 12 30
M  V30 34 1 12 31
M  V30 35 1 14 32
M  V30 36 1 14 33
M  V30 37 1 15 34
M  V30 38 1 15 35
M  V30 39 1 16 36 CFG=1
M  V30 40 1 17 37
M  V30 41 1 17 38
M  V30 42 1 17 39
M  V30 43 1 18 40
M  V30 44 1 18 41
M  V30 45 1 19 42
M  V30 END BOND
M  V30 END CTAB
M  END
>  <Dataset>  (934) 
ChEMBL_Kinases

>  <Ligand_Instance>  (934) 
nan

>  <PDB_ID>  (934) 
nan

>  <Standardized_SMILES>  (934) 
Cc1n[nH]cc1-c1cc2nc(CN3CC[C@@H](C)C3)[nH]c(=O)c2s1

>  <Name>  (934) 
nan

>  <Pocket>  (934) 
nan

>  <ATP_Site>  (934) 
nan

>  <Peripheral>  (934) 
nan

>  <Num_H_Atoms_ProtBoundConf>  (934) 
nan

>  <Num_Resolved_Atoms>  (934) 
nan

>  <Num_Not_Resolved_Atoms>  (934) 
nan

$$$$
CHEMBL4068065
     RDKit          3D

  0  0  0  0  0  0  0  0  0  0999 V3000
M  V30 BEGIN CTAB
M  V30 COUNTS 39 41 0 0 0
M  V30 BEGIN ATOM
M  V30 1 O 2.072981 -0.908628 -2.314669 0
M  V30 2 C 1.576815 -0.539800 -1.221808 0
M  V30 3 N 2.067022 -1.331274 -0.187374 0
M  V30 4 C 2.938471 -2.413668 0.042926 0
M  V30 5 C 2.509955 -3.747069 0.018270 0
M  V30 6 C 3.419867 -4.785523 0.256943 0
M  V30 7 C 4.731019 -4.435252 0.511877 0
M  V30 8 N 5.164235 -3.140075 0.539253 0
M  V30 9 C 4.280110 -2.127682 0.307111 0
M  V30 10 C 0.633403 0.550298 -1.068678 0
M  V30 11 C 0.330778 1.161145 -2.295066 0
M  V30 12 C -0.540812 2.219824 -2.398303 0
M  V30 13 Br -0.939636 3.036571 -4.072329 0
M  V30 14 C -1.153220 2.718486 -1.269504 0
M  V30 15 C -0.848690 2.114467 -0.086185 0
M  V30 16 C 0.017654 1.054202 0.053865 0
M  V30 17 O 0.333210 0.443628 1.209646 0
M  V30 18 C -0.062524 0.642087 2.510680 0
M  V30 19 C -1.473972 0.485455 2.838538 0
M  V30 20 C -2.501160 1.360817 3.118549 0
M  V30 21 C -3.772742 0.952639 3.413613 0
M  V30 22 C -4.077302 -0.376935 3.441698 0
M  V30 23 C -3.096810 -1.307731 3.171246 0
M  V30 24 C -1.802891 -0.877474 2.871505 0
M  V30 25 F -0.974496 -1.932372 2.634460 0
M  V30 26 H 1.783685 -1.193522 0.800864 0
M  V30 27 H 1.472711 -3.972212 -0.186118 0
M  V30 28 H 3.114259 -5.831084 0.244092 0
M  V30 29 H 5.462624 -5.221284 0.701746 0
M  V30 30 H 4.716151 -1.138130 0.350081 0
M  V30 31 H 0.751321 0.854355 -3.242609 0
M  V30 32 H -1.843413 3.551491 -1.323538 0
M  V30 33 H -1.334859 2.522576 0.786737 0
M  V30 34 H 0.192556 1.718277 2.764984 0
M  V30 35 H 0.545276 0.063653 3.257452 0
M  V30 36 H -2.129556 2.382264 3.062936 0
M  V30 37 H -4.453844 1.749982 3.606759 0
M  V30 38 H -5.106102 -0.604666 3.683678 0
M  V30 39 H -3.415108 -2.338637 3.212787 0
M  V30 END ATOM
M  V30 BEGIN BOND
M  V30 1 2 1 2
M  V30 2 1 2 3
M  V30 3 1 3 4
M  V30 4 2 4 5
M  V30 5 1 5 6
M  V30 6 2 6 7
M  V30 7 1 7 8
M  V30 8 2 8 9
M  V30 9 1 2 10
M  V30 10 2 10 11
M  V30 11 1 11 12
M  V30 12 1 12 13
M  V30 13 2 12 14
M  V30 14 1 14 15
M  V30 15 2 15 16
M  V30 16 1 16 17
M  V30 17 1 17 18
M  V30 18 1 18 19
M  V30 19 2 19 20
M  V30 20 1 20 21
M  V30 21 2 21 22
M  V30 22 1 22 23
M  V30 23 2 23 24
M  V30 24 1 24 25
M  V30 25 1 9 4
M  V30 26 1 16 10
M  V30 27 1 24 19
M  V30 28 1 3 26
M  V30 29 1 5 27
M  V30 30 1 6 28
M  V30 31 1 7 29
M  V30 32 1 9 30
M  V30 33 1 11 31
M  V30 34 1 14 32
M  V30 35 1 15 33
M  V30 36 1 18 34
M  V30 37 1 18 35
M  V30 38 1 20 36
M  V30 39 1 21 37
M  V30 40 1 22 38
M  V30 41 1 23 39
M  V30 END BOND
M  V30 END CTAB
M  END
>  <Dataset>  (935) 
ChEMBL_Kinases

>  <Ligand_Instance>  (935) 
nan

>  <PDB_ID>  (935) 
nan

>  <Standardized_SMILES>  (935) 
O=C(Nc1cccnc1)c1cc(Br)ccc1OCc1ccccc1F

>  <Name>  (935) 
nan

>  <Pocket>  (935) 
nan

>  <ATP_Site>  (935) 
nan

>  <Peripheral>  (935) 
nan

>  <Num_H_Atoms_ProtBoundConf>  (935) 
nan

>  <Num_Resolved_Atoms>  (935) 
nan

>  <Num_Not_Resolved_Atoms>  (935) 
nan

$$$$
CHEMBL4068718
     RDKit          3D

  0  0  0  0  0  0  0  0  0  0999 V3000
M  V30 BEGIN CTAB
M  V30 COUNTS 27 29 0 0 0
M  V30 BEGIN ATOM
M  V30 1 O 4.640305 -3.632008 1.450954 0
M  V30 2 C 3.982513 -2.625003 1.820714 0
M  V30 3 N 4.156988 -1.906268 3.005592 0
M  V30 4 C 3.309113 -0.791712 3.243408 0
M  V30 5 S 2.983163 -0.025130 4.644759 0
M  V30 6 S 2.661376 -0.419834 1.588471 0
M  V30 7 C 2.914579 -2.106334 0.967656 0
M  V30 8 C 2.197528 -2.556877 -0.022319 0
M  V30 9 C 1.151896 -1.871644 -0.767518 0
M  V30 10 C 1.021715 -1.980039 -2.156854 0
M  V30 11 S -0.511564 -0.866269 -2.379587 0
M  V30 12 C -0.610702 -0.529599 -0.602877 0
M  V30 13 C -1.682703 0.362547 0.007950 0
M  V30 14 C -1.731664 0.560503 1.369237 0
M  V30 15 C -2.704080 1.371532 1.891278 0
M  V30 16 C -3.598594 1.958995 1.018276 0
M  V30 17 C -3.588554 1.790676 -0.352237 0
M  V30 18 Cl -4.766038 2.588169 -1.369499 0
M  V30 19 C -2.590880 0.964297 -0.832372 0
M  V30 20 N 0.274468 -1.115302 -0.087956 0
M  V30 21 H 4.899899 -2.175333 3.718586 0
M  V30 22 H 2.448812 -3.593543 -0.299689 0
M  V30 23 H 1.626911 -2.523396 -2.777366 0
M  V30 24 H -0.972594 0.040863 1.936299 0
M  V30 25 H -2.726693 1.514134 2.960594 0
M  V30 26 H -4.384369 2.611156 1.406518 0
M  V30 27 H -2.555171 0.811059 -1.903783 0
M  V30 END ATOM
M  V30 BEGIN BOND
M  V30 1 2 1 2
M  V30 2 1 2 3
M  V30 3 1 3 4
M  V30 4 2 4 5
M  V30 5 1 4 6
M  V30 6 1 6 7
M  V30 7 2 7 8
M  V30 8 1 8 9
M  V30 9 2 9 10
M  V30 10 1 10 11
M  V30 11 1 11 12
M  V30 12 1 12 13
M  V30 13 2 13 14
M  V30 14 1 14 15
M  V30 15 2 15 16
M  V30 16 1 16 17
M  V30 17 1 17 18
M  V30 18 2 17 19
M  V30 19 2 12 20
M  V30 20 1 7 2
M  V30 21 1 20 9
M  V30 22 1 19 13
M  V30 23 1 3 21
M  V30 24 1 8 22
M  V30 25 1 10 23
M  V30 26 1 14 24
M  V30 27 1 15 25
M  V30 28 1 16 26
M  V30 29 1 19 27
M  V30 END BOND
M  V30 END CTAB
M  END
>  <Dataset>  (936) 
ChEMBL_Kinases

>  <Ligand_Instance>  (936) 
nan

>  <PDB_ID>  (936) 
nan

>  <Standardized_SMILES>  (936) 
O=C1NC(=S)S/C1=C\c1csc(-c2cccc(Cl)c2)n1

>  <Name>  (936) 
nan

>  <Pocket>  (936) 
nan

>  <ATP_Site>  (936) 
nan

>  <Peripheral>  (936) 
nan

>  <Num_H_Atoms_ProtBoundConf>  (936) 
nan

>  <Num_Resolved_Atoms>  (936) 
nan

>  <Num_Not_Resolved_Atoms>  (936) 
nan

$$$$
CHEMBL4082425
     RDKit          3D

  0  0  0  0  0  0  0  0  0  0999 V3000
M  V30 BEGIN CTAB
M  V30 COUNTS 71 75 0 0 0
M  V30 BEGIN ATOM
M  V30 1 C 0.113800 -4.339288 4.192418 0
M  V30 2 C 0.972315 -3.208182 3.815815 0
M  V30 3 C 2.120698 -2.899497 4.516717 0
M  V30 4 C 2.933782 -1.828714 4.159206 0
M  V30 5 C 2.578183 -1.056074 3.072539 0
M  V30 6 C 3.347263 0.107697 2.577884 0
M  V30 7 O 2.997231 0.816613 1.599184 0
M  V30 8 N 4.569522 0.540747 3.167280 0
M  V30 9 C 5.042547 1.670261 2.459446 0
M  V30 10 C 5.869513 1.311108 1.387188 0
M  V30 11 C 6.437490 2.277757 0.562765 0
M  V30 12 C 6.191698 3.628882 0.791524 0
M  V30 13 Cl 6.878334 4.902874 -0.213608 0
M  V30 14 C 5.368707 3.948677 1.861595 0
M  V30 15 C 5.094742 5.374822 2.121699 0
M  V30 16 F 6.260445 6.085252 2.379004 0
M  V30 17 F 4.211724 5.523765 3.181196 0
M  V30 18 F 4.494400 5.972998 1.017601 0
M  V30 19 C 4.804757 2.997905 2.679095 0
M  V30 20 C 1.429381 -1.353511 2.360233 0
M  V30 21 C 0.620981 -2.426757 2.724204 0
M  V30 22 N -0.536210 -2.657952 1.933917 0
M  V30 23 C -1.816276 -2.094831 2.164509 0
M  V30 24 O -1.889932 -1.322208 3.175641 0
M  V30 25 C -3.024043 -2.362100 1.303464 0
M  V30 26 C -2.875636 -3.290260 0.153098 0
M  V30 27 C -3.333509 -3.047413 -1.123397 0
M  V30 28 C -3.206961 -3.909206 -2.185397 0
M  V30 29 N -3.674081 -3.620909 -3.493228 0
M  V30 30 C -4.222631 -2.358584 -3.944038 0
M  V30 31 C -3.136477 -1.336433 -3.948073 0
M  V30 32 N -3.558736 -0.015356 -4.374670 0
M  V30 33 C -4.433720 0.534140 -3.390355 0
M  V30 34 C -3.666560 1.671772 -2.703403 0
M  V30 35 C -2.796891 2.140186 -3.857522 0
M  V30 36 C -2.367414 0.803062 -4.443955 0
M  V30 37 N -2.583818 -5.071678 -1.925444 0
M  V30 38 C -2.116900 -5.358887 -0.693292 0
M  V30 39 N -2.257455 -4.493859 0.319400 0
M  V30 40 C -4.014107 -1.260059 1.262397 0
M  V30 41 C -4.326156 -2.478420 2.020836 0
M  V30 42 H 0.782658 -5.152230 4.601726 0
M  V30 43 H -0.421343 -4.748902 3.288680 0
M  V30 44 H -0.595272 -4.096459 4.996091 0
M  V30 45 H 2.431231 -3.496841 5.388540 0
M  V30 46 H 3.833930 -1.554166 4.677258 0
M  V30 47 H 4.949206 0.010102 3.996521 0
M  V30 48 H 6.131850 0.277499 1.113237 0
M  V30 49 H 7.081485 1.999375 -0.271621 0
M  V30 50 H 4.160211 3.198615 3.520684 0
M  V30 51 H 1.140038 -0.745310 1.496625 0
M  V30 52 H -0.395003 -3.298992 1.124522 0
M  V30 53 H -3.828804 -2.098128 -1.242404 0
M  V30 54 H -3.612253 -4.410277 -4.203833 0
M  V30 55 H -4.601168 -2.467942 -4.985764 0
M  V30 56 H -5.108484 -2.068898 -3.341023 0
M  V30 57 H -2.568388 -1.250052 -3.020900 0
M  V30 58 H -2.391579 -1.673929 -4.734122 0
M  V30 59 H -5.280354 1.060459 -3.912537 0
M  V30 60 H -4.821893 -0.178816 -2.657338 0
M  V30 61 H -3.047443 1.196351 -1.927431 0
M  V30 62 H -4.351392 2.443898 -2.340914 0
M  V30 63 H -3.409468 2.635140 -4.611947 0
M  V30 64 H -1.924217 2.736778 -3.525690 0
M  V30 65 H -1.953687 0.900813 -5.465681 0
M  V30 66 H -1.617393 0.404084 -3.711676 0
M  V30 67 H -1.626741 -6.329292 -0.587478 0
M  V30 68 H -3.814231 -0.352495 1.897725 0
M  V30 69 H -4.522541 -1.014530 0.311548 0
M  V30 70 H -4.361612 -2.443921 3.127740 0
M  V30 71 H -5.120067 -3.129703 1.605586 0
M  V30 END ATOM
M  V30 BEGIN BOND
M  V30 1 1 1 2
M  V30 2 2 2 3
M  V30 3 1 3 4
M  V30 4 2 4 5
M  V30 5 1 5 6
M  V30 6 2 6 7
M  V30 7 1 6 8
M  V30 8 1 8 9
M  V30 9 2 9 10
M  V30 10 1 10 11
M  V30 11 2 11 12
M  V30 12 1 12 13
M  V30 13 1 12 14
M  V30 14 1 14 15
M  V30 15 1 15 16
M  V30 16 1 15 17
M  V30 17 1 15 18
M  V30 18 2 14 19
M  V30 19 1 5 20
M  V30 20 2 20 21
M  V30 21 1 21 22
M  V30 22 1 22 23
M  V30 23 2 23 24
M  V30 24 1 23 25
M  V30 25 1 25 26
M  V30 26 2 26 27
M  V30 27 1 27 28
M  V30 28 1 28 29
M  V30 29 1 29 30
M  V30 30 1 30 31
M  V30 31 1 31 32
M  V30 32 1 32 33
M  V30 33 1 33 34
M  V30 34 1 34 35
M  V30 35 1 35 36
M  V30 36 2 28 37
M  V30 37 1 37 38
M  V30 38 2 38 39
M  V30 39 1 25 40
M  V30 40 1 40 41
M  V30 41 1 21 2
M  V30 42 1 41 25
M  V30 43 1 19 9
M  V30 44 1 39 26
M  V30 45 1 36 32
M  V30 46 1 1 42
M  V30 47 1 1 43
M  V30 48 1 1 44
M  V30 49 1 3 45
M  V30 50 1 4 46
M  V30 51 1 8 47
M  V30 52 1 10 48
M  V30 53 1 11 49
M  V30 54 1 19 50
M  V30 55 1 20 51
M  V30 56 1 22 52
M  V30 57 1 27 53
M  V30 58 1 29 54
M  V30 59 1 30 55
M  V30 60 1 30 56
M  V30 61 1 31 57
M  V30 62 1 31 58
M  V30 63 1 33 59
M  V30 64 1 33 60
M  V30 65 1 34 61
M  V30 66 1 34 62
M  V30 67 1 35 63
M  V30 68 1 35 64
M  V30 69 1 36 65
M  V30 70 1 36 66
M  V30 71 1 38 67
M  V30 72 1 40 68
M  V30 73 1 40 69
M  V30 74 1 41 70
M  V30 75 1 41 71
M  V30 END BOND
M  V30 END CTAB
M  END
>  <Dataset>  (937) 
ChEMBL_Kinases

>  <Ligand_Instance>  (937) 
nan

>  <PDB_ID>  (937) 
nan

>  <Standardized_SMILES>  (937) 
Cc1ccc(C(=O)Nc2ccc(Cl)c(C(F)(F)F)c2)cc1NC(=O)C1(c2cc(NCCN3CCCC3)ncn2)CC1

>  <Name>  (937) 
nan

>  <Pocket>  (937) 
nan

>  <ATP_Site>  (937) 
nan

>  <Peripheral>  (937) 
nan

>  <Num_H_Atoms_ProtBoundConf>  (937) 
nan

>  <Num_Resolved_Atoms>  (937) 
nan

>  <Num_Not_Resolved_Atoms>  (937) 
nan

$$$$
CHEMBL4853233
     RDKit          3D

  0  0  0  0  0  0  0  0  0  0999 V3000
M  V30 BEGIN CTAB
M  V30 COUNTS 55 57 0 0 0
M  V30 BEGIN ATOM
M  V30 1 C -1.507784 -0.489627 4.457927 0
M  V30 2 C -0.805215 -0.060953 3.232117 0
M  V30 3 C 0.426354 0.536364 3.364388 0
M  V30 4 C 1.148601 0.961970 2.275120 0
M  V30 5 N 2.408193 1.567652 2.490787 0
M  V30 6 C 3.336317 2.084716 1.555015 0
M  V30 7 O 3.065631 2.030201 0.338921 0
M  V30 8 N 4.578541 2.673590 1.898078 0
M  V30 9 C 5.338335 3.121341 0.753916 0
M  V30 10 C 6.243165 2.292131 0.105442 0
M  V30 11 C 6.943725 2.783103 -0.990479 0
M  V30 12 C 6.705432 4.082134 -1.386112 0
M  V30 13 C 5.806083 4.919973 -0.748721 0
M  V30 14 C 5.106991 4.420700 0.349792 0
M  V30 15 C 0.539407 0.740448 1.064111 0
M  V30 16 C -0.690869 0.146870 0.884622 0
M  V30 17 C -1.387394 -0.267723 2.000373 0
M  V30 18 C -2.690222 -0.892208 1.808731 0
M  V30 19 C -3.863117 -0.662498 2.455158 0
M  V30 20 N -4.975448 -1.339657 2.147381 0
M  V30 21 C -4.972630 -2.288713 1.169825 0
M  V30 22 N -6.224537 -2.913301 0.964959 0
M  V30 23 C -3.818458 -2.570270 0.476454 0
M  V30 24 C -3.884421 -3.587860 -0.547609 0
M  V30 25 O -4.986721 -4.157642 -0.748430 0
M  V30 26 N -2.811349 -4.016227 -1.363688 0
M  V30 27 C -2.948145 -5.045966 -2.375478 0
M  V30 28 C -2.023918 -6.198223 -1.980056 0
M  V30 29 C -2.552081 -4.541168 -3.728125 0
M  V30 30 C -2.685221 -1.866557 0.804310 0
M  V30 31 H -2.195189 -1.322756 4.256426 0
M  V30 32 H -2.093884 0.387620 4.841914 0
M  V30 33 H -0.773681 -0.826214 5.246670 0
M  V30 34 H 0.839101 0.675315 4.357425 0
M  V30 35 H 2.759752 1.677620 3.464895 0
M  V30 36 H 4.829486 2.730416 2.927978 0
M  V30 37 H 6.386221 1.290296 0.459309 0
M  V30 38 H 7.662265 2.162284 -1.525196 0
M  V30 39 H 7.211928 4.534900 -2.229708 0
M  V30 40 H 5.608730 5.939889 -1.047070 0
M  V30 41 H 4.397284 5.068981 0.859533 0
M  V30 42 H 1.035129 1.042764 0.157711 0
M  V30 43 H -1.116116 0.000510 -0.089087 0
M  V30 44 H -3.819492 0.089421 3.210703 0
M  V30 45 H -6.687411 -2.239619 0.293614 0
M  V30 46 H -6.532251 -3.814944 1.407166 0
M  V30 47 H -1.884782 -3.563779 -1.222150 0
M  V30 48 H -3.988267 -5.425314 -2.402065 0
M  V30 49 H -2.597972 -7.044656 -1.540899 0
M  V30 50 H -1.511874 -6.621895 -2.873440 0
M  V30 51 H -1.266184 -5.878912 -1.231863 0
M  V30 52 H -3.443637 -4.357147 -4.346817 0
M  V30 53 H -2.045419 -3.548468 -3.590477 0
M  V30 54 H -1.841937 -5.229275 -4.231182 0
M  V30 55 H -1.805965 -2.130570 0.225128 0
M  V30 END ATOM
M  V30 BEGIN BOND
M  V30 1 1 1 2
M  V30 2 2 2 3
M  V30 3 1 3 4
M  V30 4 1 4 5
M  V30 5 1 5 6
M  V30 6 2 6 7
M  V30 7 1 6 8
M  V30 8 1 8 9
M  V30 9 2 9 10
M  V30 10 1 10 11
M  V30 11 2 11 12
M  V30 12 1 12 13
M  V30 13 2 13 14
M  V30 14 2 4 15
M  V30 15 1 15 16
M  V30 16 2 16 17
M  V30 17 1 17 18
M  V30 18 2 18 19
M  V30 19 1 19 20
M  V30 20 2 20 21
M  V30 21 1 21 22
M  V30 22 1 21 23
M  V30 23 1 23 24
M  V30 24 2 24 25
M  V30 25 1 24 26
M  V30 26 1 26 27
M  V30 27 1 27 28
M  V30 28 1 27 29
M  V30 29 2 23 30
M  V30 30 1 17 2
M  V30 31 1 30 18
M  V30 32 1 14 9
M  V30 33 1 1 31
M  V30 34 1 1 32
M  V30 35 1 1 33
M  V30 36 1 3 34
M  V30 37 1 5 35
M  V30 38 1 8 36
M  V30 39 1 10 37
M  V30 40 1 11 38
M  V30 41 1 12 39
M  V30 42 1 13 40
M  V30 43 1 14 41
M  V30 44 1 15 42
M  V30 45 1 16 43
M  V30 46 1 19 44
M  V30 47 1 22 45
M  V30 48 1 22 46
M  V30 49 1 26 47
M  V30 50 1 27 48
M  V30 51 1 28 49
M  V30 52 1 28 50
M  V30 53 1 28 51
M  V30 54 1 29 52
M  V30 55 1 29 53
M  V30 56 1 29 54
M  V30 57 1 30 55
M  V30 END BOND
M  V30 END CTAB
M  END
>  <Dataset>  (938) 
ChEMBL_Kinases

>  <Ligand_Instance>  (938) 
nan

>  <PDB_ID>  (938) 
nan

>  <Standardized_SMILES>  (938) 
Cc1cc(NC(=O)Nc2ccccc2)ccc1-c1cnc(N)c(C(=O)NC(C)C)c1

>  <Name>  (938) 
nan

>  <Pocket>  (938) 
nan

>  <ATP_Site>  (938) 
nan

>  <Peripheral>  (938) 
nan

>  <Num_H_Atoms_ProtBoundConf>  (938) 
nan

>  <Num_Resolved_Atoms>  (938) 
nan

>  <Num_Not_Resolved_Atoms>  (938) 
nan

$$$$
CHEMBL4853270
     RDKit          3D

  0  0  0  0  0  0  0  0  0  0999 V3000
M  V30 BEGIN CTAB
M  V30 COUNTS 61 66 0 0 0
M  V30 BEGIN ATOM
M  V30 1 C 1.946906 -3.849734 3.760396 0
M  V30 2 N 3.264051 -3.384270 3.468294 0
M  V30 3 C 3.933708 -2.858692 4.641352 0
M  V30 4 C 4.133746 -4.362986 2.850603 0
M  V30 5 C 3.703702 -4.712126 1.445076 0
M  V30 6 N 3.736372 -3.470630 0.670759 0
M  V30 7 C 2.656786 -2.642458 0.547442 0
M  V30 8 C 3.085912 -1.577952 -0.254997 0
M  V30 9 C 2.176070 -0.489315 -0.604895 0
M  V30 10 C 1.172964 -0.083563 0.257973 0
M  V30 11 C 0.335458 0.943062 -0.122766 0
M  V30 12 C 0.502838 1.547459 -1.344927 0
M  V30 13 C -0.396915 2.557618 -1.582728 0
M  V30 14 C -1.532905 3.044741 -0.823262 0
M  V30 15 C -1.737142 4.353536 -0.447033 0
M  V30 16 N -2.930015 4.414888 0.211973 0
M  V30 17 C -3.474235 3.177920 0.255245 0
M  V30 18 C -4.673339 2.786914 0.813415 0
M  V30 19 C -5.022201 1.455792 0.717018 0
M  V30 20 C -4.180023 0.571212 0.078281 0
M  V30 21 C -4.457483 -0.871600 -0.077166 0
M  V30 22 C -5.656082 -1.442216 -0.460506 0
M  V30 23 C -5.719572 -2.815903 -0.548319 0
M  V30 24 F -6.899425 -3.345986 -0.924051 0
M  V30 25 C -4.685258 -3.673118 -0.285087 0
M  V30 26 C -3.492838 -3.084823 0.097458 0
M  V30 27 C -3.369787 -1.697989 0.203348 0
M  V30 28 F -2.130609 -1.301780 0.590089 0
M  V30 29 C -3.009310 1.072801 -0.440737 0
M  V30 30 N -2.606626 2.352948 -0.382853 0
M  V30 31 C -0.281184 3.235666 -2.803059 0
M  V30 32 C 0.728499 2.839044 -3.682848 0
M  V30 33 N 1.585253 1.840742 -3.406094 0
M  V30 34 C 1.485451 1.176243 -2.228009 0
M  V30 35 C 2.324086 0.148616 -1.847054 0
M  V30 36 C 4.411343 -1.789728 -0.594977 0
M  V30 37 N 4.740550 -2.970128 0.009101 0
M  V30 38 H 1.701127 -4.860917 3.437079 0
M  V30 39 H 1.785993 -3.821656 4.879042 0
M  V30 40 H 1.207115 -3.081594 3.386965 0
M  V30 41 H 4.354673 -1.860424 4.347976 0
M  V30 42 H 4.789366 -3.522388 4.961435 0
M  V30 43 H 3.263851 -2.788463 5.529713 0
M  V30 44 H 5.127043 -3.836598 2.746112 0
M  V30 45 H 4.256277 -5.265632 3.484579 0
M  V30 46 H 4.372688 -5.483002 1.059247 0
M  V30 47 H 2.669301 -5.120189 1.435358 0
M  V30 48 H 1.694701 -2.803323 0.986427 0
M  V30 49 H 1.036454 -0.563854 1.232083 0
M  V30 50 H -0.418466 1.229678 0.593822 0
M  V30 51 H -1.129539 5.237737 -0.596120 0
M  V30 52 H -5.311621 3.503522 1.305640 0
M  V30 53 H -5.938954 1.073538 1.125414 0
M  V30 54 H -6.454513 -0.747501 -0.661457 0
M  V30 55 H -4.779507 -4.745858 -0.366653 0
M  V30 56 H -2.668653 -3.773911 0.306180 0
M  V30 57 H -2.350139 0.382631 -0.948146 0
M  V30 58 H -0.884468 4.060361 -3.186093 0
M  V30 59 H 0.880920 3.314074 -4.642458 0
M  V30 60 H 3.105594 -0.161484 -2.527842 0
M  V30 61 H 4.994198 -1.119567 -1.209323 0
M  V30 END ATOM
M  V30 BEGIN BOND
M  V30 1 1 1 2
M  V30 2 1 2 3
M  V30 3 1 2 4
M  V30 4 1 4 5
M  V30 5 1 5 6
M  V30 6 1 6 7
M  V30 7 2 7 8
M  V30 8 1 8 9
M  V30 9 2 9 10
M  V30 10 1 10 11
M  V30 11 2 11 12
M  V30 12 1 12 13
M  V30 13 1 13 14
M  V30 14 2 14 15
M  V30 15 1 15 16
M  V30 16 2 16 17
M  V30 17 1 17 18
M  V30 18 2 18 19
M  V30 19 1 19 20
M  V30 20 1 20 21
M  V30 21 2 21 22
M  V30 22 1 22 23
M  V30 23 1 23 24
M  V30 24 2 23 25
M  V30 25 1 25 26
M  V30 26 2 26 27
M  V30 27 1 27 28
M  V30 28 2 20 29
M  V30 29 1 29 30
M  V30 30 2 13 31
M  V30 31 1 31 32
M  V30 32 2 32 33
M  V30 33 1 33 34
M  V30 34 2 34 35
M  V30 35 1 8 36
M  V30 36 2 36 37
M  V30 37 1 37 6
M  V30 38 1 35 9
M  V30 39 1 34 12
M  V30 40 1 30 14
M  V30 41 1 30 17
M  V30 42 1 27 21
M  V30 43 1 1 38
M  V30 44 1 1 39
M  V30 45 1 1 40
M  V30 46 1 3 41
M  V30 47 1 3 42
M  V30 48 1 3 43
M  V30 49 1 4 44
M  V30 50 1 4 45
M  V30 51 1 5 46
M  V30 52 1 5 47
M  V30 53 1 7 48
M  V30 54 1 10 49
M  V30 55 1 11 50
M  V30 56 1 15 51
M  V30 57 1 18 52
M  V30 58 1 19 53
M  V30 59 1 22 54
M  V30 60 1 25 55
M  V30 61 1 26 56
M  V30 62 1 29 57
M  V30 63 1 31 58
M  V30 64 1 32 59
M  V30 65 1 35 60
M  V30 66 1 36 61
M  V30 END BOND
M  V30 END CTAB
M  END
>  <Dataset>  (939) 
ChEMBL_Kinases

>  <Ligand_Instance>  (939) 
nan

>  <PDB_ID>  (939) 
nan

>  <Standardized_SMILES>  (939) 
CN(C)CCn1cc(-c2ccc3c(-c4cnc5ccc(-c6cc(F)ccc6F)cn45)ccnc3c2)cn1

>  <Name>  (939) 
nan

>  <Pocket>  (939) 
nan

>  <ATP_Site>  (939) 
nan

>  <Peripheral>  (939) 
nan

>  <Num_H_Atoms_ProtBoundConf>  (939) 
nan

>  <Num_Resolved_Atoms>  (939) 
nan

>  <Num_Not_Resolved_Atoms>  (939) 
nan

$$$$
CHEMBL4853285
     RDKit          3D

  0  0  0  0  0  0  0  0  0  0999 V3000
M  V30 BEGIN CTAB
M  V30 COUNTS 76 81 0 0 0
M  V30 BEGIN ATOM
M  V30 1 C 7.300960 -1.022388 3.567776 0
M  V30 2 C 6.439771 -1.862276 3.009549 0
M  V30 3 C 5.712876 -2.656695 1.985838 0
M  V30 4 N 4.301385 -2.355237 1.927013 0
M  V30 5 C 3.399236 -3.017279 2.710881 0
M  V30 6 O 3.656090 -3.915173 3.545768 0
M  V30 7 C 2.187816 -2.488151 2.383173 0
M  V30 8 C 0.889458 -2.707740 2.788862 0
M  V30 9 N -0.095354 -1.990413 2.233303 0
M  V30 10 C 0.047022 -1.052033 1.296557 0
M  V30 11 N -0.969052 -0.284427 0.676609 0
M  V30 12 C -2.359411 -0.361572 0.945645 0
M  V30 13 C -2.968023 -1.049827 1.973120 0
M  V30 14 C -4.334045 -1.102506 2.161337 0
M  V30 15 C -5.164429 -0.429992 1.273400 0
M  V30 16 N -6.560119 -0.600330 1.577969 0
M  V30 17 C -7.582725 0.395365 1.754019 0
M  V30 18 C -8.898672 0.034581 1.164734 0
M  V30 19 N -9.045153 -1.224453 0.561047 0
M  V30 20 C -9.599790 -1.303576 -0.741092 0
M  V30 21 C -8.256930 -2.307139 1.007955 0
M  V30 22 C -7.015834 -1.966086 1.751276 0
M  V30 23 C -4.598908 0.269989 0.234397 0
M  V30 24 C -5.544412 0.949871 -0.654729 0
M  V30 25 C -3.230926 0.295580 0.085980 0
M  V30 26 N 1.338003 -0.840382 0.901391 0
M  V30 27 C 2.358433 -1.524309 1.418949 0
M  V30 28 N 3.674531 -1.459025 1.152141 0
M  V30 29 C 4.409867 -0.645130 0.244450 0
M  V30 30 C 5.111968 0.338783 0.920535 0
M  V30 31 C 5.911435 1.254858 0.229609 0
M  V30 32 C 5.965084 1.127915 -1.162614 0
M  V30 33 C 5.249280 0.135161 -1.779269 0
M  V30 34 N 4.485366 -0.736353 -1.094923 0
M  V30 35 C 5.482203 0.225480 -3.234556 0 CFG=1
M  V30 36 O 6.150519 -0.955580 -3.595382 0
M  V30 37 C 4.139893 0.288219 -3.940875 0
M  V30 38 C 3.370012 -0.955949 -3.612977 0
M  V30 39 C 6.306092 1.439235 -3.471886 0
M  V30 40 C 6.715218 1.931417 -2.118781 0
M  V30 41 H 8.105866 -0.349994 3.353150 0
M  V30 42 H 8.086956 -0.390460 3.102630 0
M  V30 43 H 6.197363 -1.916614 4.041811 0
M  V30 44 H 6.196831 -2.564491 0.979642 0
M  V30 45 H 5.857803 -3.733765 2.251503 0
M  V30 46 H 0.708886 -3.451037 3.540699 0
M  V30 47 H -0.669634 0.410195 -0.048419 0
M  V30 48 H -2.344646 -1.569955 2.666905 0
M  V30 49 H -4.709334 -1.685950 3.018953 0
M  V30 50 H -7.260262 1.409006 1.425383 0
M  V30 51 H -7.721564 0.512520 2.870292 0
M  V30 52 H -9.733885 0.147595 1.921634 0
M  V30 53 H -9.176544 0.812145 0.389498 0
M  V30 54 H -9.649175 -2.399871 -1.011625 0
M  V30 55 H -9.026852 -0.830096 -1.552749 0
M  V30 56 H -10.666973 -1.003068 -0.702730 0
M  V30 57 H -7.997943 -2.974416 0.132922 0
M  V30 58 H -8.886503 -2.968175 1.674364 0
M  V30 59 H -6.200203 -2.672276 1.454342 0
M  V30 60 H -7.168603 -2.101814 2.864392 0
M  V30 61 H -6.513849 0.424203 -0.753134 0
M  V30 62 H -5.120577 0.990084 -1.691915 0
M  V30 63 H -5.687891 2.002340 -0.342610 0
M  V30 64 H -2.841132 0.873589 -0.766185 0
M  V30 65 H 5.122261 0.505745 1.995219 0
M  V30 66 H 6.469494 2.028625 0.723188 0
M  V30 67 H 5.979306 -1.118815 -4.551711 0
M  V30 68 H 4.349533 0.389440 -5.038271 0
M  V30 69 H 3.561539 1.176644 -3.625400 0
M  V30 70 H 2.729459 -1.274583 -4.479777 0
M  V30 71 H 3.977205 -1.824341 -3.335602 0
M  V30 72 H 2.659898 -0.794107 -2.767233 0
M  V30 73 H 7.174366 1.147603 -4.106512 0
M  V30 74 H 5.689576 2.206978 -4.008537 0
M  V30 75 H 7.815652 1.708561 -2.019567 0
M  V30 76 H 6.547441 3.026290 -1.993294 0
M  V30 END ATOM
M  V30 BEGIN BOND
M  V30 1 2 1 2
M  V30 2 1 2 3
M  V30 3 1 3 4
M  V30 4 1 4 5
M  V30 5 2 5 6
M  V30 6 1 5 7
M  V30 7 2 7 8
M  V30 8 1 8 9
M  V30 9 2 9 10
M  V30 10 1 10 11
M  V30 11 1 11 12
M  V30 12 2 12 13
M  V30 13 1 13 14
M  V30 14 2 14 15
M  V30 15 1 15 16
M  V30 16 1 16 17
M  V30 17 1 17 18
M  V30 18 1 18 19
M  V30 19 1 19 20
M  V30 20 1 19 21
M  V30 21 1 21 22
M  V30 22 1 15 23
M  V30 23 1 23 24
M  V30 24 2 23 25
M  V30 25 1 10 26
M  V30 26 2 26 27
M  V30 27 1 27 28
M  V30 28 1 28 29
M  V30 29 2 29 30
M  V30 30 1 30 31
M  V30 31 2 31 32
M  V30 32 1 32 33
M  V30 33 2 33 34
M  V30 34 1 33 35
M  V30 35 1 35 36 CFG=3
M  V30 36 1 35 37
M  V30 37 1 37 38
M  V30 38 1 35 39
M  V30 39 1 39 40
M  V30 40 1 28 4
M  V30 41 1 34 29
M  V30 42 1 27 7
M  V30 43 1 40 32
M  V30 44 1 25 12
M  V30 45 1 22 16
M  V30 46 1 1 41
M  V30 47 1 1 42
M  V30 48 1 2 43
M  V30 49 1 3 44
M  V30 50 1 3 45
M  V30 51 1 8 46
M  V30 52 1 11 47
M  V30 53 1 13 48
M  V30 54 1 14 49
M  V30 55 1 17 50
M  V30 56 1 17 51
M  V30 57 1 18 52
M  V30 58 1 18 53
M  V30 59 1 20 54
M  V30 60 1 20 55
M  V30 61 1 20 56
M  V30 62 1 21 57
M  V30 63 1 21 58
M  V30 64 1 22 59
M  V30 65 1 22 60
M  V30 66 1 24 61
M  V30 67 1 24 62
M  V30 68 1 24 63
M  V30 69 1 25 64
M  V30 70 1 30 65
M  V30 71 1 31 66
M  V30 72 1 36 67
M  V30 73 1 37 68
M  V30 74 1 37 69
M  V30 75 1 38 70
M  V30 76 1 38 71
M  V30 77 1 38 72
M  V30 78 1 39 73
M  V30 79 1 39 74
M  V30 80 1 40 75
M  V30 81 1 40 76
M  V30 END BOND
M  V30 END CTAB
M  END
>  <Dataset>  (940) 
ChEMBL_Kinases

>  <Ligand_Instance>  (940) 
nan

>  <PDB_ID>  (940) 
nan

>  <Standardized_SMILES>  (940) 
C=CCn1c(=O)c2cnc(Nc3ccc(N4CCN(C)CC4)c(C)c3)nc2n1-c1ccc2c(n1)[C@@](O)(CC)CC2

>  <Name>  (940) 
nan

>  <Pocket>  (940) 
nan

>  <ATP_Site>  (940) 
nan

>  <Peripheral>  (940) 
nan

>  <Num_H_Atoms_ProtBoundConf>  (940) 
nan

>  <Num_Resolved_Atoms>  (940) 
nan

>  <Num_Not_Resolved_Atoms>  (940) 
nan

$$$$
CHEMBL4853433
     RDKit          3D

  0  0  0  0  0  0  0  0  0  0999 V3000
M  V30 BEGIN CTAB
M  V30 COUNTS 82 87 0 0 0
M  V30 BEGIN ATOM
M  V30 1 C 3.512351 -2.249629 7.357604 0
M  V30 2 C 2.986217 -0.856588 7.661379 0
M  V30 3 C 2.480353 -0.320282 6.371282 0
M  V30 4 O 2.554118 -1.056793 5.340938 0
M  V30 5 N 1.923779 0.988615 6.280523 0
M  V30 6 C 1.433462 1.504015 5.012801 0 CFG=1
M  V30 7 C -0.043125 1.774516 5.146841 0
M  V30 8 C -0.663269 2.251096 3.852517 0
M  V30 9 C 0.418945 2.784942 2.970215 0 CFG=1
M  V30 10 N -0.022422 3.403216 1.761342 0
M  V30 11 C -0.207548 4.738351 1.686524 0
M  V30 12 O -0.010595 5.495619 2.669156 0
M  V30 13 C -0.628880 5.371724 0.519291 0
M  V30 14 C -0.877614 4.621425 -0.637481 0
M  V30 15 C -1.271108 5.376786 -1.837192 0
M  V30 16 C -0.356922 6.361820 -2.497120 0
M  V30 17 C -0.428247 5.021977 -3.101599 0
M  V30 18 C -0.668896 3.270169 -0.483456 0
M  V30 19 C -0.917842 2.502087 -1.595542 0
M  V30 20 N -0.738669 1.179516 -1.498023 0
M  V30 21 C -0.336454 0.524509 -0.408190 0
M  V30 22 N -0.137263 -0.874249 -0.284795 0
M  V30 23 C -0.255175 -1.854584 -1.285353 0
M  V30 24 C -0.542638 -1.642167 -2.615025 0
M  V30 25 C -0.646197 -2.613103 -3.594990 0
M  V30 26 C -0.446779 -3.924759 -3.225685 0
M  V30 27 N -0.532096 -4.948629 -4.201191 0
M  V30 28 C -0.566961 -4.748450 -5.637323 0
M  V30 29 C -2.020411 -4.819014 -6.064735 0
M  V30 30 N -2.641639 -5.850553 -5.257017 0
M  V30 31 C -3.646255 -6.516787 -6.102908 0
M  V30 32 C -1.697767 -6.898182 -4.877516 0
M  V30 33 C -0.612108 -6.382894 -3.942926 0
M  V30 34 C -0.157509 -4.193647 -1.912398 0
M  V30 35 C -0.060128 -3.204841 -0.957808 0
M  V30 36 O 0.235122 -3.553666 0.340000 0
M  V30 37 C 0.437894 -4.879566 0.718120 0
M  V30 38 N -0.110474 1.318730 0.643569 0
M  V30 39 C -0.253146 2.646400 0.668539 0
M  V30 40 C 1.301839 3.688657 3.806391 0
M  V30 41 C 2.190388 2.771411 4.620838 0
M  V30 42 H 4.204504 -2.624555 8.136859 0
M  V30 43 H 2.634744 -2.903954 7.188808 0
M  V30 44 H 4.010185 -2.175548 6.347138 0
M  V30 45 H 2.130640 -1.001183 8.380411 0
M  V30 46 H 3.799350 -0.238880 8.097128 0
M  V30 47 H 1.851347 1.615837 7.120868 0
M  V30 48 H 1.554555 0.717826 4.232787 0
M  V30 49 H -0.518429 0.831661 5.464917 0
M  V30 50 H -0.211349 2.506200 5.981180 0
M  V30 51 H -1.208308 1.451423 3.308330 0
M  V30 52 H -1.381576 3.094298 4.070889 0
M  V30 53 H 1.080853 1.926863 2.647088 0
M  V30 54 H -0.763457 6.446267 0.503112 0
M  V30 55 H -2.355408 5.522699 -2.038145 0
M  V30 56 H 0.569659 6.692472 -1.974655 0
M  V30 57 H -0.810679 7.171580 -3.094338 0
M  V30 58 H 0.494181 4.395688 -2.909127 0
M  V30 59 H -0.975233 4.787859 -4.019251 0
M  V30 60 H -1.263541 2.873166 -2.544969 0
M  V30 61 H 0.133703 -1.221007 0.681567 0
M  V30 62 H -0.706791 -0.645063 -2.948098 0
M  V30 63 H -0.880509 -2.334935 -4.625087 0
M  V30 64 H -0.193554 -3.730739 -5.923179 0
M  V30 65 H 0.060303 -5.470459 -6.204118 0
M  V30 66 H -2.449805 -3.808319 -5.910752 0
M  V30 67 H -2.044594 -5.038049 -7.156730 0
M  V30 68 H -3.659948 -7.614561 -5.892386 0
M  V30 69 H -4.676995 -6.108578 -5.898888 0
M  V30 70 H -3.430671 -6.308980 -7.166582 0
M  V30 71 H -1.238637 -7.335970 -5.808683 0
M  V30 72 H -2.218634 -7.715299 -4.379562 0
M  V30 73 H -0.901259 -6.640185 -2.924083 0
M  V30 74 H 0.334602 -6.891413 -4.265513 0
M  V30 75 H 0.005357 -5.233621 -1.600068 0
M  V30 76 H 0.600604 -4.947094 1.832353 0
M  V30 77 H -0.447895 -5.502124 0.432797 0
M  V30 78 H 1.357152 -5.263680 0.233833 0
M  V30 79 H 0.654236 4.235788 4.528791 0
M  V30 80 H 1.946440 4.337389 3.207923 0
M  V30 81 H 3.000491 2.422179 3.938088 0
M  V30 82 H 2.631655 3.258639 5.513469 0
M  V30 END ATOM
M  V30 BEGIN BOND
M  V30 1 1 1 2
M  V30 2 1 2 3
M  V30 3 2 3 4
M  V30 4 1 3 5
M  V30 5 1 5 6
M  V30 6 1 6 7
M  V30 7 1 7 8
M  V30 8 1 8 9
M  V30 9 1 9 10
M  V30 10 1 10 11
M  V30 11 2 11 12
M  V30 12 1 11 13
M  V30 13 2 13 14
M  V30 14 1 14 15
M  V30 15 1 15 16
M  V30 16 1 16 17
M  V30 17 1 14 18
M  V30 18 2 18 19
M  V30 19 1 19 20
M  V30 20 2 20 21
M  V30 21 1 21 22
M  V30 22 1 22 23
M  V30 23 2 23 24
M  V30 24 1 24 25
M  V30 25 2 25 26
M  V30 26 1 26 27
M  V30 27 1 27 28
M  V30 28 1 28 29
M  V30 29 1 29 30
M  V30 30 1 30 31
M  V30 31 1 30 32
M  V30 32 1 32 33
M  V30 33 1 26 34
M  V30 34 2 34 35
M  V30 35 1 35 36
M  V30 36 1 36 37
M  V30 37 1 21 38
M  V30 38 2 38 39
M  V30 39 1 9 40
M  V30 40 1 40 41
M  V30 41 1 41 6
M  V30 42 1 39 10
M  V30 43 1 17 15
M  V30 44 1 39 18
M  V30 45 1 35 23
M  V30 46 1 33 27
M  V30 47 1 1 42
M  V30 48 1 1 43
M  V30 49 1 1 44
M  V30 50 1 2 45
M  V30 51 1 2 46
M  V30 52 1 5 47
M  V30 53 1 6 48 CFG=3
M  V30 54 1 7 49
M  V30 55 1 7 50
M  V30 56 1 8 51
M  V30 57 1 8 52
M  V30 58 1 9 53 CFG=3
M  V30 59 1 13 54
M  V30 60 1 15 55
M  V30 61 1 16 56
M  V30 62 1 16 57
M  V30 63 1 17 58
M  V30 64 1 17 59
M  V30 65 1 19 60
M  V30 66 1 22 61
M  V30 67 1 24 62
M  V30 68 1 25 63
M  V30 69 1 28 64
M  V30 70 1 28 65
M  V30 71 1 29 66
M  V30 72 1 29 67
M  V30 73 1 31 68
M  V30 74 1 31 69
M  V30 75 1 31 70
M  V30 76 1 32 71
M  V30 77 1 32 72
M  V30 78 1 33 73
M  V30 79 1 33 74
M  V30 80 1 34 75
M  V30 81 1 37 76
M  V30 82 1 37 77
M  V30 83 1 37 78
M  V30 84 1 40 79
M  V30 85 1 40 80
M  V30 86 1 41 81
M  V30 87 1 41 82
M  V30 END BOND
M  V30 END CTAB
M  END
>  <Dataset>  (941) 
ChEMBL_Kinases

>  <Ligand_Instance>  (941) 
nan

>  <PDB_ID>  (941) 
nan

>  <Standardized_SMILES>  (941) 
CCC(=O)N[C@H]1CC[C@@H](n2c(=O)cc(C3CC3)c3cnc(Nc4ccc(N5CCN(C)CC5)cc4OC)nc32)CC1

>  <Name>  (941) 
nan

>  <Pocket>  (941) 
nan

>  <ATP_Site>  (941) 
nan

>  <Peripheral>  (941) 
nan

>  <Num_H_Atoms_ProtBoundConf>  (941) 
nan

>  <Num_Resolved_Atoms>  (941) 
nan

>  <Num_Not_Resolved_Atoms>  (941) 
nan

$$$$
CHEMBL4853444
     RDKit          3D

  0  0  0  0  0  0  0  0  0  0999 V3000
M  V30 BEGIN CTAB
M  V30 COUNTS 37 40 0 0 0
M  V30 BEGIN ATOM
M  V30 1 C -0.761846 -2.648971 3.411187 0
M  V30 2 C 0.523313 -3.264584 2.901953 0 CFG=1
M  V30 3 C 0.266321 -4.424252 1.979270 0
M  V30 4 C 1.106108 -4.075697 0.767112 0
M  V30 5 N 0.937341 -2.631267 0.747185 0
M  V30 6 C 0.569324 -1.868256 -0.397579 0
M  V30 7 N 0.361067 -2.533129 -1.548685 0
M  V30 8 C 0.007114 -1.882552 -2.687927 0
M  V30 9 C -0.123572 -0.495013 -2.582018 0
M  V30 10 C 0.084519 0.209569 -1.413383 0
M  V30 11 C -0.066378 1.660618 -1.360735 0
M  V30 12 C -0.418902 2.475423 -2.417575 0
M  V30 13 N -0.433621 3.721432 -1.906666 0
M  V30 14 N -0.111857 3.673517 -0.623413 0
M  V30 15 N -0.017243 4.700244 0.230488 0
M  V30 16 C 0.327565 4.420203 1.500828 0
M  V30 17 C 0.595050 3.164741 2.010885 0
M  V30 18 C 0.486051 2.135242 1.097387 0
M  V30 19 C 0.134405 2.395549 -0.209727 0
M  V30 20 N 0.435658 -0.538389 -0.330253 0
M  V30 21 C 1.218724 -2.181529 2.099424 0
M  V30 22 H -1.492453 -3.429731 3.720258 0
M  V30 23 H -1.175562 -1.943260 2.657315 0
M  V30 24 H -0.516433 -2.058047 4.303337 0
M  V30 25 H 1.111593 -3.572728 3.792900 0
M  V30 26 H -0.817077 -4.494959 1.694254 0
M  V30 27 H 0.555977 -5.396798 2.422169 0
M  V30 28 H 2.159847 -4.314187 1.007029 0
M  V30 29 H 0.760384 -4.566190 -0.162604 0
M  V30 30 H -0.170635 -2.377690 -3.637186 0
M  V30 31 H -0.401794 0.076233 -3.450016 0
M  V30 32 H -0.642299 2.204702 -3.447689 0
M  V30 33 H 0.412750 5.245764 2.224368 0
M  V30 34 H 0.866998 3.019539 3.047482 0
M  V30 35 H 0.672791 1.128865 1.394010 0
M  V30 36 H 0.850087 -1.164311 2.316165 0
M  V30 37 H 2.304329 -2.326525 2.293423 0
M  V30 END ATOM
M  V30 BEGIN BOND
M  V30 1 1 1 2
M  V30 2 1 2 3
M  V30 3 1 3 4
M  V30 4 1 4 5
M  V30 5 1 5 6
M  V30 6 2 6 7
M  V30 7 1 7 8
M  V30 8 2 8 9
M  V30 9 1 9 10
M  V30 10 1 10 11
M  V30 11 1 11 12
M  V30 12 2 12 13
M  V30 13 1 13 14
M  V30 14 1 14 15
M  V30 15 2 15 16
M  V30 16 1 16 17
M  V30 17 2 17 18
M  V30 18 1 18 19
M  V30 19 2 10 20
M  V30 20 1 5 21
M  V30 21 1 21 2
M  V30 22 1 20 6
M  V30 23 2 19 11
M  V30 24 1 19 14
M  V30 25 1 1 22
M  V30 26 1 1 23
M  V30 27 1 1 24
M  V30 28 1 2 25 CFG=1
M  V30 29 1 3 26
M  V30 30 1 3 27
M  V30 31 1 4 28
M  V30 32 1 4 29
M  V30 33 1 8 30
M  V30 34 1 9 31
M  V30 35 1 12 32
M  V30 36 1 16 33
M  V30 37 1 17 34
M  V30 38 1 18 35
M  V30 39 1 21 36
M  V30 40 1 21 37
M  V30 END BOND
M  V30 END CTAB
M  END
>  <Dataset>  (942) 
ChEMBL_Kinases

>  <Ligand_Instance>  (942) 
nan

>  <PDB_ID>  (942) 
nan

>  <Standardized_SMILES>  (942) 
C[C@H]1CCN(c2nccc(-c3cnn4ncccc34)n2)C1

>  <Name>  (942) 
nan

>  <Pocket>  (942) 
nan

>  <ATP_Site>  (942) 
nan

>  <Peripheral>  (942) 
nan

>  <Num_H_Atoms_ProtBoundConf>  (942) 
nan

>  <Num_Resolved_Atoms>  (942) 
nan

>  <Num_Not_Resolved_Atoms>  (942) 
nan

$$$$
CHEMBL4853505
     RDKit          3D

  0  0  0  0  0  0  0  0  0  0999 V3000
M  V30 BEGIN CTAB
M  V30 COUNTS 46 48 0 0 0
M  V30 BEGIN ATOM
M  V30 1 C 3.779641 -2.454839 3.592749 0
M  V30 2 O 3.377084 -1.444228 2.721305 0
M  V30 3 C 4.208666 -0.633433 1.967371 0
M  V30 4 N 5.521640 -0.849954 2.095867 0
M  V30 5 C 6.401311 -0.117548 1.408727 0
M  V30 6 C 5.874568 0.851059 0.580186 0
M  V30 7 C 6.813744 1.690901 -0.204453 0
M  V30 8 C 4.518836 1.066841 0.454368 0
M  V30 9 C 3.612252 0.308556 1.165589 0
M  V30 10 C 2.199007 0.578422 0.994845 0
M  V30 11 O 1.841355 1.497327 0.202082 0
M  V30 12 N 1.079120 -0.041987 1.594684 0
M  V30 13 C -0.241758 0.390147 1.276561 0
M  V30 14 C -0.805819 1.404175 2.055138 0
M  V30 15 C -2.104184 1.817378 1.729693 0
M  V30 16 C -2.797605 1.241009 0.677230 0
M  V30 17 C -2.203858 0.240086 -0.069042 0
M  V30 18 C -2.937126 -0.365299 -1.177485 0
M  V30 19 N -2.821367 -0.182034 -2.515872 0
M  V30 20 N -3.687804 -0.936393 -3.151713 0
M  V30 21 C -4.350022 -1.596428 -2.197141 0
M  V30 22 N -3.910058 -1.266635 -0.955210 0
M  V30 23 C -4.433755 -1.815108 0.257093 0 CFG=1
M  V30 24 C -5.866355 -2.304486 0.006272 0
M  V30 25 C -3.669717 -3.090442 0.635146 0
M  V30 26 F -3.768350 -4.041677 -0.331890 0
M  V30 27 F -2.338963 -2.838581 0.880192 0
M  V30 28 F -4.237513 -3.623176 1.787240 0
M  V30 29 N -0.955745 -0.131874 0.271636 0
M  V30 30 H 3.669822 -3.473329 3.178444 0
M  V30 31 H 3.089533 -2.413564 4.481259 0
M  V30 32 H 4.809152 -2.351038 3.953880 0
M  V30 33 H 7.470556 -0.250161 1.474853 0
M  V30 34 H 6.297105 2.395761 -0.868286 0
M  V30 35 H 7.495896 2.194244 0.527071 0
M  V30 36 H 7.495358 1.069102 -0.836019 0
M  V30 37 H 4.179056 1.849869 -0.219527 0
M  V30 38 H 1.254810 -0.799684 2.254040 0
M  V30 39 H -0.285112 1.861930 2.872953 0
M  V30 40 H -2.567565 2.602613 2.316609 0
M  V30 41 H -3.810307 1.581340 0.443290 0
M  V30 42 H -5.140116 -2.303654 -2.443366 0
M  V30 43 H -4.507257 -1.125018 1.095640 0
M  V30 44 H -6.361695 -2.485120 0.981598 0
M  V30 45 H -5.885735 -3.257168 -0.555991 0
M  V30 46 H -6.412431 -1.494369 -0.519714 0
M  V30 END ATOM
M  V30 BEGIN BOND
M  V30 1 1 1 2
M  V30 2 1 2 3
M  V30 3 2 3 4
M  V30 4 1 4 5
M  V30 5 2 5 6
M  V30 6 1 6 7
M  V30 7 1 6 8
M  V30 8 2 8 9
M  V30 9 1 9 10
M  V30 10 2 10 11
M  V30 11 1 10 12
M  V30 12 1 12 13
M  V30 13 2 13 14
M  V30 14 1 14 15
M  V30 15 2 15 16
M  V30 16 1 16 17
M  V30 17 1 17 18
M  V30 18 2 18 19
M  V30 19 1 19 20
M  V30 20 2 20 21
M  V30 21 1 21 22
M  V30 22 1 22 23
M  V30 23 1 23 24
M  V30 24 1 23 25
M  V30 25 1 25 26
M  V30 26 1 25 27
M  V30 27 1 25 28
M  V30 28 2 17 29
M  V30 29 1 9 3
M  V30 30 1 29 13
M  V30 31 1 22 18
M  V30 32 1 1 30
M  V30 33 1 1 31
M  V30 34 1 1 32
M  V30 35 1 5 33
M  V30 36 1 7 34
M  V30 37 1 7 35
M  V30 38 1 7 36
M  V30 39 1 8 37
M  V30 40 1 12 38
M  V30 41 1 14 39
M  V30 42 1 15 40
M  V30 43 1 16 41
M  V30 44 1 21 42
M  V30 45 1 23 43 CFG=1
M  V30 46 1 24 44
M  V30 47 1 24 45
M  V30 48 1 24 46
M  V30 END BOND
M  V30 END CTAB
M  END
>  <Dataset>  (943) 
ChEMBL_Kinases

>  <Ligand_Instance>  (943) 
nan

>  <PDB_ID>  (943) 
nan

>  <Standardized_SMILES>  (943) 
COc1ncc(C)cc1C(=O)Nc1cccc(-c2nncn2[C@@H](C)C(F)(F)F)n1

>  <Name>  (943) 
nan

>  <Pocket>  (943) 
nan

>  <ATP_Site>  (943) 
nan

>  <Peripheral>  (943) 
nan

>  <Num_H_Atoms_ProtBoundConf>  (943) 
nan

>  <Num_Resolved_Atoms>  (943) 
nan

>  <Num_Not_Resolved_Atoms>  (943) 
nan

$$$$
CHEMBL4853525
     RDKit          3D

  0  0  0  0  0  0  0  0  0  0999 V3000
M  V30 BEGIN CTAB
M  V30 COUNTS 52 54 0 0 0
M  V30 BEGIN ATOM
M  V30 1 N 1.883005 -5.209077 2.821752 0
M  V30 2 C 1.146124 -4.302294 2.022113 0
M  V30 3 O 0.369335 -5.244113 1.760766 0
M  V30 4 C 1.450306 -2.895892 1.806454 0
M  V30 5 C 2.577558 -2.481775 2.479152 0
M  V30 6 N 2.889480 -1.193880 2.305799 0
M  V30 7 C 2.147206 -0.368305 1.526317 0
M  V30 8 N 2.585042 0.992544 1.405418 0
M  V30 9 C 1.978334 2.045575 0.642333 0 CFG=1
M  V30 10 C 1.874135 1.705820 -0.846423 0
M  V30 11 C 0.901688 2.694789 -1.457710 0
M  V30 12 C 0.887221 4.025522 -0.758854 0 CFG=2
M  V30 13 O 2.112502 4.645982 -0.792791 0
M  V30 14 C 0.361485 3.859699 0.658847 0
M  V30 15 C 0.594071 2.410973 1.092597 0
M  V30 16 N 1.059079 -0.841621 0.900090 0
M  V30 17 C 0.663555 -2.110362 1.007990 0
M  V30 18 N -0.466389 -2.664602 0.356388 0
M  V30 19 C -1.383089 -1.959020 -0.478355 0 CFG=2
M  V30 20 C -2.105702 -0.916160 0.380378 0
M  V30 21 C -2.790014 -1.573729 1.519337 0
M  V30 22 C -3.192189 -2.982123 1.377029 0
M  V30 23 C -3.129950 -3.594377 0.038261 0 CFG=2
M  V30 24 O -2.619032 -4.916364 0.069346 0
M  V30 25 C -2.492253 -2.805422 -1.047946 0
M  V30 26 H 1.864258 -5.513271 3.838610 0
M  V30 27 H 2.689463 -5.878732 2.676561 0
M  V30 28 H 3.192061 -3.097356 3.103643 0
M  V30 29 H 3.466549 1.255473 1.946738 0
M  V30 30 H 2.599694 2.967328 0.755149 0
M  V30 31 H 1.425379 0.690693 -0.939308 0
M  V30 32 H 2.862446 1.777560 -1.302022 0
M  V30 33 H 1.229604 2.836506 -2.510911 0
M  V30 34 H -0.131714 2.296544 -1.474073 0
M  V30 35 H 0.179060 4.670704 -1.329104 0
M  V30 36 H 2.627371 4.424929 -1.591343 0
M  V30 37 H 0.839164 4.551714 1.371471 0
M  V30 38 H -0.736630 4.017514 0.649994 0
M  V30 39 H 0.395924 2.274184 2.155656 0
M  V30 40 H -0.129704 1.799508 0.501922 0
M  V30 41 H -0.689225 -3.671407 0.464201 0
M  V30 42 H -0.852003 -1.398835 -1.289481 0
M  V30 43 H -2.873406 -0.416010 -0.263327 0
M  V30 44 H -1.420779 -0.157320 0.745748 0
M  V30 45 H -3.721181 -0.970652 1.741384 0
M  V30 46 H -2.180156 -1.391315 2.454741 0
M  V30 47 H -4.191675 -3.169916 1.871622 0
M  V30 48 H -2.496624 -3.583535 2.037338 0
M  V30 49 H -4.197727 -3.779614 -0.294363 0
M  V30 50 H -2.281056 -5.133558 -0.818243 0
M  V30 51 H -3.270460 -2.114515 -1.479790 0
M  V30 52 H -2.135800 -3.504950 -1.827410 0
M  V30 END ATOM
M  V30 BEGIN BOND
M  V30 1 1 1 2
M  V30 2 2 2 3
M  V30 3 1 2 4
M  V30 4 2 4 5
M  V30 5 1 5 6
M  V30 6 2 6 7
M  V30 7 1 7 8
M  V30 8 1 8 9
M  V30 9 1 9 10
M  V30 10 1 10 11
M  V30 11 1 11 12
M  V30 12 1 12 13
M  V30 13 1 12 14
M  V30 14 1 14 15
M  V30 15 1 7 16
M  V30 16 2 16 17
M  V30 17 1 17 18
M  V30 18 1 18 19
M  V30 19 1 19 20
M  V30 20 1 20 21
M  V30 21 1 21 22
M  V30 22 1 22 23
M  V30 23 1 23 24
M  V30 24 1 23 25
M  V30 25 1 17 4
M  V30 26 1 25 19
M  V30 27 1 15 9
M  V30 28 1 1 26
M  V30 29 1 1 27
M  V30 30 1 5 28
M  V30 31 1 8 29
M  V30 32 1 9 30 CFG=3
M  V30 33 1 10 31
M  V30 34 1 10 32
M  V30 35 1 11 33
M  V30 36 1 11 34
M  V30 37 1 12 35 CFG=3
M  V30 38 1 13 36
M  V30 39 1 14 37
M  V30 40 1 14 38
M  V30 41 1 15 39
M  V30 42 1 15 40
M  V30 43 1 18 41
M  V30 44 1 19 42 CFG=3
M  V30 45 1 20 43
M  V30 46 1 20 44
M  V30 47 1 21 45
M  V30 48 1 21 46
M  V30 49 1 22 47
M  V30 50 1 22 48
M  V30 51 1 23 49 CFG=3
M  V30 52 1 24 50
M  V30 53 1 25 51
M  V30 54 1 25 52
M  V30 END BOND
M  V30 END CTAB
M  END
>  <Dataset>  (944) 
ChEMBL_Kinases

>  <Ligand_Instance>  (944) 
nan

>  <PDB_ID>  (944) 
nan

>  <Standardized_SMILES>  (944) 
NC(=O)c1cnc(N[C@H]2CC[C@H](O)CC2)nc1N[C@@H]1CCC[C@H](O)C1

>  <Name>  (944) 
nan

>  <Pocket>  (944) 
nan

>  <ATP_Site>  (944) 
nan

>  <Peripheral>  (944) 
nan

>  <Num_H_Atoms_ProtBoundConf>  (944) 
nan

>  <Num_Resolved_Atoms>  (944) 
nan

>  <Num_Not_Resolved_Atoms>  (944) 
nan

$$$$
CHEMBL4853562
     RDKit          3D

  0  0  0  0  0  0  0  0  0  0999 V3000
M  V30 BEGIN CTAB
M  V30 COUNTS 53 57 0 0 0
M  V30 BEGIN ATOM
M  V30 1 O -4.917708 -2.339085 2.264075 0
M  V30 2 C -4.006310 -2.461043 1.431820 0
M  V30 3 C -2.959223 -1.530877 0.947659 0
M  V30 4 C -3.099234 -1.250856 -0.415108 0
M  V30 5 C -2.189378 -0.401172 -1.004714 0
M  V30 6 C -1.143932 0.194256 -0.336277 0
M  V30 7 C -0.144811 1.079199 -0.918292 0
M  V30 8 C -0.227318 1.334669 -2.282916 0
M  V30 9 C 0.701574 2.153436 -2.900894 0
M  V30 10 C 1.736447 2.748654 -2.215618 0
M  V30 11 N 2.684987 3.543965 -2.652785 0
M  V30 12 C 3.631316 4.058385 -1.872522 0
M  V30 13 N 3.638350 3.755502 -0.537708 0
M  V30 14 C 2.685966 2.935140 -0.012856 0
M  V30 15 N 2.932535 2.811309 1.374047 0
M  V30 16 C 3.841772 2.101290 2.200432 0
M  V30 17 C 4.760057 1.234115 1.656215 0
M  V30 18 C 5.620559 0.604739 2.541280 0
M  V30 19 C 5.546137 0.848554 3.909123 0
M  V30 20 C 4.604315 1.726498 4.386742 0
M  V30 21 C 3.733172 2.370877 3.545352 0
M  V30 22 C 1.725910 2.425607 -0.851508 0
M  V30 23 N 0.851926 1.638350 -0.199105 0
M  V30 24 C -1.050220 -0.112731 1.002712 0
M  V30 25 C -1.918683 -0.950372 1.660666 0
M  V30 26 N -3.905353 -3.754753 0.778051 0
M  V30 27 C -4.910958 -4.702481 1.210984 0
M  V30 28 C -4.243078 -6.000727 1.529043 0
M  V30 29 N -3.303591 -6.464028 0.565357 0
M  V30 30 C -2.362795 -5.481830 0.131250 0
M  V30 31 C -2.938004 -4.156697 -0.227368 0
M  V30 32 H -3.896592 -1.669251 -1.047494 0
M  V30 33 H -2.298618 -0.184713 -2.056289 0
M  V30 34 H -0.960181 0.960450 -2.979755 0
M  V30 35 H 0.677403 2.382671 -3.961779 0
M  V30 36 H 4.357321 4.703954 -2.346400 0
M  V30 37 H 2.181527 3.452058 1.703447 0
M  V30 38 H 4.813303 1.045217 0.577594 0
M  V30 39 H 6.385766 -0.103260 2.188867 0
M  V30 40 H 6.229032 0.349109 4.603083 0
M  V30 41 H 4.537369 1.924980 5.463808 0
M  V30 42 H 3.004029 3.057251 3.982045 0
M  V30 43 H -0.260852 0.315477 1.596883 0
M  V30 44 H -1.913809 -1.237316 2.697349 0
M  V30 45 H -5.688277 -4.817117 0.420770 0
M  V30 46 H -5.434966 -4.338139 2.110147 0
M  V30 47 H -3.796822 -5.984017 2.521705 0
M  V30 48 H -5.073284 -6.768197 1.568975 0
M  V30 49 H -3.673767 -7.104406 -0.140422 0
M  V30 50 H -1.884465 -5.898973 -0.803341 0
M  V30 51 H -1.485897 -5.339144 0.813074 0
M  V30 52 H -3.501676 -4.277431 -1.194166 0
M  V30 53 H -2.104908 -3.441075 -0.357634 0
M  V30 END ATOM
M  V30 BEGIN BOND
M  V30 1 2 1 2
M  V30 2 1 2 3
M  V30 3 2 3 4
M  V30 4 1 4 5
M  V30 5 2 5 6
M  V30 6 1 6 7
M  V30 7 2 7 8
M  V30 8 1 8 9
M  V30 9 2 9 10
M  V30 10 1 10 11
M  V30 11 2 11 12
M  V30 12 1 12 13
M  V30 13 2 13 14
M  V30 14 1 14 15
M  V30 15 1 15 16
M  V30 16 2 16 17
M  V30 17 1 17 18
M  V30 18 2 18 19
M  V30 19 1 19 20
M  V30 20 2 20 21
M  V30 21 1 14 22
M  V30 22 2 22 23
M  V30 23 1 6 24
M  V30 24 2 24 25
M  V30 25 1 2 26
M  V30 26 1 26 27
M  V30 27 1 27 28
M  V30 28 1 28 29
M  V30 29 1 29 30
M  V30 30 1 30 31
M  V30 31 1 25 3
M  V30 32 1 31 26
M  V30 33 1 23 7
M  V30 34 1 22 10
M  V30 35 1 21 16
M  V30 36 1 4 32
M  V30 37 1 5 33
M  V30 38 1 8 34
M  V30 39 1 9 35
M  V30 40 1 12 36
M  V30 41 1 15 37
M  V30 42 1 17 38
M  V30 43 1 18 39
M  V30 44 1 19 40
M  V30 45 1 20 41
M  V30 46 1 21 42
M  V30 47 1 24 43
M  V30 48 1 25 44
M  V30 49 1 27 45
M  V30 50 1 27 46
M  V30 51 1 28 47
M  V30 52 1 28 48
M  V30 53 1 29 49
M  V30 54 1 30 50
M  V30 55 1 30 51
M  V30 56 1 31 52
M  V30 57 1 31 53
M  V30 END BOND
M  V30 END CTAB
M  END
>  <Dataset>  (945) 
ChEMBL_Kinases

>  <Ligand_Instance>  (945) 
nan

>  <PDB_ID>  (945) 
nan

>  <Standardized_SMILES>  (945) 
O=C(c1ccc(-c2ccc3ncnc(Nc4ccccc4)c3n2)cc1)N1CCNCC1

>  <Name>  (945) 
nan

>  <Pocket>  (945) 
nan

>  <ATP_Site>  (945) 
nan

>  <Peripheral>  (945) 
nan

>  <Num_H_Atoms_ProtBoundConf>  (945) 
nan

>  <Num_Resolved_Atoms>  (945) 
nan

>  <Num_Not_Resolved_Atoms>  (945) 
nan

$$$$
CHEMBL4853611
     RDKit          3D

  0  0  0  0  0  0  0  0  0  0999 V3000
M  V30 BEGIN CTAB
M  V30 COUNTS 44 46 0 0 0
M  V30 BEGIN ATOM
M  V30 1 C -1.493528 -3.036575 2.778711 0
M  V30 2 C -1.118035 -2.016115 1.769106 0
M  V30 3 C -1.027460 -0.685966 2.105164 0
M  V30 4 C -0.680798 0.266986 1.167145 0
M  V30 5 N -0.581664 1.653191 1.497539 0
M  V30 6 C 0.711871 2.051152 1.930515 0
M  V30 7 O 1.713684 1.276150 2.028376 0
M  V30 8 C 1.113688 3.410909 2.336007 0 CFG=2
M  V30 9 O 0.088460 4.331121 2.263646 0
M  V30 10 C 2.268173 3.908739 1.528250 0
M  V30 11 C 1.997493 4.417046 0.297121 0
M  V30 12 C 3.021553 4.902568 -0.519257 0
M  V30 13 F 2.800698 5.420408 -1.758103 0
M  V30 14 C 4.303257 4.835323 -0.007106 0
M  V30 15 C 4.641848 4.331042 1.233913 0
M  V30 16 F 5.917748 4.293796 1.676261 0
M  V30 17 C 3.584446 3.867256 1.991542 0
M  V30 18 C -0.420326 -0.122096 -0.131671 0
M  V30 19 C -0.525396 -1.469266 -0.416026 0
M  V30 20 C -0.873013 -2.469323 0.500905 0
M  V30 21 C -0.932487 -3.845897 0.023901 0
M  V30 22 C -0.424834 -4.998355 0.577827 0
M  V30 23 C -0.619788 -6.192424 -0.075239 0
M  V30 24 C -1.299154 -6.298790 -1.260246 0
M  V30 25 N -1.453365 -7.576443 -1.866444 0
M  V30 26 N -1.789793 -5.159884 -1.789019 0
M  V30 27 C -1.624399 -3.965965 -1.186235 0
M  V30 28 H -0.564937 -3.372576 3.283622 0
M  V30 29 H -2.155068 -2.606704 3.565381 0
M  V30 30 H -1.966328 -3.935484 2.334801 0
M  V30 31 H -1.236564 -0.400256 3.133501 0
M  V30 32 H -1.315485 2.395308 1.464087 0
M  V30 33 H 1.492532 3.447339 3.399411 0
M  V30 34 H -0.345459 4.217883 1.365068 0
M  V30 35 H 1.004839 4.497036 -0.162952 0
M  V30 36 H 5.102882 5.219605 -0.656320 0
M  V30 37 H 3.768913 3.453082 2.984555 0
M  V30 38 H -0.143849 0.561033 -0.921239 0
M  V30 39 H -0.319173 -1.776825 -1.444063 0
M  V30 40 H 0.092081 -4.829156 1.500255 0
M  V30 41 H -0.188619 -7.054123 0.426874 0
M  V30 42 H -2.188199 -8.310061 -1.850964 0
M  V30 43 H -0.865357 -8.152080 -2.509409 0
M  V30 44 H -2.073202 -3.153430 -1.731603 0
M  V30 END ATOM
M  V30 BEGIN BOND
M  V30 1 1 1 2
M  V30 2 2 2 3
M  V30 3 1 3 4
M  V30 4 1 4 5
M  V30 5 1 5 6
M  V30 6 2 6 7
M  V30 7 1 6 8
M  V30 8 1 8 9
M  V30 9 1 8 10
M  V30 10 2 10 11
M  V30 11 1 11 12
M  V30 12 1 12 13
M  V30 13 2 12 14
M  V30 14 1 14 15
M  V30 15 1 15 16
M  V30 16 2 15 17
M  V30 17 2 4 18
M  V30 18 1 18 19
M  V30 19 2 19 20
M  V30 20 1 20 21
M  V30 21 2 21 22
M  V30 22 1 22 23
M  V30 23 2 23 24
M  V30 24 1 24 25
M  V30 25 1 24 26
M  V30 26 2 26 27
M  V30 27 1 20 2
M  V30 28 1 27 21
M  V30 29 1 17 10
M  V30 30 1 1 28
M  V30 31 1 1 29
M  V30 32 1 1 30
M  V30 33 1 3 31
M  V30 34 1 5 32
M  V30 35 1 8 33 CFG=1
M  V30 36 1 9 34
M  V30 37 1 11 35
M  V30 38 1 14 36
M  V30 39 1 17 37
M  V30 40 1 18 38
M  V30 41 1 19 39
M  V30 42 1 22 40
M  V30 43 1 23 41
M  V30 44 1 25 42
M  V30 45 1 25 43
M  V30 46 1 27 44
M  V30 END BOND
M  V30 END CTAB
M  END
>  <Dataset>  (946) 
ChEMBL_Kinases

>  <Ligand_Instance>  (946) 
nan

>  <PDB_ID>  (946) 
nan

>  <Standardized_SMILES>  (946) 
Cc1cc(NC(=O)[C@H](O)c2cc(F)cc(F)c2)ccc1-c1ccc(N)nc1

>  <Name>  (946) 
nan

>  <Pocket>  (946) 
nan

>  <ATP_Site>  (946) 
nan

>  <Peripheral>  (946) 
nan

>  <Num_H_Atoms_ProtBoundConf>  (946) 
nan

>  <Num_Resolved_Atoms>  (946) 
nan

>  <Num_Not_Resolved_Atoms>  (946) 
nan

$$$$
CHEMBL4082386
     RDKit          3D

  0  0  0  0  0  0  0  0  0  0999 V3000
M  V30 BEGIN CTAB
M  V30 COUNTS 45 48 0 0 0
M  V30 BEGIN ATOM
M  V30 1 N 0.089003 -5.262445 1.354886 0
M  V30 2 C 1.052369 -4.307825 1.772264 0
M  V30 3 O 2.025690 -4.872221 2.279261 0
M  V30 4 C 0.977144 -2.857915 1.654611 0
M  V30 5 C 2.048004 -2.177893 2.139845 0
M  V30 6 N 2.203287 -0.840542 2.141095 0
M  V30 7 C 1.177837 -0.128486 1.600381 0
M  V30 8 N 1.212933 1.289773 1.538418 0
M  V30 9 C 2.411840 1.890403 2.090661 0 CFG=1
M  V30 10 C 3.657679 1.446232 1.395950 0
M  V30 11 C 4.284164 2.527600 0.519590 0
M  V30 12 C 4.560064 3.786693 1.265294 0
M  V30 13 N 3.538735 4.055609 2.245154 0
M  V30 14 C 2.290826 3.382636 1.946613 0
M  V30 15 C 0.069118 -0.839377 1.098372 0
M  V30 16 S -1.415215 -0.230576 0.339236 0
M  V30 17 C -2.143503 -1.825206 0.072399 0
M  V30 18 C -3.467387 -2.041174 -0.562327 0
M  V30 19 C -3.921112 -3.337289 -0.711670 0
M  V30 20 C -5.166941 -3.525254 -1.309796 0
M  V30 21 C -5.875694 -2.415524 -1.717951 0
M  V30 22 C -5.426039 -1.129311 -1.570045 0
M  V30 23 C -4.186745 -0.937890 -0.975302 0
M  V30 24 C -1.237131 -2.650296 0.561237 0
M  V30 25 C -0.092478 -2.186959 1.094607 0
M  V30 26 H 0.396529 -5.621951 0.424125 0
M  V30 27 H -0.750389 -5.544929 1.871085 0
M  V30 28 H 2.911540 -2.682409 2.589878 0
M  V30 29 H 0.399745 1.784551 1.113522 0
M  V30 30 H 2.513412 1.647877 3.182747 0
M  V30 31 H 3.353036 0.665825 0.662138 0
M  V30 32 H 4.390524 0.982528 2.060075 0
M  V30 33 H 5.215153 2.074140 0.120941 0
M  V30 34 H 3.649206 2.736430 -0.357288 0
M  V30 35 H 4.552963 4.623369 0.511703 0
M  V30 36 H 5.590624 3.727021 1.692432 0
M  V30 37 H 3.350167 5.080612 2.263272 0
M  V30 38 H 2.007133 3.600048 0.893144 0
M  V30 39 H 1.534698 3.830277 2.648195 0
M  V30 40 H -3.333744 -4.178603 -0.377792 0
M  V30 41 H -5.582802 -4.507386 -1.458159 0
M  V30 42 H -6.857166 -2.495241 -2.192975 0
M  V30 43 H -5.916613 -0.227385 -1.860024 0
M  V30 44 H -3.766245 0.044602 -0.824694 0
M  V30 45 H -1.495382 -3.725143 0.495038 0
M  V30 END ATOM
M  V30 BEGIN BOND
M  V30 1 1 1 2
M  V30 2 2 2 3
M  V30 3 1 2 4
M  V30 4 2 4 5
M  V30 5 1 5 6
M  V30 6 2 6 7
M  V30 7 1 7 8
M  V30 8 1 8 9
M  V30 9 1 9 10
M  V30 10 1 10 11
M  V30 11 1 11 12
M  V30 12 1 12 13
M  V30 13 1 13 14
M  V30 14 1 7 15
M  V30 15 1 15 16
M  V30 16 1 16 17
M  V30 17 1 17 18
M  V30 18 2 18 19
M  V30 19 1 19 20
M  V30 20 2 20 21
M  V30 21 1 21 22
M  V30 22 2 22 23
M  V30 23 2 17 24
M  V30 24 1 24 25
M  V30 25 1 25 4
M  V30 26 1 14 9
M  V30 27 2 25 15
M  V30 28 1 23 18
M  V30 29 1 1 26
M  V30 30 1 1 27
M  V30 31 1 5 28
M  V30 32 1 8 29
M  V30 33 1 9 30 CFG=1
M  V30 34 1 10 31
M  V30 35 1 10 32
M  V30 36 1 11 33
M  V30 37 1 11 34
M  V30 38 1 12 35
M  V30 39 1 12 36
M  V30 40 1 13 37
M  V30 41 1 14 38
M  V30 42 1 14 39
M  V30 43 1 19 40
M  V30 44 1 20 41
M  V30 45 1 21 42
M  V30 46 1 22 43
M  V30 47 1 23 44
M  V30 48 1 24 45
M  V30 END BOND
M  V30 END CTAB
M  END
>  <Dataset>  (947) 
ChEMBL_Kinases

>  <Ligand_Instance>  (947) 
nan

>  <PDB_ID>  (947) 
nan

>  <Standardized_SMILES>  (947) 
NC(=O)c1cnc(N[C@H]2CCCNC2)c2sc(-c3ccccc3)cc12

>  <Name>  (947) 
nan

>  <Pocket>  (947) 
nan

>  <ATP_Site>  (947) 
nan

>  <Peripheral>  (947) 
nan

>  <Num_H_Atoms_ProtBoundConf>  (947) 
nan

>  <Num_Resolved_Atoms>  (947) 
nan

>  <Num_Not_Resolved_Atoms>  (947) 
nan

$$$$
CHEMBL4075277
     RDKit          3D

  0  0  0  0  0  0  0  0  0  0999 V3000
M  V30 BEGIN CTAB
M  V30 COUNTS 57 61 0 0 0
M  V30 BEGIN ATOM
M  V30 1 C 7.170450 1.784317 5.366856 0
M  V30 2 O 6.123205 1.648222 4.428689 0
M  V30 3 C 6.260420 0.998363 3.218641 0
M  V30 4 O 7.387054 0.528156 2.997277 0
M  V30 5 C 5.184931 0.851657 2.240874 0
M  V30 6 C 5.478693 0.173750 1.076099 0
M  V30 7 C 4.501366 -0.002145 0.102366 0
M  V30 8 C 3.251614 0.524088 0.355201 0
M  V30 9 C 2.959181 1.202740 1.522362 0
M  V30 10 C 3.932444 1.383858 2.503913 0
M  V30 11 C 1.694753 1.817772 1.942245 0
M  V30 12 O 1.706966 2.614588 2.898276 0
M  V30 13 C 0.408201 1.553151 1.304646 0
M  V30 14 C -0.587656 2.392775 1.753471 0
M  V30 15 C -1.872383 2.298087 1.270349 0
M  V30 16 C -2.234061 1.368466 0.320187 0
M  V30 17 N -3.557879 1.305184 -0.169472 0
M  V30 18 C -4.299015 0.272052 -0.795666 0
M  V30 19 C -5.389797 0.557422 -1.590029 0
M  V30 20 C -6.125791 -0.438178 -2.190067 0
M  V30 21 C -5.814305 -1.770977 -2.030640 0
M  V30 22 F -6.539359 -2.744858 -2.621864 0
M  V30 23 C -4.734636 -2.096929 -1.246353 0
M  V30 24 N -4.407904 -3.468775 -1.077996 0
M  V30 25 C -3.509545 -4.113958 -1.972907 0
M  V30 26 O -3.025644 -3.424663 -2.904674 0
M  V30 27 C -3.168820 -5.453054 -1.837926 0
M  V30 28 C -3.482512 -6.496123 -0.976629 0
M  V30 29 C -2.959502 -7.746708 -1.118877 0
M  V30 30 C -2.005423 -7.873518 -2.310608 0
M  V30 31 S -2.018417 -6.143124 -3.042583 0
M  V30 32 C -4.022323 -1.071685 -0.662002 0
M  V30 33 C -1.219925 0.551815 -0.102830 0
M  V30 34 C 0.081226 0.608791 0.351576 0
M  V30 35 C 1.011815 -0.381048 -0.253560 0
M  V30 36 C 2.273520 0.276407 -0.763448 0
M  V30 37 H 7.683105 0.844394 5.606671 0
M  V30 38 H 7.890842 2.586322 5.057784 0
M  V30 39 H 6.708784 2.152449 6.307567 0
M  V30 40 H 6.450353 -0.248760 0.852699 0
M  V30 41 H 4.689515 -0.527028 -0.824534 0
M  V30 42 H 3.694266 1.910415 3.401979 0
M  V30 43 H -0.349756 3.138350 2.499298 0
M  V30 44 H -2.608213 2.995368 1.671319 0
M  V30 45 H -4.111039 2.209464 -0.045426 0
M  V30 46 H -5.668709 1.597914 -1.740978 0
M  V30 47 H -6.980267 -0.197199 -2.811449 0
M  V30 48 H -4.809507 -4.045240 -0.302545 0
M  V30 49 H -4.170983 -6.179758 -0.213784 0
M  V30 50 H -3.241246 -8.511582 -0.420117 0
M  V30 51 H -1.634037 -9.069265 -2.278381 0
M  V30 52 H -3.197794 -1.413553 -0.053881 0
M  V30 53 H -1.366882 -0.199950 -0.841323 0
M  V30 54 H 0.500201 -0.944941 -1.034876 0
M  V30 55 H 1.327392 -1.046939 0.590441 0
M  V30 56 H 2.062299 1.283551 -1.177334 0
M  V30 57 H 2.742747 -0.333682 -1.536933 0
M  V30 END ATOM
M  V30 BEGIN BOND
M  V30 1 1 1 2
M  V30 2 1 2 3
M  V30 3 2 3 4
M  V30 4 1 3 5
M  V30 5 2 5 6
M  V30 6 1 6 7
M  V30 7 2 7 8
M  V30 8 1 8 9
M  V30 9 2 9 10
M  V30 10 1 9 11
M  V30 11 2 11 12
M  V30 12 1 11 13
M  V30 13 2 13 14
M  V30 14 1 14 15
M  V30 15 2 15 16
M  V30 16 1 16 17
M  V30 17 1 17 18
M  V30 18 2 18 19
M  V30 19 1 19 20
M  V30 20 2 20 21
M  V30 21 1 21 22
M  V30 22 1 21 23
M  V30 23 1 23 24
M  V30 24 1 24 25
M  V30 25 2 25 26
M  V30 26 1 25 27
M  V30 27 2 27 28
M  V30 28 1 28 29
M  V30 29 2 29 30
M  V30 30 1 30 31
M  V30 31 2 23 32
M  V30 32 1 16 33
M  V30 33 2 33 34
M  V30 34 1 34 35
M  V30 35 1 35 36
M  V30 36 1 10 5
M  V30 37 1 34 13
M  V30 38 1 36 8
M  V30 39 1 32 18
M  V30 40 1 31 27
M  V30 41 1 1 37
M  V30 42 1 1 38
M  V30 43 1 1 39
M  V30 44 1 6 40
M  V30 45 1 7 41
M  V30 46 1 10 42
M  V30 47 1 14 43
M  V30 48 1 15 44
M  V30 49 1 17 45
M  V30 50 1 19 46
M  V30 51 1 20 47
M  V30 52 1 24 48
M  V30 53 1 28 49
M  V30 54 1 29 50
M  V30 55 1 30 51
M  V30 56 1 32 52
M  V30 57 1 33 53
M  V30 58 1 35 54
M  V30 59 1 35 55
M  V30 60 1 36 56
M  V30 61 1 36 57
M  V30 END BOND
M  V30 END CTAB
M  END
>  <Dataset>  (948) 
ChEMBL_Kinases

>  <Ligand_Instance>  (948) 
nan

>  <PDB_ID>  (948) 
nan

>  <Standardized_SMILES>  (948) 
COC(=O)c1ccc2c(c1)C(=O)c1ccc(Nc3ccc(F)c(NC(=O)c4cccs4)c3)cc1CC2

>  <Name>  (948) 
nan

>  <Pocket>  (948) 
nan

>  <ATP_Site>  (948) 
nan

>  <Peripheral>  (948) 
nan

>  <Num_H_Atoms_ProtBoundConf>  (948) 
nan

>  <Num_Resolved_Atoms>  (948) 
nan

>  <Num_Not_Resolved_Atoms>  (948) 
nan

$$$$
CHEMBL4082370
     RDKit          3D

  0  0  0  0  0  0  0  0  0  0999 V3000
M  V30 BEGIN CTAB
M  V30 COUNTS 48 51 0 0 0
M  V30 BEGIN ATOM
M  V30 1 C 3.461591 -2.164956 1.893052 0
M  V30 2 C 2.383112 -2.987017 1.214311 0
M  V30 3 O 1.729056 -2.272361 0.192418 0
M  V30 4 C 2.398045 -1.768166 -0.910323 0
M  V30 5 C 3.747582 -1.880558 -1.171297 0
M  V30 6 C 4.335942 -1.348673 -2.294898 0
M  V30 7 N 3.537766 -0.699992 -3.152666 0
M  V30 8 C 2.222172 -0.569250 -2.935101 0
M  V30 9 N 1.293562 0.042389 -3.684499 0
M  V30 10 C 0.101760 -0.076217 -3.075373 0
M  V30 11 O -1.051632 0.322775 -3.379177 0
M  V30 12 N 0.260118 -0.767242 -1.927504 0
M  V30 13 C -0.689466 -1.152051 -0.937676 0
M  V30 14 N -1.148821 -0.167302 -0.145988 0
M  V30 15 C -2.051245 -0.407305 0.828345 0
M  V30 16 N -2.515341 0.653395 1.645488 0
M  V30 17 C -3.482785 0.532915 2.713750 0
M  V30 18 C -2.800420 0.913353 4.030913 0
M  V30 19 C -1.334067 0.565041 3.930639 0
M  V30 20 N -0.528312 1.551805 3.309375 0
M  V30 21 C -1.226835 2.546805 2.531190 0
M  V30 22 C -1.947620 1.955030 1.354124 0
M  V30 23 C -2.449737 -1.719958 0.936245 0
M  V30 24 C -1.998577 -2.752346 0.141275 0
M  V30 25 C -1.076055 -2.472035 -0.845460 0
M  V30 26 Cl -0.448665 -3.720252 -1.901250 0
M  V30 27 C 1.582601 -1.086642 -1.819365 0
M  V30 28 H 4.436903 -2.691213 1.935875 0
M  V30 29 H 3.199914 -1.985480 2.973380 0
M  V30 30 H 3.495765 -1.167913 1.425242 0
M  V30 31 H 1.657483 -3.329890 1.966595 0
M  V30 32 H 2.878261 -3.896386 0.768034 0
M  V30 33 H 4.336779 -2.413236 -0.445064 0
M  V30 34 H 5.391524 -1.448471 -2.478463 0
M  V30 35 H 1.420558 0.541404 -4.594895 0
M  V30 36 H -4.315945 1.275127 2.559082 0
M  V30 37 H -3.929507 -0.457188 2.772202 0
M  V30 38 H -3.221985 0.234224 4.802723 0
M  V30 39 H -2.980184 1.969671 4.225711 0
M  V30 40 H -1.264035 -0.386159 3.363857 0
M  V30 41 H -0.960402 0.345061 4.949369 0
M  V30 42 H 0.165177 1.953554 3.944831 0
M  V30 43 H -0.411313 3.188957 2.084279 0
M  V30 44 H -1.818049 3.245494 3.138985 0
M  V30 45 H -2.807916 2.657129 1.146910 0
M  V30 46 H -1.312189 1.893527 0.449563 0
M  V30 47 H -3.170120 -1.990687 1.693256 0
M  V30 48 H -2.350418 -3.775925 0.272706 0
M  V30 END ATOM
M  V30 BEGIN BOND
M  V30 1 1 1 2
M  V30 2 1 2 3
M  V30 3 1 3 4
M  V30 4 2 4 5
M  V30 5 1 5 6
M  V30 6 2 6 7
M  V30 7 1 7 8
M  V30 8 1 8 9
M  V30 9 1 9 10
M  V30 10 2 10 11
M  V30 11 1 10 12
M  V30 12 1 12 13
M  V30 13 2 13 14
M  V30 14 1 14 15
M  V30 15 1 15 16
M  V30 16 1 16 17
M  V30 17 1 17 18
M  V30 18 1 18 19
M  V30 19 1 19 20
M  V30 20 1 20 21
M  V30 21 1 21 22
M  V30 22 2 15 23
M  V30 23 1 23 24
M  V30 24 2 24 25
M  V30 25 1 25 26
M  V30 26 1 12 27
M  V30 27 1 27 4
M  V30 28 2 27 8
M  V30 29 1 25 13
M  V30 30 1 22 16
M  V30 31 1 1 28
M  V30 32 1 1 29
M  V30 33 1 1 30
M  V30 34 1 2 31
M  V30 35 1 2 32
M  V30 36 1 5 33
M  V30 37 1 6 34
M  V30 38 1 9 35
M  V30 39 1 17 36
M  V30 40 1 17 37
M  V30 41 1 18 38
M  V30 42 1 18 39
M  V30 43 1 19 40
M  V30 44 1 19 41
M  V30 45 1 20 42
M  V30 46 1 21 43
M  V30 47 1 21 44
M  V30 48 1 22 45
M  V30 49 1 22 46
M  V30 50 1 23 47
M  V30 51 1 24 48
M  V30 END BOND
M  V30 END CTAB
M  END
>  <Dataset>  (949) 
ChEMBL_Kinases

>  <Ligand_Instance>  (949) 
nan

>  <PDB_ID>  (949) 
nan

>  <Standardized_SMILES>  (949) 
CCOc1ccnc2[nH]c(=O)n(-c3nc(N4CCCNCC4)ccc3Cl)c12

>  <Name>  (949) 
nan

>  <Pocket>  (949) 
nan

>  <ATP_Site>  (949) 
nan

>  <Peripheral>  (949) 
nan

>  <Num_H_Atoms_ProtBoundConf>  (949) 
nan

>  <Num_Resolved_Atoms>  (949) 
nan

>  <Num_Not_Resolved_Atoms>  (949) 
nan

$$$$
CHEMBL4082341
     RDKit          3D

  0  0  0  0  0  0  0  0  0  0999 V3000
M  V30 BEGIN CTAB
M  V30 COUNTS 66 70 0 0 0
M  V30 BEGIN ATOM
M  V30 1 C 3.690059 -0.025803 4.215515 0
M  V30 2 C 2.377365 -0.403148 3.542781 0 CFG=1
M  V30 3 O 2.340614 -1.815788 3.540142 0
M  V30 4 C 2.096224 -2.601921 2.461150 0
M  V30 5 C 1.818697 -2.253001 1.161865 0
M  V30 6 C 1.582411 -3.123366 0.127894 0
M  V30 7 C 1.289158 -2.650746 -1.220117 0
M  V30 8 C 1.878217 -3.153527 -2.368674 0
M  V30 9 N 1.346318 -2.466355 -3.398647 0
M  V30 10 C 0.451456 -1.561439 -2.900380 0
M  V30 11 C -0.317815 -0.657352 -3.604100 0
M  V30 12 C -1.178724 0.189986 -2.943034 0
M  V30 13 N -2.015208 1.155383 -3.569427 0
M  V30 14 C -2.905212 2.093929 -2.920900 0
M  V30 15 C -4.331604 1.881502 -3.363337 0
M  V30 16 N -4.486377 1.013217 -4.480059 0
M  V30 17 C -4.877877 -0.327645 -4.187118 0
M  V30 18 C -3.520692 1.173411 -5.511934 0
M  V30 19 C -2.104332 1.343203 -5.006793 0
M  V30 20 C -1.208244 0.066146 -1.571058 0
M  V30 21 C -0.410880 -0.864755 -0.896971 0
M  V30 22 N 0.422692 -1.681857 -1.563011 0
M  V30 23 C 1.623950 -4.474767 0.399450 0
M  V30 24 C 1.901207 -4.899848 1.700145 0
M  V30 25 C 2.128584 -3.973444 2.691230 0
M  V30 26 C 2.403932 -4.656060 3.947363 0
M  V30 27 N 2.722103 -4.228435 5.258831 0
M  V30 28 O 2.453540 -5.864251 4.295060 0
M  V30 29 C 1.255509 0.049498 4.413070 0
M  V30 30 C 0.720072 -0.801663 5.374981 0
M  V30 31 C -0.312096 -0.470840 6.223718 0
M  V30 32 C -0.853485 0.792845 6.112622 0
M  V30 33 C -0.321280 1.633000 5.159567 0
M  V30 34 C 0.729320 1.315805 4.285837 0
M  V30 35 C 1.213541 2.291565 3.301820 0
M  V30 36 F 0.473529 3.460106 3.456284 0
M  V30 37 F 1.200772 1.861640 1.997561 0
M  V30 38 F 2.521727 2.605282 3.618701 0
M  V30 39 H 3.496354 0.510264 5.191523 0
M  V30 40 H 4.356623 0.570084 3.543605 0
M  V30 41 H 4.289030 -0.908598 4.522363 0
M  V30 42 H 2.280358 -0.062162 2.516508 0
M  V30 43 H 1.790328 -1.200369 0.949295 0
M  V30 44 H 2.626573 -3.947607 -2.443454 0
M  V30 45 H -0.249972 -0.608712 -4.663593 0
M  V30 46 H -2.606598 3.118055 -3.284014 0
M  V30 47 H -2.799401 2.151893 -1.827832 0
M  V30 48 H -4.813213 2.851241 -3.604163 0
M  V30 49 H -4.949071 1.459773 -2.517982 0
M  V30 50 H -5.985093 -0.407590 -4.249561 0
M  V30 51 H -4.426253 -1.083896 -4.859315 0
M  V30 52 H -4.641837 -0.585973 -3.125031 0
M  V30 53 H -3.774523 2.087908 -6.093947 0
M  V30 54 H -3.620319 0.335070 -6.224410 0
M  V30 55 H -1.476121 0.687630 -5.600505 0
M  V30 56 H -1.735827 2.388513 -5.192860 0
M  V30 57 H -1.818364 0.644351 -0.913879 0
M  V30 58 H -0.448939 -0.952198 0.197179 0
M  V30 59 H 1.432141 -5.143114 -0.437315 0
M  V30 60 H 1.905312 -5.967510 1.783319 0
M  V30 61 H 2.479612 -3.677697 6.099876 0
M  V30 62 H 2.484688 -3.677044 6.107491 0
M  V30 63 H 1.099613 -1.816260 5.516328 0
M  V30 64 H -0.717501 -1.139168 6.964749 0
M  V30 65 H -1.674361 1.183539 6.723583 0
M  V30 66 H -0.743630 2.644774 5.059251 0
M  V30 END ATOM
M  V30 BEGIN BOND
M  V30 1 1 1 2
M  V30 2 1 2 3
M  V30 3 1 3 4
M  V30 4 2 4 5
M  V30 5 1 5 6
M  V30 6 1 6 7
M  V30 7 2 7 8
M  V30 8 1 8 9
M  V30 9 2 9 10
M  V30 10 1 10 11
M  V30 11 2 11 12
M  V30 12 1 12 13
M  V30 13 1 13 14
M  V30 14 1 14 15
M  V30 15 1 15 16
M  V30 16 1 16 17
M  V30 17 1 16 18
M  V30 18 1 18 19
M  V30 19 1 12 20
M  V30 20 2 20 21
M  V30 21 1 21 22
M  V30 22 2 6 23
M  V30 23 1 23 24
M  V30 24 2 24 25
M  V30 25 1 25 26
M  V30 26 1 26 27
M  V30 27 2 26 28
M  V30 28 1 2 29
M  V30 29 2 29 30
M  V30 30 1 30 31
M  V30 31 2 31 32
M  V30 32 1 32 33
M  V30 33 2 33 34
M  V30 34 1 34 35
M  V30 35 1 35 36
M  V30 36 1 35 37
M  V30 37 1 35 38
M  V30 38 1 25 4
M  V30 39 1 34 29
M  V30 40 1 22 7
M  V30 41 1 22 10
M  V30 42 1 19 13
M  V30 43 1 1 39
M  V30 44 1 1 40
M  V30 45 1 1 41
M  V30 46 1 2 42 CFG=3
M  V30 47 1 5 43
M  V30 48 1 8 44
M  V30 49 1 11 45
M  V30 50 1 14 46
M  V30 51 1 14 47
M  V30 52 1 15 48
M  V30 53 1 15 49
M  V30 54 1 17 50
M  V30 55 1 17 51
M  V30 56 1 17 52
M  V30 57 1 18 53
M  V30 58 1 18 54
M  V30 59 1 19 55
M  V30 60 1 19 56
M  V30 61 1 20 57
M  V30 62 1 21 58
M  V30 63 1 23 59
M  V30 64 1 24 60
M  V30 65 1 27 61
M  V30 66 1 27 62
M  V30 67 1 30 63
M  V30 68 1 31 64
M  V30 69 1 32 65
M  V30 70 1 33 66
M  V30 END BOND
M  V30 END CTAB
M  END
>  <Dataset>  (950) 
ChEMBL_Kinases

>  <Ligand_Instance>  (950) 
nan

>  <PDB_ID>  (950) 
nan

>  <Standardized_SMILES>  (950) 
C[C@@H](Oc1cc(-c2cnc3cc(N4CCN(C)CC4)ccn23)ccc1C(N)=O)c1ccccc1C(F)(F)F

>  <Name>  (950) 
nan

>  <Pocket>  (950) 
nan

>  <ATP_Site>  (950) 
nan

>  <Peripheral>  (950) 
nan

>  <Num_H_Atoms_ProtBoundConf>  (950) 
nan

>  <Num_Resolved_Atoms>  (950) 
nan

>  <Num_Not_Resolved_Atoms>  (950) 
nan

$$$$
CHEMBL4082330
     RDKit          3D

  0  0  0  0  0  0  0  0  0  0999 V3000
M  V30 BEGIN CTAB
M  V30 COUNTS 42 44 0 0 0
M  V30 BEGIN ATOM
M  V30 1 C 2.186109 -5.559915 3.104591 0
M  V30 2 C 1.773186 -4.433918 2.232848 0
M  V30 3 C 1.758306 -4.618880 0.870779 0
M  V30 4 C 1.377353 -3.583350 0.047162 0
M  V30 5 C 1.023564 -2.392046 0.637044 0
M  V30 6 O 0.652372 -1.394624 -0.233805 0
M  V30 7 C 0.611681 -1.504836 -1.624404 0
M  V30 8 C 0.173155 -0.269922 -2.319962 0
M  V30 9 C -1.181073 -0.115568 -2.555450 0
M  V30 10 C -1.601418 1.032843 -3.203733 0
M  V30 11 C -0.703031 2.007712 -3.610559 0
M  V30 12 C 0.629278 1.837042 -3.369050 0
M  V30 13 C 1.072824 0.702657 -2.725444 0
M  V30 14 C 1.011588 -2.126303 1.987040 0
M  V30 15 C 0.645630 -0.886849 2.640277 0
M  V30 16 O 0.717450 -0.894358 3.902943 0
M  V30 17 N 0.221600 0.328818 2.096433 0
M  V30 18 C -0.135400 1.537478 2.731321 0
M  V30 19 C -0.156672 1.827679 4.056468 0
M  V30 20 C -0.518129 3.035845 4.607880 0
M  V30 21 C -0.892584 4.044735 3.747027 0
M  V30 22 N -0.892947 3.822288 2.427974 0
M  V30 23 C -0.531847 2.627299 1.947812 0
M  V30 24 C 1.406324 -3.216059 2.741496 0
M  V30 25 H 1.337768 -5.923732 3.742393 0
M  V30 26 H 2.573364 -6.391667 2.513000 0
M  V30 27 H 2.962804 -5.212926 3.821131 0
M  V30 28 H 2.042227 -5.564816 0.456991 0
M  V30 29 H 1.363342 -3.721637 -1.023822 0
M  V30 30 H 1.614870 -1.788419 -2.053873 0
M  V30 31 H -0.065771 -2.332709 -1.947666 0
M  V30 32 H -1.910227 -0.872552 -2.243155 0
M  V30 33 H -2.659979 1.177744 -3.400471 0
M  V30 34 H -1.028636 2.894438 -4.111235 0
M  V30 35 H 1.405991 2.543665 -3.649590 0
M  V30 36 H 2.130383 0.518790 -2.508450 0
M  V30 37 H 0.161212 0.338900 1.056763 0
M  V30 38 H 0.122106 1.088033 4.764954 0
M  V30 39 H -0.515523 3.208577 5.674423 0
M  V30 40 H -1.184387 5.009453 4.129420 0
M  V30 41 H -0.578527 2.585066 0.849241 0
M  V30 42 H 1.446556 -3.156522 3.824974 0
M  V30 END ATOM
M  V30 BEGIN BOND
M  V30 1 1 1 2
M  V30 2 2 2 3
M  V30 3 1 3 4
M  V30 4 2 4 5
M  V30 5 1 5 6
M  V30 6 1 6 7
M  V30 7 1 7 8
M  V30 8 2 8 9
M  V30 9 1 9 10
M  V30 10 2 10 11
M  V30 11 1 11 12
M  V30 12 2 12 13
M  V30 13 1 5 14
M  V30 14 1 14 15
M  V30 15 2 15 16
M  V30 16 1 15 17
M  V30 17 1 17 18
M  V30 18 2 18 19
M  V30 19 1 19 20
M  V30 20 2 20 21
M  V30 21 1 21 22
M  V30 22 2 22 23
M  V30 23 2 14 24
M  V30 24 1 24 2
M  V30 25 1 13 8
M  V30 26 1 23 18
M  V30 27 1 1 25
M  V30 28 1 1 26
M  V30 29 1 1 27
M  V30 30 1 3 28
M  V30 31 1 4 29
M  V30 32 1 7 30
M  V30 33 1 7 31
M  V30 34 1 9 32
M  V30 35 1 10 33
M  V30 36 1 11 34
M  V30 37 1 12 35
M  V30 38 1 13 36
M  V30 39 1 17 37
M  V30 40 1 19 38
M  V30 41 1 20 39
M  V30 42 1 21 40
M  V30 43 1 23 41
M  V30 44 1 24 42
M  V30 END BOND
M  V30 END CTAB
M  END
>  <Dataset>  (951) 
ChEMBL_Kinases

>  <Ligand_Instance>  (951) 
nan

>  <PDB_ID>  (951) 
nan

>  <Standardized_SMILES>  (951) 
Cc1ccc(OCc2ccccc2)c(C(=O)Nc2cccnc2)c1

>  <Name>  (951) 
nan

>  <Pocket>  (951) 
nan

>  <ATP_Site>  (951) 
nan

>  <Peripheral>  (951) 
nan

>  <Num_H_Atoms_ProtBoundConf>  (951) 
nan

>  <Num_Resolved_Atoms>  (951) 
nan

>  <Num_Not_Resolved_Atoms>  (951) 
nan

$$$$
CHEMBL4853617
     RDKit          3D

  0  0  0  0  0  0  0  0  0  0999 V3000
M  V30 BEGIN CTAB
M  V30 COUNTS 46 49 0 0 0
M  V30 BEGIN ATOM
M  V30 1 C 0.981070 -5.048902 2.996446 0
M  V30 2 O -0.090326 -4.722306 2.110999 0
M  V30 3 C 0.094924 -3.989119 0.962717 0
M  V30 4 C 1.318182 -3.524057 0.571656 0
M  V30 5 C 1.458585 -2.785777 -0.584904 0
M  V30 6 C 0.402561 -2.458386 -1.429229 0
M  V30 7 C 0.807425 -1.689777 -2.602055 0
M  V30 8 N 0.997252 -0.295959 -2.322045 0
M  V30 9 C 1.048767 1.065039 -2.824529 0
M  V30 10 O 0.847681 1.051515 -4.044600 0
M  V30 11 C 1.315507 2.157358 -1.905367 0
M  V30 12 C 2.106887 3.236087 -2.198619 0
M  V30 13 N 2.160500 4.046387 -1.137762 0
M  V30 14 C 1.386311 3.456367 -0.168366 0
M  V30 15 C 1.128228 3.911471 1.103345 0
M  V30 16 C 0.312168 3.212478 1.998036 0
M  V30 17 C -0.194822 2.041686 1.466082 0
M  V30 18 C -1.048542 1.081932 2.207055 0
M  V30 19 C -2.071253 0.292926 1.697522 0
M  V30 20 N -2.478727 -0.428587 2.759005 0
M  V30 21 N -1.780870 -0.122390 3.824754 0
M  V30 22 C -1.841409 -0.670735 5.187227 0
M  V30 23 C -0.841966 0.841125 3.558838 0
M  V30 24 C 0.078975 1.609937 0.188725 0
M  V30 25 N 0.874765 2.307567 -0.647516 0
M  V30 26 C -0.842639 -2.947934 -1.003648 0
M  V30 27 C -0.964245 -3.678041 0.142424 0
M  V30 28 H 1.749941 -5.684978 2.551209 0
M  V30 29 H 0.608757 -5.537251 3.912527 0
M  V30 30 H 1.386000 -4.046449 3.336101 0
M  V30 31 H 2.130122 -3.782896 1.247451 0
M  V30 32 H 2.497800 -2.500093 -0.731706 0
M  V30 33 H 1.762756 -2.159655 -3.004058 0
M  V30 34 H -0.000437 -1.839587 -3.382302 0
M  V30 35 H 1.227980 -0.292604 -1.279193 0
M  V30 36 H 2.619189 3.429852 -3.127145 0
M  V30 37 H 1.530074 4.843816 1.536101 0
M  V30 38 H 0.032481 3.452848 2.994676 0
M  V30 39 H -2.403907 0.316262 0.671966 0
M  V30 40 H -1.694978 0.116262 5.932993 0
M  V30 41 H -2.741242 -1.311699 5.318320 0
M  V30 42 H -0.892753 -1.305547 5.228139 0
M  V30 43 H -0.129713 1.299127 4.219536 0
M  V30 44 H -0.388849 0.695623 -0.159966 0
M  V30 45 H -1.609403 -2.662197 -1.689489 0
M  V30 46 H -1.960511 -4.027210 0.406552 0
M  V30 END ATOM
M  V30 BEGIN BOND
M  V30 1 1 1 2
M  V30 2 1 2 3
M  V30 3 2 3 4
M  V30 4 1 4 5
M  V30 5 2 5 6
M  V30 6 1 6 7
M  V30 7 1 7 8
M  V30 8 1 8 9
M  V30 9 2 9 10
M  V30 10 1 9 11
M  V30 11 2 11 12
M  V30 12 1 12 13
M  V30 13 2 13 14
M  V30 14 1 14 15
M  V30 15 2 15 16
M  V30 16 1 16 17
M  V30 17 1 17 18
M  V30 18 1 18 19
M  V30 19 2 19 20
M  V30 20 1 20 21
M  V30 21 1 21 22
M  V30 22 1 21 23
M  V30 23 2 17 24
M  V30 24 1 24 25
M  V30 25 1 6 26
M  V30 26 2 26 27
M  V30 27 1 27 3
M  V30 28 1 25 11
M  V30 29 1 25 14
M  V30 30 2 23 18
M  V30 31 1 1 28
M  V30 32 1 1 29
M  V30 33 1 1 30
M  V30 34 1 4 31
M  V30 35 1 5 32
M  V30 36 1 7 33
M  V30 37 1 7 34
M  V30 38 1 8 35
M  V30 39 1 12 36
M  V30 40 1 15 37
M  V30 41 1 16 38
M  V30 42 1 19 39
M  V30 43 1 22 40
M  V30 44 1 22 41
M  V30 45 1 22 42
M  V30 46 1 23 43
M  V30 47 1 24 44
M  V30 48 1 26 45
M  V30 49 1 27 46
M  V30 END BOND
M  V30 END CTAB
M  END
>  <Dataset>  (952) 
ChEMBL_Kinases

>  <Ligand_Instance>  (952) 
nan

>  <PDB_ID>  (952) 
nan

>  <Standardized_SMILES>  (952) 
COc1ccc(CNC(=O)c2cnc3ccc(-c4cnn(C)c4)cn23)cc1

>  <Name>  (952) 
nan

>  <Pocket>  (952) 
nan

>  <ATP_Site>  (952) 
nan

>  <Peripheral>  (952) 
nan

>  <Num_H_Atoms_ProtBoundConf>  (952) 
nan

>  <Num_Resolved_Atoms>  (952) 
nan

>  <Num_Not_Resolved_Atoms>  (952) 
nan

$$$$
CHEMBL4082305
     RDKit          3D

  0  0  0  0  0  0  0  0  0  0999 V3000
M  V30 BEGIN CTAB
M  V30 COUNTS 60 61 0 0 0
M  V30 BEGIN ATOM
M  V30 1 C 3.266196 0.496474 6.258370 0
M  V30 2 C 3.939035 -0.069162 5.047248 0
M  V30 3 C 4.941810 0.916701 4.504577 0
M  V30 4 C 4.293682 2.222462 4.107558 0
M  V30 5 C 3.246919 2.031021 3.038634 0
M  V30 6 C 3.837107 1.423801 1.763019 0
M  V30 7 C 2.654243 1.301105 0.810094 0
M  V30 8 C 3.034156 0.719549 -0.519607 0
M  V30 9 C 1.843300 0.604082 -1.449972 0
M  V30 10 C 1.204292 1.925906 -1.730434 0
M  V30 11 C 0.016479 1.871611 -2.644541 0
M  V30 12 C -1.077715 1.024410 -2.092429 0
M  V30 13 O -1.161181 0.347793 -1.009320 0
M  V30 14 N -2.298530 0.859958 -2.803684 0
M  V30 15 N -3.158089 0.014148 -2.064947 0
M  V30 16 C -3.120755 -1.373564 -2.291349 0
M  V30 17 O -2.282156 -1.701174 -3.171943 0
M  V30 18 C -3.890341 -2.436364 -1.668962 0
M  V30 19 C -3.636070 -3.720744 -2.111754 0
M  V30 20 O -2.706179 -4.031490 -3.096121 0
M  V30 21 C -4.332822 -4.801267 -1.564182 0
M  V30 22 C -4.077155 -6.081739 -2.008588 0
M  V30 23 C -4.736918 -7.182628 -1.501937 0
M  V30 24 C -5.700720 -7.016089 -0.504141 0
M  V30 25 C -5.963185 -5.734410 -0.052490 0
M  V30 26 C -5.286018 -4.655169 -0.579741 0
M  V30 27 N -5.504471 -3.391290 -0.176143 0
M  V30 28 C -4.848517 -2.335991 -0.686218 0
M  V30 29 O -5.106315 -1.189809 -0.260158 0
M  V30 30 H 2.736147 -0.275265 6.853376 0
M  V30 31 H 2.589050 1.318977 5.994443 0
M  V30 32 H 4.075202 0.901652 6.924563 0
M  V30 33 H 4.497367 -0.974269 5.353830 0
M  V30 34 H 3.208898 -0.383094 4.278197 0
M  V30 35 H 5.643767 1.149940 5.341758 0
M  V30 36 H 5.525323 0.485859 3.683372 0
M  V30 37 H 5.081336 2.870218 3.686117 0
M  V30 38 H 3.790927 2.650477 4.973479 0
M  V30 39 H 2.914649 3.048233 2.743475 0
M  V30 40 H 2.359724 1.475933 3.378083 0
M  V30 41 H 4.532923 2.173568 1.370779 0
M  V30 42 H 4.347811 0.477664 1.947500 0
M  V30 43 H 1.871757 0.661734 1.290467 0
M  V30 44 H 2.287967 2.349503 0.670731 0
M  V30 45 H 3.477814 -0.264602 -0.344301 0
M  V30 46 H 3.759381 1.403245 -0.990135 0
M  V30 47 H 2.258307 0.215965 -2.413727 0
M  V30 48 H 1.108468 -0.153476 -1.125912 0
M  V30 49 H 1.933385 2.638024 -2.175496 0
M  V30 50 H 0.867736 2.441896 -0.788466 0
M  V30 51 H -0.299620 2.917134 -2.832917 0
M  V30 52 H 0.396450 1.475949 -3.629626 0
M  V30 53 H -2.477316 1.325964 -3.739408 0
M  V30 54 H -3.831060 0.355184 -1.349406 0
M  V30 55 H -3.113939 -4.553581 -3.888624 0
M  V30 56 H -3.339216 -6.249878 -2.778377 0
M  V30 57 H -4.492770 -8.171789 -1.891622 0
M  V30 58 H -6.219319 -7.889692 -0.108188 0
M  V30 59 H -6.706659 -5.571868 0.721515 0
M  V30 60 H -6.217896 -3.232701 0.568552 0
M  V30 END ATOM
M  V30 BEGIN BOND
M  V30 1 1 1 2
M  V30 2 1 2 3
M  V30 3 1 3 4
M  V30 4 1 4 5
M  V30 5 1 5 6
M  V30 6 1 6 7
M  V30 7 1 7 8
M  V30 8 1 8 9
M  V30 9 1 9 10
M  V30 10 1 10 11
M  V30 11 1 11 12
M  V30 12 2 12 13
M  V30 13 1 12 14
M  V30 14 1 14 15
M  V30 15 1 15 16
M  V30 16 2 16 17
M  V30 17 1 16 18
M  V30 18 2 18 19
M  V30 19 1 19 20
M  V30 20 1 19 21
M  V30 21 2 21 22
M  V30 22 1 22 23
M  V30 23 2 23 24
M  V30 24 1 24 25
M  V30 25 2 25 26
M  V30 26 1 26 27
M  V30 27 1 27 28
M  V30 28 2 28 29
M  V30 29 1 28 18
M  V30 30 1 26 21
M  V30 31 1 1 30
M  V30 32 1 1 31
M  V30 33 1 1 32
M  V30 34 1 2 33
M  V30 35 1 2 34
M  V30 36 1 3 35
M  V30 37 1 3 36
M  V30 38 1 4 37
M  V30 39 1 4 38
M  V30 40 1 5 39
M  V30 41 1 5 40
M  V30 42 1 6 41
M  V30 43 1 6 42
M  V30 44 1 7 43
M  V30 45 1 7 44
M  V30 46 1 8 45
M  V30 47 1 8 46
M  V30 48 1 9 47
M  V30 49 1 9 48
M  V30 50 1 10 49
M  V30 51 1 10 50
M  V30 52 1 11 51
M  V30 53 1 11 52
M  V30 54 1 14 53
M  V30 55 1 15 54
M  V30 56 1 20 55
M  V30 57 1 22 56
M  V30 58 1 23 57
M  V30 59 1 24 58
M  V30 60 1 25 59
M  V30 61 1 27 60
M  V30 END BOND
M  V30 END CTAB
M  END
>  <Dataset>  (953) 
ChEMBL_Kinases

>  <Ligand_Instance>  (953) 
nan

>  <PDB_ID>  (953) 
nan

>  <Standardized_SMILES>  (953) 
CCCCCCCCCCCC(=O)NNC(=O)c1c(O)c2ccccc2[nH]c1=O

>  <Name>  (953) 
nan

>  <Pocket>  (953) 
nan

>  <ATP_Site>  (953) 
nan

>  <Peripheral>  (953) 
nan

>  <Num_H_Atoms_ProtBoundConf>  (953) 
nan

>  <Num_Resolved_Atoms>  (953) 
nan

>  <Num_Not_Resolved_Atoms>  (953) 
nan

$$$$
CHEMBL4853675
     RDKit          3D

  0  0  0  0  0  0  0  0  0  0999 V3000
M  V30 BEGIN CTAB
M  V30 COUNTS 74 78 0 0 0
M  V30 BEGIN ATOM
M  V30 1 O 0.564781 -3.524211 2.548990 0
M  V30 2 C -0.687298 -3.563490 2.800945 0
M  V30 3 N -1.243336 -4.876012 2.862591 0
M  V30 4 C -0.453376 -6.047363 2.653813 0
M  V30 5 C 0.220857 -6.212386 1.333186 0
M  V30 6 C -0.696632 -6.337095 0.180122 0
M  V30 7 C 0.054643 -6.508547 -1.134942 0
M  V30 8 C -0.311052 -5.396923 -2.093692 0
M  V30 9 N -1.689296 -5.294056 -2.346381 0
M  V30 10 C -2.055441 -4.234041 -3.237162 0
M  V30 11 C -1.694291 -2.876241 -2.788450 0
M  V30 12 C -2.595362 -2.110163 -2.041698 0
M  V30 13 C -2.289479 -0.858812 -1.617774 0
M  V30 14 C -1.060085 -0.300915 -1.918106 0
M  V30 15 C -0.136025 -1.005180 -2.647208 0
M  V30 16 Cl 1.415222 -0.268773 -3.012017 0
M  V30 17 C -0.487194 -2.276865 -3.060155 0
M  V30 18 C -2.496153 -5.417296 -1.196142 0
M  V30 19 C -1.686187 -5.226435 0.075963 0
M  V30 20 C -1.428783 -2.317842 3.002366 0
M  V30 21 C -2.787313 -2.199423 3.208131 0
M  V30 22 N -3.368836 -0.989198 3.398836 0
M  V30 23 C -2.635952 0.149785 3.393865 0
M  V30 24 C -1.256075 0.102939 3.191434 0
M  V30 25 N -0.401200 1.244957 3.174609 0
M  V30 26 C -0.051011 2.026329 2.040792 0
M  V30 27 O -0.579880 1.617891 0.977739 0
M  V30 28 C 0.836808 3.176135 2.155769 0
M  V30 29 C 1.359019 3.579132 3.366759 0
M  V30 30 C 2.195823 4.674833 3.392242 0
M  V30 31 C 2.457075 5.302141 2.200111 0
M  V30 32 C 1.967791 4.947738 0.966448 0
M  V30 33 N 2.228651 5.571558 -0.266167 0
M  V30 34 C 3.023516 6.695975 -0.556205 0
M  V30 35 O 3.613540 7.284025 0.374366 0
M  V30 36 C 3.217561 7.250096 -1.926871 0
M  V30 37 C 1.976396 7.241911 -2.782061 0
M  V30 38 C 3.145039 6.315873 -3.091671 0
M  V30 39 C 1.140216 3.851894 0.991219 0
M  V30 40 C -0.707228 -1.141995 3.002257 0
M  V30 41 H -2.280711 -4.806028 3.099100 0
M  V30 42 H -1.051288 -6.987378 2.860339 0
M  V30 43 H 0.316709 -6.088061 3.492935 0
M  V30 44 H 0.976058 -7.053046 1.366415 0
M  V30 45 H 0.850250 -5.282981 1.143599 0
M  V30 46 H -1.283088 -7.274189 0.331820 0
M  V30 47 H 1.124500 -6.521015 -0.919197 0
M  V30 48 H -0.236822 -7.476345 -1.568103 0
M  V30 49 H 0.162730 -4.462693 -1.687549 0
M  V30 50 H 0.231902 -5.581175 -3.045494 0
M  V30 51 H -3.181304 -4.241639 -3.370743 0
M  V30 52 H -1.690706 -4.428688 -4.289175 0
M  V30 53 H -3.566255 -2.450302 -1.762529 0
M  V30 54 H -2.969995 -0.247368 -1.038559 0
M  V30 55 H -0.782726 0.694983 -1.596029 0
M  V30 56 H 0.233978 -2.851313 -3.639945 0
M  V30 57 H -3.386751 -4.749774 -1.187387 0
M  V30 58 H -2.870269 -6.467293 -1.145700 0
M  V30 59 H -2.476102 -5.294599 0.885754 0
M  V30 60 H -1.242436 -4.217670 0.028425 0
M  V30 61 H -3.361555 -3.096763 3.211773 0
M  V30 62 H -3.029890 1.144234 3.539609 0
M  V30 63 H -0.057693 1.436665 4.122040 0
M  V30 64 H 1.134258 3.061182 4.287562 0
M  V30 65 H 2.604333 4.989266 4.335392 0
M  V30 66 H 3.114621 6.151757 2.275887 0
M  V30 67 H 1.797959 5.188645 -1.133836 0
M  V30 68 H 3.859621 8.129067 -2.021385 0
M  V30 69 H 1.069079 6.708852 -2.470579 0
M  V30 70 H 1.777574 8.091999 -3.477726 0
M  V30 71 H 3.010545 5.223269 -2.927530 0
M  V30 72 H 3.755411 6.573953 -3.972254 0
M  V30 73 H 0.702127 3.501114 0.042858 0
M  V30 74 H 0.362699 -1.181817 2.845828 0
M  V30 END ATOM
M  V30 BEGIN BOND
M  V30 1 2 1 2
M  V30 2 1 2 3
M  V30 3 1 3 4
M  V30 4 1 4 5
M  V30 5 1 5 6
M  V30 6 1 6 7
M  V30 7 1 7 8
M  V30 8 1 8 9
M  V30 9 1 9 10
M  V30 10 1 10 11
M  V30 11 2 11 12
M  V30 12 1 12 13
M  V30 13 2 13 14
M  V30 14 1 14 15
M  V30 15 1 15 16
M  V30 16 2 15 17
M  V30 17 1 9 18
M  V30 18 1 18 19
M  V30 19 1 2 20
M  V30 20 2 20 21
M  V30 21 1 21 22
M  V30 22 2 22 23
M  V30 23 1 23 24
M  V30 24 1 24 25
M  V30 25 1 25 26
M  V30 26 2 26 27
M  V30 27 1 26 28
M  V30 28 2 28 29
M  V30 29 1 29 30
M  V30 30 2 30 31
M  V30 31 1 31 32
M  V30 32 1 32 33
M  V30 33 1 33 34
M  V30 34 2 34 35
M  V30 35 1 34 36
M  V30 36 1 36 37
M  V30 37 1 37 38
M  V30 38 2 32 39
M  V30 39 2 24 40
M  V30 40 1 19 6
M  V30 41 1 40 20
M  V30 42 1 17 11
M  V30 43 1 39 28
M  V30 44 1 38 36
M  V30 45 1 3 41
M  V30 46 1 4 42
M  V30 47 1 4 43
M  V30 48 1 5 44
M  V30 49 1 5 45
M  V30 50 1 6 46
M  V30 51 1 7 47
M  V30 52 1 7 48
M  V30 53 1 8 49
M  V30 54 1 8 50
M  V30 55 1 10 51
M  V30 56 1 10 52
M  V30 57 1 12 53
M  V30 58 1 13 54
M  V30 59 1 14 55
M  V30 60 1 17 56
M  V30 61 1 18 57
M  V30 62 1 18 58
M  V30 63 1 19 59
M  V30 64 1 19 60
M  V30 65 1 21 61
M  V30 66 1 23 62
M  V30 67 1 25 63
M  V30 68 1 29 64
M  V30 69 1 30 65
M  V30 70 1 31 66
M  V30 71 1 33 67
M  V30 72 1 36 68
M  V30 73 1 37 69
M  V30 74 1 37 70
M  V30 75 1 38 71
M  V30 76 1 38 72
M  V30 77 1 39 73
M  V30 78 1 40 74
M  V30 END BOND
M  V30 END CTAB
M  END
>  <Dataset>  (954) 
ChEMBL_Kinases

>  <Ligand_Instance>  (954) 
nan

>  <PDB_ID>  (954) 
nan

>  <Standardized_SMILES>  (954) 
O=C(NCCC1CCN(Cc2cccc(Cl)c2)CC1)c1cncc(NC(=O)c2cccc(NC(=O)C3CC3)c2)c1

>  <Name>  (954) 
nan

>  <Pocket>  (954) 
nan

>  <ATP_Site>  (954) 
nan

>  <Peripheral>  (954) 
nan

>  <Num_H_Atoms_ProtBoundConf>  (954) 
nan

>  <Num_Resolved_Atoms>  (954) 
nan

>  <Num_Not_Resolved_Atoms>  (954) 
nan

$$$$
CHEMBL408224
     RDKit          3D

  0  0  0  0  0  0  0  0  0  0999 V3000
M  V30 BEGIN CTAB
M  V30 COUNTS 51 54 0 0 0
M  V30 BEGIN ATOM
M  V30 1 C -1.880773 -0.627155 -3.291081 0
M  V30 2 O -2.063363 -0.884895 -1.934548 0
M  V30 3 C -1.192419 -0.493857 -0.950285 0
M  V30 4 O -0.538564 -0.012924 -1.878260 0
M  V30 5 C -0.806487 -0.424482 0.420971 0
M  V30 6 C 0.381559 0.256374 0.605206 0
M  V30 7 C 1.184374 0.817963 -0.444327 0
M  V30 8 C 1.040623 2.108732 -0.927649 0
M  V30 9 C 1.801647 2.668602 -1.935632 0
M  V30 10 C 2.781157 1.841694 -2.486448 0
M  V30 11 C 2.981532 0.543670 -2.054537 0
M  V30 12 C 2.174763 0.046667 -1.032526 0
M  V30 13 C 0.823550 0.401666 1.922971 0
M  V30 14 C 1.999056 1.066676 2.208392 0
M  V30 15 C 2.461120 1.229129 3.468731 0
M  V30 16 O 3.616517 1.877812 3.806683 0
M  V30 17 C 4.518839 2.482599 2.931335 0
M  V30 18 C 1.707737 0.698712 4.495234 0
M  V30 19 C 0.535048 0.036158 4.200326 0
M  V30 20 C 0.042518 -0.142558 2.920982 0
M  V30 21 C -1.131840 -0.807374 2.637382 0
M  V30 22 O -1.697806 -1.227997 3.674861 0
M  V30 23 N -1.587316 -0.965996 1.371370 0
M  V30 24 C -2.804207 -1.658772 1.172746 0
M  V30 25 C -2.752129 -3.114564 1.047747 0
M  V30 26 C -2.557907 -3.894184 -0.072321 0
M  V30 27 C -2.520635 -5.266898 -0.140483 0
M  V30 28 C -2.695080 -5.967688 1.033197 0
M  V30 29 C -2.896592 -5.273422 2.208096 0
M  V30 30 C -2.922415 -3.893855 2.203643 0
M  V30 31 H -0.979269 -1.114180 -3.661865 0
M  V30 32 H -1.895074 0.464886 -3.464606 0
M  V30 33 H -2.785157 -1.067599 -3.804563 0
M  V30 34 H 0.281344 2.743412 -0.497673 0
M  V30 35 H 1.632619 3.672802 -2.256174 0
M  V30 36 H 3.406753 2.228913 -3.279850 0
M  V30 37 H 3.756675 -0.079665 -2.505430 0
M  V30 38 H 2.310899 -0.979884 -0.669281 0
M  V30 39 H 2.583989 1.481209 1.379995 0
M  V30 40 H 5.393642 2.804817 3.559231 0
M  V30 41 H 4.907418 1.758381 2.185699 0
M  V30 42 H 4.027641 3.364461 2.482273 0
M  V30 43 H 2.028432 0.797315 5.534475 0
M  V30 44 H -0.029205 -0.366379 5.030648 0
M  V30 45 H -3.360676 -1.236155 0.306083 0
M  V30 46 H -3.474318 -1.426400 2.050625 0
M  V30 47 H -2.420567 -3.372404 -1.002623 0
M  V30 48 H -2.360274 -5.765292 -1.082382 0
M  V30 49 H -2.665612 -7.045253 0.978806 0
M  V30 50 H -3.022137 -5.898356 3.066796 0
M  V30 51 H -3.091927 -3.511169 3.192705 0
M  V30 END ATOM
M  V30 BEGIN BOND
M  V30 1 1 1 2
M  V30 2 1 2 3
M  V30 3 2 3 4
M  V30 4 1 3 5
M  V30 5 2 5 6
M  V30 6 1 6 7
M  V30 7 2 7 8
M  V30 8 1 8 9
M  V30 9 2 9 10
M  V30 10 1 10 11
M  V30 11 2 11 12
M  V30 12 1 6 13
M  V30 13 2 13 14
M  V30 14 1 14 15
M  V30 15 1 15 16
M  V30 16 1 16 17
M  V30 17 2 15 18
M  V30 18 1 18 19
M  V30 19 2 19 20
M  V30 20 1 20 21
M  V30 21 2 21 22
M  V30 22 1 21 23
M  V30 23 1 23 24
M  V30 24 1 24 25
M  V30 25 2 25 26
M  V30 26 1 26 27
M  V30 27 2 27 28
M  V30 28 1 28 29
M  V30 29 2 29 30
M  V30 30 1 23 5
M  V30 31 1 30 25
M  V30 32 1 12 7
M  V30 33 1 20 13
M  V30 34 1 1 31
M  V30 35 1 1 32
M  V30 36 1 1 33
M  V30 37 1 8 34
M  V30 38 1 9 35
M  V30 39 1 10 36
M  V30 40 1 11 37
M  V30 41 1 12 38
M  V30 42 1 14 39
M  V30 43 1 17 40
M  V30 44 1 17 41
M  V30 45 1 17 42
M  V30 46 1 18 43
M  V30 47 1 19 44
M  V30 48 1 24 45
M  V30 49 1 24 46
M  V30 50 1 26 47
M  V30 51 1 27 48
M  V30 52 1 28 49
M  V30 53 1 29 50
M  V30 54 1 30 51
M  V30 END BOND
M  V30 END CTAB
M  END
>  <Dataset>  (955) 
ChEMBL_Kinases

>  <Ligand_Instance>  (955) 
nan

>  <PDB_ID>  (955) 
nan

>  <Standardized_SMILES>  (955) 
COC(=O)c1c(-c2ccccc2)c2cc(OC)ccc2c(=O)n1Cc1ccccc1

>  <Name>  (955) 
nan

>  <Pocket>  (955) 
nan

>  <ATP_Site>  (955) 
nan

>  <Peripheral>  (955) 
nan

>  <Num_H_Atoms_ProtBoundConf>  (955) 
nan

>  <Num_Resolved_Atoms>  (955) 
nan

>  <Num_Not_Resolved_Atoms>  (955) 
nan

$$$$
CHEMBL4853678
     RDKit          3D

  0  0  0  0  0  0  0  0  0  0999 V3000
M  V30 BEGIN CTAB
M  V30 COUNTS 64 68 0 0 0
M  V30 BEGIN ATOM
M  V30 1 C 4.979213 -2.083722 3.270479 0
M  V30 2 O 4.651684 -0.906882 2.565186 0
M  V30 3 C 4.532844 0.265480 3.295406 0
M  V30 4 C 4.713829 0.360125 4.677459 0
M  V30 5 C 4.574011 1.573097 5.315745 0
M  V30 6 C 4.255322 2.727953 4.627163 0
M  V30 7 F 4.104792 3.954729 5.202396 0
M  V30 8 C 4.066386 2.669436 3.236003 0
M  V30 9 C 4.213580 1.435563 2.628304 0
M  V30 10 C 3.993018 1.473374 1.164775 0
M  V30 11 C 5.073045 1.708017 0.306205 0
M  V30 12 F 6.326677 1.898951 0.814534 0
M  V30 13 C 4.766001 1.725532 -1.053924 0
M  V30 14 N 3.522098 1.532267 -1.525922 0
M  V30 15 C 2.507139 1.309568 -0.674796 0
M  V30 16 N 1.192700 1.093370 -0.869096 0
M  V30 17 C 0.518375 0.916837 0.292986 0
M  V30 18 C -0.918830 0.666593 0.383939 0
M  V30 19 C -1.628448 0.597532 -0.741161 0
M  V30 20 C -3.089392 0.341339 -0.614176 0
M  V30 21 N -3.431842 -0.421034 0.513046 0
M  V30 22 C -3.882077 -1.746837 0.355451 0 CFG=1
M  V30 23 C -5.146664 -1.825114 -0.460632 0
M  V30 24 C -5.115024 -3.146094 -1.226285 0
M  V30 25 C -4.022253 -2.965366 -2.275233 0 CFG=2
M  V30 26 C -4.094624 -4.042466 -3.331207 0
M  V30 27 C -3.061726 -3.917893 -4.375507 0
M  V30 28 O -1.845846 -3.844772 -4.004782 0
M  V30 29 O -3.028477 -3.846341 -5.756014 0
M  V30 30 C -2.716296 -2.888646 -1.567189 0
M  V30 31 C -2.842968 -2.736682 -0.073833 0
M  V30 32 C -2.861554 -0.050771 1.758277 0
M  V30 33 C -1.487790 0.509505 1.744016 0
M  V30 34 C 1.480918 1.031084 1.275694 0
M  V30 35 C 2.693544 1.269800 0.696675 0
M  V30 36 H 6.061140 -2.088336 3.577039 0
M  V30 37 H 4.890744 -2.991054 2.617505 0
M  V30 38 H 4.428421 -2.231159 4.211935 0
M  V30 39 H 4.969963 -0.540342 5.218474 0
M  V30 40 H 4.712749 1.647491 6.388641 0
M  V30 41 H 3.816496 3.578919 2.691738 0
M  V30 42 H 5.659326 1.914815 -1.657495 0
M  V30 43 H 0.783097 1.069889 -1.830316 0
M  V30 44 H -1.222417 0.714090 -1.735710 0
M  V30 45 H -3.540596 1.364557 -0.495595 0
M  V30 46 H -3.530086 -0.069141 -1.525068 0
M  V30 47 H -4.181053 -2.090547 1.394607 0
M  V30 48 H -5.284686 -1.019013 -1.186886 0
M  V30 49 H -6.057242 -1.857772 0.174502 0
M  V30 50 H -4.767635 -3.974657 -0.541058 0
M  V30 51 H -6.090284 -3.398815 -1.665272 0
M  V30 52 H -4.307474 -2.013296 -2.803073 0
M  V30 53 H -3.916254 -5.037134 -2.826356 0
M  V30 54 H -5.087604 -4.127862 -3.816250 0
M  V30 55 H -2.615349 -3.015415 -6.202122 0
M  V30 56 H -2.023658 -2.121022 -1.991738 0
M  V30 57 H -2.192451 -3.865529 -1.710963 0
M  V30 58 H -1.857099 -2.394114 0.292626 0
M  V30 59 H -2.991615 -3.733560 0.402404 0
M  V30 60 H -2.855343 -0.980723 2.395796 0
M  V30 61 H -3.560585 0.642980 2.271837 0
M  V30 62 H -0.798874 -0.088040 2.390120 0
M  V30 63 H -1.500011 1.542527 2.195870 0
M  V30 64 H 1.277482 0.939353 2.324541 0
M  V30 END ATOM
M  V30 BEGIN BOND
M  V30 1 1 1 2
M  V30 2 1 2 3
M  V30 3 2 3 4
M  V30 4 1 4 5
M  V30 5 2 5 6
M  V30 6 1 6 7
M  V30 7 1 6 8
M  V30 8 2 8 9
M  V30 9 1 9 10
M  V30 10 2 10 11
M  V30 11 1 11 12
M  V30 12 1 11 13
M  V30 13 2 13 14
M  V30 14 1 14 15
M  V30 15 1 15 16
M  V30 16 1 16 17
M  V30 17 1 17 18
M  V30 18 2 18 19
M  V30 19 1 19 20
M  V30 20 1 20 21
M  V30 21 1 21 22
M  V30 22 1 22 23
M  V30 23 1 23 24
M  V30 24 1 24 25
M  V30 25 1 25 26
M  V30 26 1 26 27
M  V30 27 2 27 28
M  V30 28 1 27 29
M  V30 29 1 25 30
M  V30 30 1 30 31
M  V30 31 1 21 32
M  V30 32 1 32 33
M  V30 33 2 17 34
M  V30 34 1 34 35
M  V30 35 1 9 3
M  V30 36 1 35 10
M  V30 37 2 35 15
M  V30 38 1 33 18
M  V30 39 1 31 22
M  V30 40 1 1 36
M  V30 41 1 1 37
M  V30 42 1 1 38
M  V30 43 1 4 39
M  V30 44 1 5 40
M  V30 45 1 8 41
M  V30 46 1 13 42
M  V30 47 1 16 43
M  V30 48 1 19 44
M  V30 49 1 20 45
M  V30 50 1 20 46
M  V30 51 1 22 47 CFG=1
M  V30 52 1 23 48
M  V30 53 1 23 49
M  V30 54 1 24 50
M  V30 55 1 24 51
M  V30 56 1 25 52 CFG=3
M  V30 57 1 26 53
M  V30 58 1 26 54
M  V30 59 1 29 55
M  V30 60 1 30 56
M  V30 61 1 30 57
M  V30 62 1 31 58
M  V30 63 1 31 59
M  V30 64 1 32 60
M  V30 65 1 32 61
M  V30 66 1 33 62
M  V30 67 1 33 63
M  V30 68 1 34 64
M  V30 END BOND
M  V30 END CTAB
M  END
>  <Dataset>  (956) 
ChEMBL_Kinases

>  <Ligand_Instance>  (956) 
nan

>  <PDB_ID>  (956) 
nan

>  <Standardized_SMILES>  (956) 
COc1ccc(F)cc1-c1c(F)cnc2[nH]c(C3=CCN([C@H]4CC[C@H](CC(=O)O)CC4)CC3)cc12

>  <Name>  (956) 
nan

>  <Pocket>  (956) 
nan

>  <ATP_Site>  (956) 
nan

>  <Peripheral>  (956) 
nan

>  <Num_H_Atoms_ProtBoundConf>  (956) 
nan

>  <Num_Resolved_Atoms>  (956) 
nan

>  <Num_Not_Resolved_Atoms>  (956) 
nan

$$$$
CHEMBL4082198
     RDKit          3D

  0  0  0  0  0  0  0  0  0  0999 V3000
M  V30 BEGIN CTAB
M  V30 COUNTS 52 55 0 0 0
M  V30 BEGIN ATOM
M  V30 1 C -1.965862 0.516707 -0.515711 0
M  V30 2 C -0.859044 0.636914 0.477084 0 CFG=2
M  V30 3 C 0.425061 1.062557 -0.263020 0
M  V30 4 N 1.512565 1.180287 0.652678 0
M  V30 5 C 2.754545 0.789478 0.095490 0
M  V30 6 C 3.931541 1.000686 1.007855 0
M  V30 7 C 4.477794 0.108950 1.905280 0
M  V30 8 C 5.558347 0.471725 2.676362 0
M  V30 9 C 6.064490 1.743266 2.516512 0
M  V30 10 C 5.548503 2.661898 1.632425 0
M  V30 11 C 4.466743 2.289757 0.864564 0
M  V30 12 C 1.254433 0.859318 2.007471 0
M  V30 13 C 0.321155 -0.256915 2.302782 0
M  V30 14 N -0.498124 -0.588016 1.156725 0
M  V30 15 C -1.071938 -1.712641 0.501161 0
M  V30 16 N -2.415505 -1.786192 0.529426 0
M  V30 17 C -3.101566 -2.781091 -0.048980 0
M  V30 18 C -4.548343 -2.905462 -0.052836 0
M  V30 19 C -5.423524 -2.030688 0.529152 0
M  V30 20 C -6.789623 -2.121194 0.550385 0
M  V30 21 N -7.328443 -3.204200 -0.078498 0
M  V30 22 C -6.484176 -4.083474 -0.662374 0
M  V30 23 N -5.137070 -3.949934 -0.656778 0
M  V30 24 C -2.338098 -3.735027 -0.681475 0
M  V30 25 C -0.958626 -3.715817 -0.745117 0
M  V30 26 O -0.295891 -4.607938 -1.334559 0
M  V30 27 N -0.372425 -2.667695 -0.128265 0
M  V30 28 C 1.076588 -2.612066 -0.171752 0
M  V30 29 H -2.002214 1.495041 -1.081604 0
M  V30 30 H -2.960553 0.460241 -0.016773 0
M  V30 31 H -1.773037 -0.298272 -1.233861 0
M  V30 32 H -1.113117 1.470608 1.197951 0
M  V30 33 H 0.596672 0.226034 -0.980941 0
M  V30 34 H 0.225951 1.964347 -0.874105 0
M  V30 35 H 2.794589 -0.283567 -0.195175 0
M  V30 36 H 2.906820 1.336154 -0.867823 0
M  V30 37 H 3.969000 -0.868481 1.924096 0
M  V30 38 H 5.951012 -0.257138 3.360119 0
M  V30 39 H 6.913671 2.072948 3.100706 0
M  V30 40 H 5.969668 3.670959 1.524440 0
M  V30 41 H 4.080125 3.049198 0.167389 0
M  V30 42 H 2.240649 0.747159 2.521567 0
M  V30 43 H 0.843095 1.805981 2.478501 0
M  V30 44 H -0.404182 0.073852 3.098425 0
M  V30 45 H 0.827607 -1.147375 2.746960 0
M  V30 46 H -5.007490 -1.151480 1.040712 0
M  V30 47 H -7.439050 -1.401021 1.025136 0
M  V30 48 H -6.769907 -4.997752 -1.203063 0
M  V30 49 H -2.817411 -4.584563 -1.180448 0
M  V30 50 H 1.540086 -3.636654 -0.271941 0
M  V30 51 H 1.542651 -2.150071 0.701495 0
M  V30 52 H 1.446196 -2.055888 -1.064060 0
M  V30 END ATOM
M  V30 BEGIN BOND
M  V30 1 1 1 2
M  V30 2 1 2 3
M  V30 3 1 3 4
M  V30 4 1 4 5
M  V30 5 1 5 6
M  V30 6 2 6 7
M  V30 7 1 7 8
M  V30 8 2 8 9
M  V30 9 1 9 10
M  V30 10 2 10 11
M  V30 11 1 4 12
M  V30 12 1 12 13
M  V30 13 1 13 14
M  V30 14 1 14 15
M  V30 15 2 15 16
M  V30 16 1 16 17
M  V30 17 1 17 18
M  V30 18 2 18 19
M  V30 19 1 19 20
M  V30 20 2 20 21
M  V30 21 1 21 22
M  V30 22 2 22 23
M  V30 23 2 17 24
M  V30 24 1 24 25
M  V30 25 2 25 26
M  V30 26 1 25 27
M  V30 27 1 27 28
M  V30 28 1 14 2
M  V30 29 1 27 15
M  V30 30 1 11 6
M  V30 31 1 23 18
M  V30 32 1 1 29
M  V30 33 1 1 30
M  V30 34 1 1 31
M  V30 35 1 2 32 CFG=1
M  V30 36 1 3 33
M  V30 37 1 3 34
M  V30 38 1 5 35
M  V30 39 1 5 36
M  V30 40 1 7 37
M  V30 41 1 8 38
M  V30 42 1 9 39
M  V30 43 1 10 40
M  V30 44 1 11 41
M  V30 45 1 12 42
M  V30 46 1 12 43
M  V30 47 1 13 44
M  V30 48 1 13 45
M  V30 49 1 19 46
M  V30 50 1 20 47
M  V30 51 1 22 48
M  V30 52 1 24 49
M  V30 53 1 28 50
M  V30 54 1 28 51
M  V30 55 1 28 52
M  V30 END BOND
M  V30 END CTAB
M  END
>  <Dataset>  (957) 
ChEMBL_Kinases

>  <Ligand_Instance>  (957) 
nan

>  <PDB_ID>  (957) 
nan

>  <Standardized_SMILES>  (957) 
C[C@@H]1CN(Cc2ccccc2)CCN1c1nc(-c2ccncn2)cc(=O)n1C

>  <Name>  (957) 
nan

>  <Pocket>  (957) 
nan

>  <ATP_Site>  (957) 
nan

>  <Peripheral>  (957) 
nan

>  <Num_H_Atoms_ProtBoundConf>  (957) 
nan

>  <Num_Resolved_Atoms>  (957) 
nan

>  <Num_Not_Resolved_Atoms>  (957) 
nan

$$$$
CHEMBL4853679
     RDKit          3D

  0  0  0  0  0  0  0  0  0  0999 V3000
M  V30 BEGIN CTAB
M  V30 COUNTS 51 53 0 0 0
M  V30 BEGIN ATOM
M  V30 1 N -1.467356 -4.842803 6.790029 0
M  V30 2 C -1.478193 -3.846538 6.210438 0
M  V30 3 C -1.507868 -2.613453 5.481782 0
M  V30 4 C -2.577715 -1.767224 5.570671 0
M  V30 5 C -2.658703 -0.581505 4.898681 0
M  V30 6 C -1.643615 -0.147578 4.065753 0
M  V30 7 N -1.672686 1.068958 3.351735 0
M  V30 8 C -0.750304 1.610630 2.417646 0
M  V30 9 N -1.024110 2.827085 1.917643 0
M  V30 10 C -0.256428 3.468782 1.029643 0
M  V30 11 C 0.880027 2.813856 0.621813 0
M  V30 12 C 1.736311 3.524757 -0.369562 0
M  V30 13 F 1.215751 4.773244 -0.710859 0
M  V30 14 F 1.924498 2.749306 -1.498114 0
M  V30 15 F 2.980250 3.753809 0.184429 0
M  V30 16 C 1.208323 1.550631 1.110837 0
M  V30 17 N 2.388868 0.919020 0.671399 0
M  V30 18 C 2.820843 -0.388713 1.106736 0
M  V30 19 C 1.851946 -1.471678 0.718008 0
M  V30 20 C 1.727432 -1.485667 -0.818144 0
M  V30 21 N 0.816561 -2.502900 -1.247031 0
M  V30 22 C 0.628043 -2.624353 -2.659286 0
M  V30 23 C 0.059510 -1.331793 -3.195257 0
M  V30 24 C -1.279986 -1.317649 -2.450281 0
M  V30 25 C -1.782406 -2.713753 -2.749947 0
M  V30 26 C -0.538338 -3.576275 -2.866073 0
M  V30 27 N 0.366614 1.001557 1.997180 0
M  V30 28 C -0.595256 -1.034710 4.013880 0
M  V30 29 N -0.515492 -2.193243 4.670107 0
M  V30 30 H -3.414981 -2.035069 6.203309 0
M  V30 31 H -3.551742 0.052472 5.016854 0
M  V30 32 H -2.542439 1.637137 3.582723 0
M  V30 33 H -0.550632 4.438013 0.683485 0
M  V30 34 H 3.013024 1.401142 -0.011361 0
M  V30 35 H 2.926335 -0.429978 2.228013 0
M  V30 36 H 3.819014 -0.659319 0.716787 0
M  V30 37 H 2.268753 -2.465476 0.981121 0
M  V30 38 H 0.862553 -1.391199 1.172067 0
M  V30 39 H 2.741296 -1.725058 -1.201101 0
M  V30 40 H 1.439754 -0.494174 -1.183719 0
M  V30 41 H 0.945001 -3.407620 -0.742869 0
M  V30 42 H 1.529791 -2.945691 -3.221479 0
M  V30 43 H 0.665313 -0.448693 -3.036964 0
M  V30 44 H -0.231187 -1.459577 -4.268026 0
M  V30 45 H -1.109960 -1.281913 -1.348489 0
M  V30 46 H -1.939550 -0.521779 -2.796485 0
M  V30 47 H -2.315701 -2.680841 -3.734636 0
M  V30 48 H -2.448909 -3.083874 -1.942257 0
M  V30 49 H -0.514914 -4.413377 -2.149301 0
M  V30 50 H -0.481219 -3.980610 -3.903233 0
M  V30 51 H 0.281582 -0.853023 3.416366 0
M  V30 END ATOM
M  V30 BEGIN BOND
M  V30 1 3 1 2
M  V30 2 1 2 3
M  V30 3 2 3 4
M  V30 4 1 4 5
M  V30 5 2 5 6
M  V30 6 1 6 7
M  V30 7 1 7 8
M  V30 8 2 8 9
M  V30 9 1 9 10
M  V30 10 2 10 11
M  V30 11 1 11 12
M  V30 12 1 12 13
M  V30 13 1 12 14
M  V30 14 1 12 15
M  V30 15 1 11 16
M  V30 16 1 16 17
M  V30 17 1 17 18
M  V30 18 1 18 19
M  V30 19 1 19 20
M  V30 20 1 20 21
M  V30 21 1 21 22
M  V30 22 1 22 23
M  V30 23 1 23 24
M  V30 24 1 24 25
M  V30 25 1 25 26
M  V30 26 2 16 27
M  V30 27 1 6 28
M  V30 28 2 28 29
M  V30 29 1 29 3
M  V30 30 1 27 8
M  V30 31 1 26 22
M  V30 32 1 4 30
M  V30 33 1 5 31
M  V30 34 1 7 32
M  V30 35 1 10 33
M  V30 36 1 17 34
M  V30 37 1 18 35
M  V30 38 1 18 36
M  V30 39 1 19 37
M  V30 40 1 19 38
M  V30 41 1 20 39
M  V30 42 1 20 40
M  V30 43 1 21 41
M  V30 44 1 22 42
M  V30 45 1 23 43
M  V30 46 1 23 44
M  V30 47 1 24 45
M  V30 48 1 24 46
M  V30 49 1 25 47
M  V30 50 1 25 48
M  V30 51 1 26 49
M  V30 52 1 26 50
M  V30 53 1 28 51
M  V30 END BOND
M  V30 END CTAB
M  END
>  <Dataset>  (958) 
ChEMBL_Kinases

>  <Ligand_Instance>  (958) 
nan

>  <PDB_ID>  (958) 
nan

>  <Standardized_SMILES>  (958) 
N#Cc1ccc(Nc2ncc(C(F)(F)F)c(NCCCNC3CCCC3)n2)cn1

>  <Name>  (958) 
nan

>  <Pocket>  (958) 
nan

>  <ATP_Site>  (958) 
nan

>  <Peripheral>  (958) 
nan

>  <Num_H_Atoms_ProtBoundConf>  (958) 
nan

>  <Num_Resolved_Atoms>  (958) 
nan

>  <Num_Not_Resolved_Atoms>  (958) 
nan

$$$$
CHEMBL4853778
     RDKit          3D

  0  0  0  0  0  0  0  0  0  0999 V3000
M  V30 BEGIN CTAB
M  V30 COUNTS 78 82 0 0 0
M  V30 BEGIN ATOM
M  V30 1 C 5.662169 -2.502688 5.211433 0
M  V30 2 C 5.146671 -2.128522 3.836859 0
M  V30 3 C 5.051525 -0.667342 3.756351 0
M  V30 4 O 5.381230 0.090368 4.714131 0
M  V30 5 N 4.581640 -0.048441 2.593215 0
M  V30 6 C 4.377531 1.329549 2.218139 0 CFG=1
M  V30 7 C 5.182643 1.718278 0.999380 0
M  V30 8 C 4.313744 1.852211 -0.230020 0
M  V30 9 C 3.327239 2.984692 0.024099 0 CFG=1
M  V30 10 N 2.504017 3.215865 -1.145251 0
M  V30 11 C 2.785682 4.252762 -1.988028 0
M  V30 12 O 3.773028 5.023185 -1.751436 0
M  V30 13 C 2.036214 4.517426 -3.113473 0
M  V30 14 C 0.950740 3.728244 -3.437577 0
M  V30 15 C 0.087803 3.934673 -4.623113 0
M  V30 16 C 0.690249 2.689150 -2.568798 0
M  V30 17 C -0.370866 1.852861 -2.813135 0
M  V30 18 N -0.651908 0.839859 -1.995793 0
M  V30 19 C 0.072962 0.584250 -0.907001 0
M  V30 20 N -0.150078 -0.465358 0.021618 0
M  V30 21 C -1.147429 -1.455506 0.010243 0
M  V30 22 C -1.285909 -2.388520 1.014615 0
M  V30 23 C -2.256286 -3.363748 1.015017 0
M  V30 24 C -3.181719 -3.475350 -0.019159 0
M  V30 25 N -4.125474 -4.535234 0.079313 0
M  V30 26 C -4.338111 -5.319936 1.308607 0
M  V30 27 C -5.851203 -5.467601 1.432361 0
M  V30 28 N -6.518949 -4.353294 0.782907 0
M  V30 29 C -6.117972 -3.077014 1.288805 0
M  V30 30 C -6.387542 -4.455579 -0.665473 0
M  V30 31 C -5.001293 -5.038549 -0.962932 0
M  V30 32 C -3.049176 -2.549405 -1.021741 0
M  V30 33 O -3.955917 -2.633263 -2.063800 0
M  V30 34 C -3.960457 -1.760061 -3.172644 0
M  V30 35 C -2.070695 -1.581852 -1.003077 0
M  V30 36 N 1.098192 1.410888 -0.691824 0
M  V30 37 C 1.455697 2.447754 -1.451482 0
M  V30 38 C 2.565954 2.809030 1.294552 0
M  V30 39 C 2.887474 1.536551 2.037763 0
M  V30 40 H 6.423138 -1.773527 5.532339 0
M  V30 41 H 6.069527 -3.542498 5.178842 0
M  V30 42 H 4.830341 -2.452312 5.951909 0
M  V30 43 H 4.131366 -2.570841 3.728027 0
M  V30 44 H 5.835966 -2.545696 3.065710 0
M  V30 45 H 4.291757 -0.618083 1.761215 0
M  V30 46 H 4.679484 1.999922 3.067860 0
M  V30 47 H 5.670843 2.718481 1.152292 0
M  V30 48 H 5.995154 0.994355 0.851879 0
M  V30 49 H 4.952043 2.171107 -1.058633 0
M  V30 50 H 3.743955 0.963161 -0.483234 0
M  V30 51 H 3.996909 3.884637 0.176300 0
M  V30 52 H 2.253934 5.336259 -3.786033 0
M  V30 53 H -0.992252 4.008052 -4.391526 0
M  V30 54 H 0.229470 3.033588 -5.270870 0
M  V30 55 H 0.419264 4.868398 -5.116863 0
M  V30 56 H -1.037155 1.940422 -3.648610 0
M  V30 57 H 0.521786 -0.525754 0.844319 0
M  V30 58 H -0.552665 -2.302416 1.836469 0
M  V30 59 H -2.175326 -3.984441 1.890650 0
M  V30 60 H -3.932368 -6.351838 1.185882 0
M  V30 61 H -3.892882 -4.884902 2.194983 0
M  V30 62 H -6.172812 -5.525863 2.493771 0
M  V30 63 H -6.168568 -6.389433 0.898372 0
M  V30 64 H -5.810874 -2.362128 0.481130 0
M  V30 65 H -6.971522 -2.541114 1.797876 0
M  V30 66 H -5.236152 -3.147514 1.975229 0
M  V30 67 H -6.384401 -3.427956 -1.080919 0
M  V30 68 H -7.180684 -5.046653 -1.119162 0
M  V30 69 H -5.140273 -6.153026 -0.861896 0
M  V30 70 H -4.635564 -4.783528 -1.964064 0
M  V30 71 H -4.528267 -2.180753 -4.030971 0
M  V30 72 H -4.332058 -0.730551 -2.911613 0
M  V30 73 H -2.934120 -1.579071 -3.584169 0
M  V30 74 H -2.092886 -0.936914 -1.846291 0
M  V30 75 H 2.760492 3.633861 2.043298 0
M  V30 76 H 1.458340 2.826581 1.181993 0
M  V30 77 H 2.450395 1.652543 3.066284 0
M  V30 78 H 2.480098 0.624646 1.606489 0
M  V30 END ATOM
M  V30 BEGIN BOND
M  V30 1 1 1 2
M  V30 2 1 2 3
M  V30 3 2 3 4
M  V30 4 1 3 5
M  V30 5 1 5 6
M  V30 6 1 6 7
M  V30 7 1 7 8
M  V30 8 1 8 9
M  V30 9 1 9 10
M  V30 10 1 10 11
M  V30 11 2 11 12
M  V30 12 1 11 13
M  V30 13 2 13 14
M  V30 14 1 14 15
M  V30 15 1 14 16
M  V30 16 2 16 17
M  V30 17 1 17 18
M  V30 18 2 18 19
M  V30 19 1 19 20
M  V30 20 1 20 21
M  V30 21 2 21 22
M  V30 22 1 22 23
M  V30 23 2 23 24
M  V30 24 1 24 25
M  V30 25 1 25 26
M  V30 26 1 26 27
M  V30 27 1 27 28
M  V30 28 1 28 29
M  V30 29 1 28 30
M  V30 30 1 30 31
M  V30 31 1 24 32
M  V30 32 1 32 33
M  V30 33 1 33 34
M  V30 34 2 32 35
M  V30 35 1 19 36
M  V30 36 2 36 37
M  V30 37 1 9 38
M  V30 38 1 38 39
M  V30 39 1 39 6
M  V30 40 1 37 10
M  V30 41 1 37 16
M  V30 42 1 35 21
M  V30 43 1 31 25
M  V30 44 1 1 40
M  V30 45 1 1 41
M  V30 46 1 1 42
M  V30 47 1 2 43
M  V30 48 1 2 44
M  V30 49 1 5 45
M  V30 50 1 6 46 CFG=1
M  V30 51 1 7 47
M  V30 52 1 7 48
M  V30 53 1 8 49
M  V30 54 1 8 50
M  V30 55 1 9 51 CFG=1
M  V30 56 1 13 52
M  V30 57 1 15 53
M  V30 58 1 15 54
M  V30 59 1 15 55
M  V30 60 1 17 56
M  V30 61 1 20 57
M  V30 62 1 22 58
M  V30 63 1 23 59
M  V30 64 1 26 60
M  V30 65 1 26 61
M  V30 66 1 27 62
M  V30 67 1 27 63
M  V30 68 1 29 64
M  V30 69 1 29 65
M  V30 70 1 29 66
M  V30 71 1 30 67
M  V30 72 1 30 68
M  V30 73 1 31 69
M  V30 74 1 31 70
M  V30 75 1 34 71
M  V30 76 1 34 72
M  V30 77 1 34 73
M  V30 78 1 35 74
M  V30 79 1 38 75
M  V30 80 1 38 76
M  V30 81 1 39 77
M  V30 82 1 39 78
M  V30 END BOND
M  V30 END CTAB
M  END
>  <Dataset>  (959) 
ChEMBL_Kinases

>  <Ligand_Instance>  (959) 
nan

>  <PDB_ID>  (959) 
nan

>  <Standardized_SMILES>  (959) 
CCC(=O)N[C@H]1CC[C@@H](n2c(=O)cc(C)c3cnc(Nc4ccc(N5CCN(C)CC5)c(OC)c4)nc32)CC1

>  <Name>  (959) 
nan

>  <Pocket>  (959) 
nan

>  <ATP_Site>  (959) 
nan

>  <Peripheral>  (959) 
nan

>  <Num_H_Atoms_ProtBoundConf>  (959) 
nan

>  <Num_Resolved_Atoms>  (959) 
nan

>  <Num_Not_Resolved_Atoms>  (959) 
nan

$$$$
CHEMBL4082385
     RDKit          3D

  0  0  0  0  0  0  0  0  0  0999 V3000
M  V30 BEGIN CTAB
M  V30 COUNTS 54 57 0 0 0
M  V30 BEGIN ATOM
M  V30 1 C 1.352048 -4.554084 3.542283 0
M  V30 2 O 0.911157 -3.861667 2.379604 0
M  V30 3 C 1.873067 -3.498043 1.447381 0
M  V30 4 C 3.215603 -3.778006 1.604330 0
M  V30 5 C 4.173571 -3.417209 0.678526 0
M  V30 6 F 5.494260 -3.721269 0.885970 0
M  V30 7 C 3.774253 -2.735025 -0.476917 0
M  V30 8 C 2.429601 -2.463067 -0.618348 0
M  V30 9 C 1.457475 -2.817162 0.298644 0
M  V30 10 C 0.024268 -2.516070 0.125824 0
M  V30 11 C -0.394069 -1.196675 0.701128 0
M  V30 12 N -1.700340 -0.751209 0.251295 0
M  V30 13 C -1.890703 0.616466 0.010962 0
M  V30 14 N -0.828221 1.420383 0.280618 0
M  V30 15 C -0.812814 2.754630 0.114643 0
M  V30 16 C 0.408666 3.479792 0.451075 0
M  V30 17 C 1.475023 2.751317 0.920575 0
M  V30 18 C 2.597648 3.504195 1.218158 0
M  V30 19 N 2.710072 4.854275 1.083027 0
M  V30 20 C 1.658540 5.569147 0.620510 0
M  V30 21 C 0.523283 4.845814 0.314642 0
M  V30 22 C -1.956565 3.351323 -0.363721 0
M  V30 23 C -3.049606 2.570075 -0.647294 0
M  V30 24 O -4.135821 3.072231 -1.093354 0
M  V30 25 N -2.995732 1.223628 -0.455416 0
M  V30 26 C -4.131912 0.431085 -0.760546 0
M  V30 27 C -2.570252 -1.850655 0.148614 0
M  V30 28 C -2.139591 -3.074974 0.977790 0
M  V30 29 N -0.868220 -3.583498 0.526732 0
M  V30 30 C -1.119829 -4.414265 -0.630821 0
M  V30 31 H 1.629019 -5.577380 3.210001 0
M  V30 32 H 0.488286 -4.691530 4.245601 0
M  V30 33 H 2.196965 -4.034672 4.034170 0
M  V30 34 H 3.549357 -4.313113 2.504876 0
M  V30 35 H 4.506819 -2.441997 -1.216399 0
M  V30 36 H 2.108271 -1.928785 -1.521155 0
M  V30 37 H -0.142165 -2.383442 -0.962834 0
M  V30 38 H 0.347055 -0.420664 0.427178 0
M  V30 39 H -0.323338 -1.281443 1.810458 0
M  V30 40 H 1.501574 1.689554 1.067125 0
M  V30 41 H 3.485386 3.008591 1.594953 0
M  V30 42 H 1.712488 6.633183 0.501946 0
M  V30 43 H -0.304153 5.435703 -0.052783 0
M  V30 44 H -1.987271 4.400352 -0.509244 0
M  V30 45 H -4.833800 0.244466 0.093150 0
M  V30 46 H -3.972883 -0.439974 -1.421070 0
M  V30 47 H -4.814454 1.056388 -1.429347 0
M  V30 48 H -2.513325 -2.247420 -0.892539 0
M  V30 49 H -3.603607 -1.724532 0.529788 0
M  V30 50 H -2.221966 -2.908268 2.057105 0
M  V30 51 H -2.890472 -3.860841 0.748142 0
M  V30 52 H -1.926227 -5.154926 -0.469665 0
M  V30 53 H -1.394924 -3.825494 -1.538948 0
M  V30 54 H -0.190535 -4.968696 -0.937724 0
M  V30 END ATOM
M  V30 BEGIN BOND
M  V30 1 1 1 2
M  V30 2 1 2 3
M  V30 3 2 3 4
M  V30 4 1 4 5
M  V30 5 1 5 6
M  V30 6 2 5 7
M  V30 7 1 7 8
M  V30 8 2 8 9
M  V30 9 1 9 10
M  V30 10 1 10 11
M  V30 11 1 11 12
M  V30 12 1 12 13
M  V30 13 2 13 14
M  V30 14 1 14 15
M  V30 15 1 15 16
M  V30 16 2 16 17
M  V30 17 1 17 18
M  V30 18 2 18 19
M  V30 19 1 19 20
M  V30 20 2 20 21
M  V30 21 2 15 22
M  V30 22 1 22 23
M  V30 23 2 23 24
M  V30 24 1 23 25
M  V30 25 1 25 26
M  V30 26 1 12 27
M  V30 27 1 27 28
M  V30 28 1 28 29
M  V30 29 1 29 30
M  V30 30 1 9 3
M  V30 31 1 29 10
M  V30 32 1 25 13
M  V30 33 1 21 16
M  V30 34 1 1 31
M  V30 35 1 1 32
M  V30 36 1 1 33
M  V30 37 1 4 34
M  V30 38 1 7 35
M  V30 39 1 8 36
M  V30 40 1 10 37
M  V30 41 1 11 38
M  V30 42 1 11 39
M  V30 43 1 17 40
M  V30 44 1 18 41
M  V30 45 1 20 42
M  V30 46 1 21 43
M  V30 47 1 22 44
M  V30 48 1 26 45
M  V30 49 1 26 46
M  V30 50 1 26 47
M  V30 51 1 27 48
M  V30 52 1 27 49
M  V30 53 1 28 50
M  V30 54 1 28 51
M  V30 55 1 30 52
M  V30 56 1 30 53
M  V30 57 1 30 54
M  V30 END BOND
M  V30 END CTAB
M  END
>  <Dataset>  (960) 
ChEMBL_Kinases

>  <Ligand_Instance>  (960) 
nan

>  <PDB_ID>  (960) 
nan

>  <Standardized_SMILES>  (960) 
COc1cc(F)ccc1C1CN(c2nc(-c3ccncc3)cc(=O)n2C)CCN1C

>  <Name>  (960) 
nan

>  <Pocket>  (960) 
nan

>  <ATP_Site>  (960) 
nan

>  <Peripheral>  (960) 
nan

>  <Num_H_Atoms_ProtBoundConf>  (960) 
nan

>  <Num_Resolved_Atoms>  (960) 
nan

>  <Num_Not_Resolved_Atoms>  (960) 
nan

$$$$
CHEMBL4082944
     RDKit          3D

  0  0  0  0  0  0  0  0  0  0999 V3000
M  V30 BEGIN CTAB
M  V30 COUNTS 54 57 0 0 0
M  V30 BEGIN ATOM
M  V30 1 C -2.672550 -3.433132 4.492668 0
M  V30 2 O -2.104290 -4.308161 3.531961 0
M  V30 3 C -1.291778 -3.759685 2.533755 0
M  V30 4 C -1.048682 -2.403955 2.483169 0
M  V30 5 C -0.249633 -1.849946 1.504731 0
M  V30 6 C 0.330501 -2.649151 0.544144 0
M  V30 7 C 1.204314 -2.321221 -0.589629 0
M  V30 8 C 1.262300 -0.825969 -0.813763 0
M  V30 9 N 0.019967 -0.260904 -1.299176 0
M  V30 10 C -0.297454 1.034024 -0.805722 0
M  V30 11 N 0.636017 1.619149 -0.036101 0
M  V30 12 C 0.475024 2.846875 0.507400 0
M  V30 13 C 1.554668 3.383206 1.324920 0
M  V30 14 C 1.526833 4.616055 1.938204 0
M  V30 15 C 2.560619 5.105895 2.707488 0
M  V30 16 N 3.687033 4.359760 2.894497 0
M  V30 17 C 3.699236 3.156942 2.288634 0
M  V30 18 N 2.690236 2.678350 1.537502 0
M  V30 19 C -0.669248 3.569861 0.297079 0
M  V30 20 C -1.626356 2.973245 -0.489991 0
M  V30 21 O -2.689605 3.586751 -0.714811 0
M  V30 22 N -1.408400 1.752462 -1.000900 0
M  V30 23 C -2.462367 1.189618 -1.800676 0
M  V30 24 C -0.651921 -1.127599 -2.212187 0
M  V30 25 C 0.344161 -2.097732 -2.808963 0
M  V30 26 N 0.864984 -3.015002 -1.821572 0
M  V30 27 C 0.088620 -4.013348 0.591331 0
M  V30 28 C -0.719715 -4.594068 1.576951 0
M  V30 29 O -0.999385 -5.945865 1.678640 0
M  V30 30 C -0.434457 -6.822319 0.721493 0
M  V30 31 H -3.445954 -3.951742 5.070952 0
M  V30 32 H -3.178211 -2.586208 3.946749 0
M  V30 33 H -1.888764 -2.963244 5.097116 0
M  V30 34 H -1.472031 -1.716798 3.205897 0
M  V30 35 H -0.004884 -0.814594 1.387625 0
M  V30 36 H 2.231916 -2.640904 -0.328751 0
M  V30 37 H 1.533309 -0.345880 0.144876 0
M  V30 38 H 2.110863 -0.555884 -1.502305 0
M  V30 39 H 0.668558 5.233668 1.820866 0
M  V30 40 H 2.525761 6.067283 3.178980 0
M  V30 41 H 4.601137 2.583059 2.450537 0
M  V30 42 H -0.854740 4.534771 0.694326 0
M  V30 43 H -2.733286 0.154985 -1.556845 0
M  V30 44 H -2.254444 1.393900 -2.869744 0
M  V30 45 H -3.441399 1.750149 -1.621447 0
M  V30 46 H -1.365037 -1.765754 -1.616403 0
M  V30 47 H -1.139756 -0.647800 -3.073018 0
M  V30 48 H 1.191438 -1.497163 -3.192358 0
M  V30 49 H -0.059531 -2.683693 -3.652934 0
M  V30 50 H 1.629176 -3.600287 -2.174641 0
M  V30 51 H 0.460830 -4.782200 -0.077390 0
M  V30 52 H -0.700085 -7.886912 0.947285 0
M  V30 53 H -0.818032 -6.562102 -0.296687 0
M  V30 54 H 0.675453 -6.684240 0.664935 0
M  V30 END ATOM
M  V30 BEGIN BOND
M  V30 1 1 1 2
M  V30 2 1 2 3
M  V30 3 2 3 4
M  V30 4 1 4 5
M  V30 5 2 5 6
M  V30 6 1 6 7
M  V30 7 1 7 8
M  V30 8 1 8 9
M  V30 9 1 9 10
M  V30 10 2 10 11
M  V30 11 1 11 12
M  V30 12 1 12 13
M  V30 13 2 13 14
M  V30 14 1 14 15
M  V30 15 2 15 16
M  V30 16 1 16 17
M  V30 17 2 17 18
M  V30 18 2 12 19
M  V30 19 1 19 20
M  V30 20 2 20 21
M  V30 21 1 20 22
M  V30 22 1 22 23
M  V30 23 1 9 24
M  V30 24 1 24 25
M  V30 25 1 25 26
M  V30 26 1 6 27
M  V30 27 2 27 28
M  V30 28 1 28 29
M  V30 29 1 29 30
M  V30 30 1 28 3
M  V30 31 1 26 7
M  V30 32 1 22 10
M  V30 33 1 18 13
M  V30 34 1 1 31
M  V30 35 1 1 32
M  V30 36 1 1 33
M  V30 37 1 4 34
M  V30 38 1 5 35
M  V30 39 1 7 36
M  V30 40 1 8 37
M  V30 41 1 8 38
M  V30 42 1 14 39
M  V30 43 1 15 40
M  V30 44 1 17 41
M  V30 45 1 19 42
M  V30 46 1 23 43
M  V30 47 1 23 44
M  V30 48 1 23 45
M  V30 49 1 24 46
M  V30 50 1 24 47
M  V30 51 1 25 48
M  V30 52 1 25 49
M  V30 53 1 26 50
M  V30 54 1 27 51
M  V30 55 1 30 52
M  V30 56 1 30 53
M  V30 57 1 30 54
M  V30 END BOND
M  V30 END CTAB
M  END
>  <Dataset>  (961) 
ChEMBL_Kinases

>  <Ligand_Instance>  (961) 
nan

>  <PDB_ID>  (961) 
nan

>  <Standardized_SMILES>  (961) 
COc1ccc(C2CN(c3nc(-c4ccncn4)cc(=O)n3C)CCN2)cc1OC

>  <Name>  (961) 
nan

>  <Pocket>  (961) 
nan

>  <ATP_Site>  (961) 
nan

>  <Peripheral>  (961) 
nan

>  <Num_H_Atoms_ProtBoundConf>  (961) 
nan

>  <Num_Resolved_Atoms>  (961) 
nan

>  <Num_Not_Resolved_Atoms>  (961) 
nan

$$$$
CHEMBL4082939
     RDKit          3D

  0  0  0  0  0  0  0  0  0  0999 V3000
M  V30 BEGIN CTAB
M  V30 COUNTS 55 59 0 0 0
M  V30 BEGIN ATOM
M  V30 1 N 9.388697 -0.744839 -1.641544 0
M  V30 2 C 8.444446 0.125362 -1.042857 0
M  V30 3 O 8.747118 1.266059 -0.648122 0
M  V30 4 C 7.087287 -0.423863 -0.925288 0
M  V30 5 C 6.736240 -1.690430 -1.333294 0
M  V30 6 C 5.457507 -2.180427 -1.212835 0
M  V30 7 C 4.444109 -1.394124 -0.659682 0
M  V30 8 C 4.866051 -0.115741 -0.265172 0
M  V30 9 C 6.137040 0.388011 -0.378045 0
M  V30 10 C 3.985286 0.911403 0.345880 0
M  V30 11 O 4.520100 1.933413 0.865378 0
M  V30 12 C 2.529772 0.862060 0.410007 0
M  V30 13 C 1.950996 1.801126 1.231281 0
M  V30 14 C 0.616255 2.001494 1.496443 0
M  V30 15 C -0.223817 1.108439 0.819930 0
M  V30 16 N -1.623378 1.210548 1.015711 0
M  V30 17 C -2.785168 0.607400 0.519939 0
M  V30 18 C -3.723475 -0.100959 1.268502 0
M  V30 19 C -4.855775 -0.667740 0.728295 0
M  V30 20 N -5.772056 -1.382725 1.547826 0
M  V30 21 C -6.889142 -0.977860 2.318168 0
M  V30 22 O -7.174736 0.247082 2.317147 0
M  V30 23 C -7.409001 -2.164423 2.919050 0
M  V30 24 C -8.543744 -2.059708 3.742668 0
M  V30 25 C -9.222643 -2.999220 4.407873 0
M  V30 26 C -8.585122 -4.310694 4.160812 0
M  V30 27 S -7.090629 -3.937024 2.987844 0
M  V30 28 C -4.984358 -0.474717 -0.625787 0
M  V30 29 F -6.093401 -1.017374 -1.214534 0
M  V30 30 C -4.148806 0.192300 -1.474780 0
M  V30 31 C -3.023354 0.739244 -0.853279 0
M  V30 32 F -2.150913 1.420911 -1.656730 0
M  V30 33 C 0.251649 0.123067 -0.031183 0
M  V30 34 C 1.633043 -0.000696 -0.236761 0
M  V30 35 C 2.010041 -1.093963 -1.169965 0
M  V30 36 C 3.075708 -1.964177 -0.546194 0
M  V30 37 H 9.695811 -1.441914 -0.923061 0
M  V30 38 H 10.065460 -1.367314 -2.073370 0
M  V30 39 H 7.493862 -2.331619 -1.768239 0
M  V30 40 H 5.138085 -3.164133 -1.517782 0
M  V30 41 H 6.417106 1.363472 -0.065828 0
M  V30 42 H 2.640823 2.477761 1.739417 0
M  V30 43 H 0.269107 2.774538 2.161550 0
M  V30 44 H -2.019711 1.900324 1.704181 0
M  V30 45 H -3.466704 -0.159695 2.316559 0
M  V30 46 H -5.294297 -2.313048 1.351867 0
M  V30 47 H -9.159633 -1.197262 4.051141 0
M  V30 48 H -9.822131 -3.696001 4.972469 0
M  V30 49 H -8.311067 -5.451420 4.152607 0
M  V30 50 H -4.339076 0.288618 -2.530210 0
M  V30 51 H -0.420456 -0.554447 -0.541793 0
M  V30 52 H 2.440956 -0.575585 -2.077012 0
M  V30 53 H 1.165901 -1.691125 -1.494642 0
M  V30 54 H 2.803350 -2.100860 0.532793 0
M  V30 55 H 3.065870 -2.938444 -1.070101 0
M  V30 END ATOM
M  V30 BEGIN BOND
M  V30 1 1 1 2
M  V30 2 2 2 3
M  V30 3 1 2 4
M  V30 4 2 4 5
M  V30 5 1 5 6
M  V30 6 2 6 7
M  V30 7 1 7 8
M  V30 8 2 8 9
M  V30 9 1 8 10
M  V30 10 2 10 11
M  V30 11 1 10 12
M  V30 12 2 12 13
M  V30 13 1 13 14
M  V30 14 2 14 15
M  V30 15 1 15 16
M  V30 16 1 16 17
M  V30 17 2 17 18
M  V30 18 1 18 19
M  V30 19 1 19 20
M  V30 20 1 20 21
M  V30 21 2 21 22
M  V30 22 1 21 23
M  V30 23 2 23 24
M  V30 24 1 24 25
M  V30 25 2 25 26
M  V30 26 1 26 27
M  V30 27 2 19 28
M  V30 28 1 28 29
M  V30 29 1 28 30
M  V30 30 2 30 31
M  V30 31 1 31 32
M  V30 32 1 15 33
M  V30 33 2 33 34
M  V30 34 1 34 35
M  V30 35 1 35 36
M  V30 36 1 9 4
M  V30 37 1 34 12
M  V30 38 1 36 7
M  V30 39 1 31 17
M  V30 40 1 27 23
M  V30 41 1 1 37
M  V30 42 1 1 38
M  V30 43 1 5 39
M  V30 44 1 6 40
M  V30 45 1 9 41
M  V30 46 1 13 42
M  V30 47 1 14 43
M  V30 48 1 16 44
M  V30 49 1 18 45
M  V30 50 1 20 46
M  V30 51 1 24 47
M  V30 52 1 25 48
M  V30 53 1 26 49
M  V30 54 1 30 50
M  V30 55 1 33 51
M  V30 56 1 35 52
M  V30 57 1 35 53
M  V30 58 1 36 54
M  V30 59 1 36 55
M  V30 END BOND
M  V30 END CTAB
M  END
>  <Dataset>  (962) 
ChEMBL_Kinases

>  <Ligand_Instance>  (962) 
nan

>  <PDB_ID>  (962) 
nan

>  <Standardized_SMILES>  (962) 
NC(=O)c1ccc2c(c1)C(=O)c1ccc(Nc3cc(NC(=O)c4cccs4)c(F)cc3F)cc1CC2

>  <Name>  (962) 
nan

>  <Pocket>  (962) 
nan

>  <ATP_Site>  (962) 
nan

>  <Peripheral>  (962) 
nan

>  <Num_H_Atoms_ProtBoundConf>  (962) 
nan

>  <Num_Resolved_Atoms>  (962) 
nan

>  <Num_Not_Resolved_Atoms>  (962) 
nan

$$$$
CHEMBL4852822
     RDKit          3D

  0  0  0  0  0  0  0  0  0  0999 V3000
M  V30 BEGIN CTAB
M  V30 COUNTS 50 54 0 0 0
M  V30 BEGIN ATOM
M  V30 1 C 3.105516 -2.904733 5.155869 0
M  V30 2 O 3.036163 -1.957868 4.125504 0
M  V30 3 C 4.081136 -1.072636 3.914463 0
M  V30 4 C 5.195275 -1.158349 4.759241 0
M  V30 5 C 6.271607 -0.314978 4.612886 0
M  V30 6 C 6.245117 0.629399 3.613729 0
M  V30 7 C 5.159866 0.742069 2.760568 0
M  V30 8 O 5.165273 1.703185 1.765664 0
M  V30 9 C 6.287544 2.550432 1.646697 0
M  V30 10 C 4.061572 -0.107228 2.898152 0
M  V30 11 C 2.944866 0.001439 2.028255 0
M  V30 12 C 2.542950 0.744162 0.986927 0
M  V30 13 C 1.334490 0.527871 0.392331 0
M  V30 14 C 0.511850 -0.432032 0.829127 0
M  V30 15 C -0.766267 -1.088538 0.642613 0
M  V30 16 C -1.265471 -2.135958 1.384906 0
M  V30 17 N -2.477023 -2.469259 0.910404 0
M  V30 18 C -2.778678 -1.665434 -0.121554 0
M  V30 19 C -3.918674 -1.660839 -0.895705 0
M  V30 20 C -3.943272 -0.708740 -1.893052 0
M  V30 21 C -5.118704 -0.645140 -2.753146 0
M  V30 22 C -5.665798 0.478104 -3.376121 0
M  V30 23 N -6.733368 0.059477 -4.061066 0
M  V30 24 N -6.919023 -1.241116 -3.930579 0
M  V30 25 C -7.970476 -2.043608 -4.526114 0
M  V30 26 C -5.933120 -1.689814 -3.128207 0
M  V30 27 C -2.861390 0.154020 -2.051485 0
M  V30 28 C -1.773142 0.059285 -1.219476 0
M  V30 29 N -1.720324 -0.854180 -0.242934 0
M  V30 30 S 1.556078 -1.114064 2.242692 0
M  V30 31 H 3.048924 -2.434178 6.177677 0
M  V30 32 H 2.189951 -3.558883 5.106907 0
M  V30 33 H 4.008805 -3.536190 5.154030 0
M  V30 34 H 5.193771 -1.910246 5.539375 0
M  V30 35 H 7.109420 -0.411925 5.281784 0
M  V30 36 H 7.120324 1.256169 3.556113 0
M  V30 37 H 6.601623 2.997616 2.631434 0
M  V30 38 H 6.067607 3.400208 0.945893 0
M  V30 39 H 7.122938 1.968931 1.212270 0
M  V30 40 H 3.203063 1.522815 0.627793 0
M  V30 41 H 0.970473 1.097748 -0.444486 0
M  V30 42 H -0.883500 -2.697785 2.221554 0
M  V30 43 H -4.722206 -2.381195 -0.695848 0
M  V30 44 H -5.292574 1.489702 -3.312457 0
M  V30 45 H -7.997739 -1.832167 -5.616845 0
M  V30 46 H -8.977250 -1.806030 -4.130205 0
M  V30 47 H -7.727427 -3.119291 -4.426703 0
M  V30 48 H -5.781795 -2.712908 -2.811131 0
M  V30 49 H -2.974881 0.851070 -2.846010 0
M  V30 50 H -1.032580 0.790172 -1.472472 0
M  V30 END ATOM
M  V30 BEGIN BOND
M  V30 1 1 1 2
M  V30 2 1 2 3
M  V30 3 2 3 4
M  V30 4 1 4 5
M  V30 5 2 5 6
M  V30 6 1 6 7
M  V30 7 1 7 8
M  V30 8 1 8 9
M  V30 9 2 7 10
M  V30 10 1 10 11
M  V30 11 2 11 12
M  V30 12 1 12 13
M  V30 13 2 13 14
M  V30 14 1 14 15
M  V30 15 2 15 16
M  V30 16 1 16 17
M  V30 17 2 17 18
M  V30 18 1 18 19
M  V30 19 2 19 20
M  V30 20 1 20 21
M  V30 21 1 21 22
M  V30 22 2 22 23
M  V30 23 1 23 24
M  V30 24 1 24 25
M  V30 25 1 24 26
M  V30 26 1 20 27
M  V30 27 2 27 28
M  V30 28 1 28 29
M  V30 29 1 14 30
M  V30 30 1 10 3
M  V30 31 1 30 11
M  V30 32 1 29 15
M  V30 33 1 29 18
M  V30 34 2 26 21
M  V30 35 1 1 31
M  V30 36 1 1 32
M  V30 37 1 1 33
M  V30 38 1 4 34
M  V30 39 1 5 35
M  V30 40 1 6 36
M  V30 41 1 9 37
M  V30 42 1 9 38
M  V30 43 1 9 39
M  V30 44 1 12 40
M  V30 45 1 13 41
M  V30 46 1 16 42
M  V30 47 1 19 43
M  V30 48 1 22 44
M  V30 49 1 25 45
M  V30 50 1 25 46
M  V30 51 1 25 47
M  V30 52 1 26 48
M  V30 53 1 27 49
M  V30 54 1 28 50
M  V30 END BOND
M  V30 END CTAB
M  END
>  <Dataset>  (963) 
ChEMBL_Kinases

>  <Ligand_Instance>  (963) 
nan

>  <PDB_ID>  (963) 
nan

>  <Standardized_SMILES>  (963) 
COc1cccc(OC)c1-c1ccc(-c2cnc3cc(-c4cnn(C)c4)ccn23)s1

>  <Name>  (963) 
nan

>  <Pocket>  (963) 
nan

>  <ATP_Site>  (963) 
nan

>  <Peripheral>  (963) 
nan

>  <Num_H_Atoms_ProtBoundConf>  (963) 
nan

>  <Num_Resolved_Atoms>  (963) 
nan

>  <Num_Not_Resolved_Atoms>  (963) 
nan

$$$$
CHEMBL4082931
     RDKit          3D

  0  0  0  0  0  0  0  0  0  0999 V3000
M  V30 BEGIN CTAB
M  V30 COUNTS 55 58 0 0 0
M  V30 BEGIN ATOM
M  V30 1 C 1.483809 -6.580330 -0.485557 0
M  V30 2 O 1.808787 -5.942287 0.704026 0
M  V30 3 C 3.134842 -5.552694 0.761773 0
M  V30 4 C 3.472893 -4.853802 2.075404 0
M  V30 5 N 2.657609 -3.665525 2.237022 0
M  V30 6 C 1.372853 -3.582555 2.871801 0
M  V30 7 C 0.370198 -2.982884 1.940824 0
M  V30 8 C 0.888647 -1.701146 1.398126 0
M  V30 9 C 2.227982 -1.412770 1.272454 0
M  V30 10 C 2.350401 -0.157161 0.738273 0
M  V30 11 C 1.078635 0.356846 0.522767 0
M  V30 12 C 0.804895 1.672934 -0.035478 0
M  V30 13 C 1.848199 2.500323 -0.386891 0
M  V30 14 C 1.707540 3.761493 -0.920789 0
M  V30 15 N 0.453180 4.163188 -1.089637 0
M  V30 16 C -0.638199 3.409251 -0.769324 0
M  V30 17 N -1.950352 3.917404 -0.984765 0
M  V30 18 C -3.174618 3.212813 -0.684992 0
M  V30 19 C -3.239207 2.906335 0.785007 0
M  V30 20 C -4.268111 1.885157 1.144567 0
M  V30 21 O -5.035746 1.585332 0.041879 0
M  V30 22 C -4.312747 1.008913 -1.002315 0
M  V30 23 C -3.261826 1.962018 -1.533295 0
M  V30 24 N -0.405276 2.200914 -0.257867 0
M  V30 25 N 0.266214 -0.614040 0.937506 0
M  V30 26 C -1.183911 -0.487342 0.888333 0
M  V30 27 C 3.186836 -2.435450 1.708744 0
M  V30 28 O 4.419317 -2.207799 1.608397 0
M  V30 29 H 0.409415 -6.864810 -0.464922 0
M  V30 30 H 1.626658 -5.921053 -1.383767 0
M  V30 31 H 2.101819 -7.488652 -0.659179 0
M  V30 32 H 3.477707 -4.934600 -0.068077 0
M  V30 33 H 3.753979 -6.486553 0.772613 0
M  V30 34 H 4.533612 -4.591560 2.014374 0
M  V30 35 H 3.288535 -5.571588 2.906553 0
M  V30 36 H 1.040012 -4.546349 3.304879 0
M  V30 37 H 1.467651 -2.886152 3.740299 0
M  V30 38 H 0.056606 -3.680487 1.141787 0
M  V30 39 H -0.566348 -2.775070 2.536181 0
M  V30 40 H 3.316812 0.297162 0.542772 0
M  V30 41 H 2.874727 2.132198 -0.232041 0
M  V30 42 H 2.545248 4.375711 -1.181706 0
M  V30 43 H -2.006057 4.896641 -1.400650 0
M  V30 44 H -4.025977 3.855846 -0.997305 0
M  V30 45 H -3.432484 3.865193 1.345492 0
M  V30 46 H -2.260015 2.562660 1.175063 0
M  V30 47 H -4.970232 2.281583 1.915434 0
M  V30 48 H -3.831595 0.957525 1.568975 0
M  V30 49 H -3.827181 0.052451 -0.721026 0
M  V30 50 H -5.063347 0.763086 -1.781533 0
M  V30 51 H -2.293218 1.461748 -1.601928 0
M  V30 52 H -3.585197 2.285656 -2.550977 0
M  V30 53 H -1.524571 0.317326 1.567731 0
M  V30 54 H -1.698718 -1.412412 1.253874 0
M  V30 55 H -1.525604 -0.253570 -0.121664 0
M  V30 END ATOM
M  V30 BEGIN BOND
M  V30 1 1 1 2
M  V30 2 1 2 3
M  V30 3 1 3 4
M  V30 4 1 4 5
M  V30 5 1 5 6
M  V30 6 1 6 7
M  V30 7 1 7 8
M  V30 8 2 8 9
M  V30 9 1 9 10
M  V30 10 2 10 11
M  V30 11 1 11 12
M  V30 12 2 12 13
M  V30 13 1 13 14
M  V30 14 2 14 15
M  V30 15 1 15 16
M  V30 16 1 16 17
M  V30 17 1 17 18
M  V30 18 1 18 19
M  V30 19 1 19 20
M  V30 20 1 20 21
M  V30 21 1 21 22
M  V30 22 1 22 23
M  V30 23 2 16 24
M  V30 24 1 11 25
M  V30 25 1 25 26
M  V30 26 1 9 27
M  V30 27 2 27 28
M  V30 28 1 27 5
M  V30 29 1 25 8
M  V30 30 1 24 12
M  V30 31 1 23 18
M  V30 32 1 1 29
M  V30 33 1 1 30
M  V30 34 1 1 31
M  V30 35 1 3 32
M  V30 36 1 3 33
M  V30 37 1 4 34
M  V30 38 1 4 35
M  V30 39 1 6 36
M  V30 40 1 6 37
M  V30 41 1 7 38
M  V30 42 1 7 39
M  V30 43 1 10 40
M  V30 44 1 13 41
M  V30 45 1 14 42
M  V30 46 1 17 43
M  V30 47 1 18 44
M  V30 48 1 19 45
M  V30 49 1 19 46
M  V30 50 1 20 47
M  V30 51 1 20 48
M  V30 52 1 22 49
M  V30 53 1 22 50
M  V30 54 1 23 51
M  V30 55 1 23 52
M  V30 56 1 26 53
M  V30 57 1 26 54
M  V30 58 1 26 55
M  V30 END BOND
M  V30 END CTAB
M  END
>  <Dataset>  (964) 
ChEMBL_Kinases

>  <Ligand_Instance>  (964) 
nan

>  <PDB_ID>  (964) 
nan

>  <Standardized_SMILES>  (964) 
COCCN1CCc2c(cc(-c3ccnc(NC4CCOCC4)n3)n2C)C1=O

>  <Name>  (964) 
nan

>  <Pocket>  (964) 
nan

>  <ATP_Site>  (964) 
nan

>  <Peripheral>  (964) 
nan

>  <Num_H_Atoms_ProtBoundConf>  (964) 
nan

>  <Num_Resolved_Atoms>  (964) 
nan

>  <Num_Not_Resolved_Atoms>  (964) 
nan

$$$$
CHEMBL4852867
     RDKit          3D

  0  0  0  0  0  0  0  0  0  0999 V3000
M  V30 BEGIN CTAB
M  V30 COUNTS 28 30 0 0 0
M  V30 BEGIN ATOM
M  V30 1 N -1.591938 -1.198137 3.175377 0
M  V30 2 C -0.473537 -1.907050 2.712807 0
M  V30 3 N -0.271113 -2.980958 3.495164 0
M  V30 4 C 0.764794 -3.828465 3.241557 0
M  V30 5 C 1.650286 -3.652748 2.200314 0
M  V30 6 C 1.428397 -2.547465 1.408574 0
M  V30 7 C 2.295481 -2.346312 0.362322 0
M  V30 8 C 2.119394 -1.256054 -0.461206 0
M  V30 9 Br 3.288449 -0.937953 -1.914771 0
M  V30 10 C 1.046537 -0.416328 -0.163747 0
M  V30 11 C 0.918418 0.661165 -1.023302 0
M  V30 12 C -0.133201 1.513099 -0.758162 0
M  V30 13 C -0.297771 2.675043 -1.658854 0
M  V30 14 O 0.527527 2.802045 -2.595706 0
M  V30 15 O -1.322628 3.592094 -1.479937 0
M  V30 16 C -1.053456 1.371109 0.286766 0
M  V30 17 C -0.831440 0.266379 1.077917 0
M  V30 18 C 0.181701 -0.617152 0.879967 0
M  V30 19 C 0.382937 -1.701633 1.673208 0
M  V30 20 H -1.151601 -0.527648 3.868988 0
M  V30 21 H -2.381298 -1.664064 2.623418 0
M  V30 22 H 0.931465 -4.692520 3.867259 0
M  V30 23 H 2.474607 -4.317096 1.989302 0
M  V30 24 H 3.104941 -3.017769 0.172595 0
M  V30 25 H 1.589267 0.821671 -1.837238 0
M  V30 26 H -1.584145 4.258521 -2.223308 0
M  V30 27 H -1.827809 2.127632 0.363666 0
M  V30 28 H -1.578663 0.267605 1.819641 0
M  V30 END ATOM
M  V30 BEGIN BOND
M  V30 1 1 1 2
M  V30 2 2 2 3
M  V30 3 1 3 4
M  V30 4 2 4 5
M  V30 5 1 5 6
M  V30 6 2 6 7
M  V30 7 1 7 8
M  V30 8 1 8 9
M  V30 9 2 8 10
M  V30 10 1 10 11
M  V30 11 2 11 12
M  V30 12 1 12 13
M  V30 13 2 13 14
M  V30 14 1 13 15
M  V30 15 1 12 16
M  V30 16 2 16 17
M  V30 17 1 17 18
M  V30 18 2 18 19
M  V30 19 1 19 2
M  V30 20 1 19 6
M  V30 21 1 18 10
M  V30 22 1 1 20
M  V30 23 1 1 21
M  V30 24 1 4 22
M  V30 25 1 5 23
M  V30 26 1 7 24
M  V30 27 1 11 25
M  V30 28 1 15 26
M  V30 29 1 16 27
M  V30 30 1 17 28
M  V30 END BOND
M  V30 END CTAB
M  END
>  <Dataset>  (965) 
ChEMBL_Kinases

>  <Ligand_Instance>  (965) 
nan

>  <PDB_ID>  (965) 
nan

>  <Standardized_SMILES>  (965) 
Nc1nccc2cc(Br)c3cc(C(=O)O)ccc3c12

>  <Name>  (965) 
nan

>  <Pocket>  (965) 
nan

>  <ATP_Site>  (965) 
nan

>  <Peripheral>  (965) 
nan

>  <Num_H_Atoms_ProtBoundConf>  (965) 
nan

>  <Num_Resolved_Atoms>  (965) 
nan

>  <Num_Not_Resolved_Atoms>  (965) 
nan

$$$$
CHEMBL4082868
     RDKit          3D

  0  0  0  0  0  0  0  0  0  0999 V3000
M  V30 BEGIN CTAB
M  V30 COUNTS 47 50 0 0 0
M  V30 BEGIN ATOM
M  V30 1 C 0.384190 -3.715176 2.984111 0
M  V30 2 C 0.493121 -4.332606 1.627010 0
M  V30 3 N 1.243321 -3.517201 0.682362 0
M  V30 4 C 2.566514 -3.499865 0.399695 0
M  V30 5 C 2.739043 -2.538186 -0.571231 0
M  V30 6 N 3.863286 -2.117817 -1.206892 0
M  V30 7 C 3.784633 -1.137402 -2.146206 0
M  V30 8 C 2.531082 -0.590411 -2.426920 0
M  V30 9 C 1.366785 -0.988329 -1.805060 0
M  V30 10 N 0.115172 -0.402872 -2.125628 0
M  V30 11 C -0.802058 0.306036 -1.306271 0
M  V30 12 C -0.509276 0.506727 0.026181 0
M  V30 13 C -1.414217 1.197224 0.806242 0
M  V30 14 C -1.171733 1.446865 2.222629 0
M  V30 15 C -0.056908 1.042021 2.924584 0
M  V30 16 C 0.100830 1.316947 4.267542 0
M  V30 17 C 1.340112 0.837666 4.938450 0
M  V30 18 C -0.874548 2.024839 4.977442 0
M  V30 19 C -2.004417 2.444689 4.301671 0
M  V30 20 C -2.106890 2.141087 2.961308 0
M  V30 21 F -3.233808 2.569656 2.324303 0
M  V30 22 N -2.544209 1.643744 0.226672 0
M  V30 23 C -2.818015 1.441367 -1.074516 0
M  V30 24 C -1.948638 0.750561 -1.926401 0
M  V30 25 C -2.233112 0.516931 -3.365592 0
M  V30 26 C 1.493612 -1.985058 -0.859570 0
M  V30 27 N 0.636640 -2.615930 -0.073263 0
M  V30 28 H 0.902412 -4.301543 3.773853 0
M  V30 29 H -0.701593 -3.711342 3.295488 0
M  V30 30 H 0.723113 -2.650781 3.013401 0
M  V30 31 H -0.508263 -4.597061 1.227915 0
M  V30 32 H 1.042040 -5.300866 1.752339 0
M  V30 33 H 3.276308 -4.147239 0.887575 0
M  V30 34 H 4.686691 -0.816510 -2.640317 0
M  V30 35 H 2.468618 0.190538 -3.175121 0
M  V30 36 H -0.022274 -0.597324 -3.135765 0
M  V30 37 H 0.406938 0.125531 0.421395 0
M  V30 38 H 0.703744 0.496643 2.395945 0
M  V30 39 H 1.275675 1.081754 6.023180 0
M  V30 40 H 2.245122 1.337711 4.510753 0
M  V30 41 H 1.461661 -0.268176 4.824436 0
M  V30 42 H -0.720090 2.223530 6.028420 0
M  V30 43 H -2.781785 2.993856 4.810944 0
M  V30 44 H -3.741014 1.816409 -1.509419 0
M  V30 45 H -1.409383 0.841626 -4.028949 0
M  V30 46 H -3.127741 1.141188 -3.626182 0
M  V30 47 H -2.530605 -0.547720 -3.510951 0
M  V30 END ATOM
M  V30 BEGIN BOND
M  V30 1 1 1 2
M  V30 2 1 2 3
M  V30 3 1 3 4
M  V30 4 2 4 5
M  V30 5 1 5 6
M  V30 6 2 6 7
M  V30 7 1 7 8
M  V30 8 2 8 9
M  V30 9 1 9 10
M  V30 10 1 10 11
M  V30 11 2 11 12
M  V30 12 1 12 13
M  V30 13 1 13 14
M  V30 14 2 14 15
M  V30 15 1 15 16
M  V30 16 1 16 17
M  V30 17 2 16 18
M  V30 18 1 18 19
M  V30 19 2 19 20
M  V30 20 1 20 21
M  V30 21 2 13 22
M  V30 22 1 22 23
M  V30 23 2 23 24
M  V30 24 1 24 25
M  V30 25 1 9 26
M  V30 26 2 26 27
M  V30 27 1 27 3
M  V30 28 1 26 5
M  V30 29 1 24 11
M  V30 30 1 20 14
M  V30 31 1 1 28
M  V30 32 1 1 29
M  V30 33 1 1 30
M  V30 34 1 2 31
M  V30 35 1 2 32
M  V30 36 1 4 33
M  V30 37 1 7 34
M  V30 38 1 8 35
M  V30 39 1 10 36
M  V30 40 1 12 37
M  V30 41 1 15 38
M  V30 42 1 17 39
M  V30 43 1 17 40
M  V30 44 1 17 41
M  V30 45 1 18 42
M  V30 46 1 19 43
M  V30 47 1 23 44
M  V30 48 1 25 45
M  V30 49 1 25 46
M  V30 50 1 25 47
M  V30 END BOND
M  V30 END CTAB
M  END
>  <Dataset>  (966) 
ChEMBL_Kinases

>  <Ligand_Instance>  (966) 
nan

>  <PDB_ID>  (966) 
nan

>  <Standardized_SMILES>  (966) 
CCn1cc2nccc(Nc3cc(-c4cc(C)ccc4F)ncc3C)c2n1

>  <Name>  (966) 
nan

>  <Pocket>  (966) 
nan

>  <ATP_Site>  (966) 
nan

>  <Peripheral>  (966) 
nan

>  <Num_H_Atoms_ProtBoundConf>  (966) 
nan

>  <Num_Resolved_Atoms>  (966) 
nan

>  <Num_Not_Resolved_Atoms>  (966) 
nan

$$$$
CHEMBL4082856
     RDKit          3D

  0  0  0  0  0  0  0  0  0  0999 V3000
M  V30 BEGIN CTAB
M  V30 COUNTS 50 54 0 0 0
M  V30 BEGIN ATOM
M  V30 1 C -1.683376 -4.202429 3.717405 0
M  V30 2 C -1.642146 -3.787399 2.287476 0 CFG=1
M  V30 3 C -0.282215 -4.037765 1.617623 0
M  V30 4 N -0.342709 -3.201754 0.426875 0
M  V30 5 C 0.901874 -2.820693 -0.235983 0
M  V30 6 C 1.357343 -1.626211 -0.852109 0
M  V30 7 C 2.620463 -1.391041 -1.530065 0
M  V30 8 C 2.412862 0.005716 -1.893613 0
M  V30 9 N 2.991609 0.263544 -3.086316 0
M  V30 10 N 2.837883 1.545980 -3.396400 0
M  V30 11 C 2.161391 2.111913 -2.401600 0
M  V30 12 C 1.696808 3.385998 -2.081336 0
M  V30 13 C 1.021455 3.618429 -0.879115 0
M  V30 14 C 0.783129 2.590760 0.048344 0
M  V30 15 O 0.128053 3.109849 1.084107 0
M  V30 16 C -0.382446 2.665876 2.273654 0
M  V30 17 C -1.075068 3.776199 3.095541 0
M  V30 18 C 0.038024 1.480663 3.025669 0
M  V30 19 C -1.179308 1.356101 2.202094 0
M  V30 20 C 1.240074 1.341903 -0.271395 0
M  V30 21 C 1.884971 1.165621 -1.446426 0
M  V30 22 N 2.784715 -2.530663 -1.227577 0
M  V30 23 C 2.973308 -3.714400 -0.921928 0
M  V30 24 N 1.773678 -3.883324 -0.293980 0
M  V30 25 C -1.673122 -2.808397 -0.063793 0
M  V30 26 C -2.577985 -4.005850 0.179318 0
M  V30 27 O -2.633769 -4.342184 1.503706 0
M  V30 28 H -2.733923 -4.142191 4.046743 0
M  V30 29 H -1.379676 -5.258430 3.899380 0
M  V30 30 H -1.090208 -3.463186 4.298626 0
M  V30 31 H -1.755602 -2.669072 2.269590 0
M  V30 32 H -0.159788 -5.107659 1.326364 0
M  V30 33 H 0.526183 -3.674279 2.249405 0
M  V30 34 H 0.389635 -1.054740 -0.642499 0
M  V30 35 H 3.146337 2.106934 -4.233059 0
M  V30 36 H 1.912502 4.140923 -2.837439 0
M  V30 37 H 0.742530 4.683629 -0.828349 0
M  V30 38 H -0.292797 4.456301 3.454844 0
M  V30 39 H -1.578621 3.307898 3.960223 0
M  V30 40 H -1.796492 4.299371 2.450678 0
M  V30 41 H -0.145926 1.516798 4.142951 0
M  V30 42 H 0.918268 0.871176 2.801178 0
M  V30 43 H -2.172544 1.367296 2.701418 0
M  V30 44 H -1.150858 0.780390 1.260676 0
M  V30 45 H 1.073079 0.607198 0.471292 0
M  V30 46 H 3.814630 -4.357311 -1.108756 0
M  V30 47 H -1.592875 -2.593388 -1.151120 0
M  V30 48 H -2.095301 -1.948877 0.435485 0
M  V30 49 H -2.208236 -4.808402 -0.496432 0
M  V30 50 H -3.604293 -3.768256 -0.182111 0
M  V30 END ATOM
M  V30 BEGIN BOND
M  V30 1 1 1 2
M  V30 2 1 2 3
M  V30 3 1 3 4
M  V30 4 1 4 5
M  V30 5 2 5 6
M  V30 6 1 6 7
M  V30 7 1 7 8
M  V30 8 2 8 9
M  V30 9 1 9 10
M  V30 10 1 10 11
M  V30 11 2 11 12
M  V30 12 1 12 13
M  V30 13 2 13 14
M  V30 14 1 14 15
M  V30 15 1 15 16
M  V30 16 1 16 17
M  V30 17 1 16 18
M  V30 18 1 18 19
M  V30 19 1 14 20
M  V30 20 2 20 21
M  V30 21 2 7 22
M  V30 22 1 22 23
M  V30 23 2 23 24
M  V30 24 1 4 25
M  V30 25 1 25 26
M  V30 26 1 26 27
M  V30 27 1 27 2
M  V30 28 1 24 5
M  V30 29 1 21 8
M  V30 30 1 21 11
M  V30 31 1 19 16
M  V30 32 1 1 28
M  V30 33 1 1 29
M  V30 34 1 1 30
M  V30 35 1 2 31 CFG=1
M  V30 36 1 3 32
M  V30 37 1 3 33
M  V30 38 1 6 34
M  V30 39 1 10 35
M  V30 40 1 12 36
M  V30 41 1 13 37
M  V30 42 1 17 38
M  V30 43 1 17 39
M  V30 44 1 17 40
M  V30 45 1 18 41
M  V30 46 1 18 42
M  V30 47 1 19 43
M  V30 48 1 19 44
M  V30 49 1 20 45
M  V30 50 1 23 46
M  V30 51 1 25 47
M  V30 52 1 25 48
M  V30 53 1 26 49
M  V30 54 1 26 50
M  V30 END BOND
M  V30 END CTAB
M  END
>  <Dataset>  (967) 
ChEMBL_Kinases

>  <Ligand_Instance>  (967) 
nan

>  <PDB_ID>  (967) 
nan

>  <Standardized_SMILES>  (967) 
C[C@H]1CN(c2cc(-c3n[nH]c4ccc(OC5(C)CC5)cc34)ncn2)CCO1

>  <Name>  (967) 
nan

>  <Pocket>  (967) 
nan

>  <ATP_Site>  (967) 
nan

>  <Peripheral>  (967) 
nan

>  <Num_H_Atoms_ProtBoundConf>  (967) 
nan

>  <Num_Resolved_Atoms>  (967) 
nan

>  <Num_Not_Resolved_Atoms>  (967) 
nan

$$$$
CHEMBL4852887
     RDKit          3D

  0  0  0  0  0  0  0  0  0  0999 V3000
M  V30 BEGIN CTAB
M  V30 COUNTS 51 54 0 0 0
M  V30 BEGIN ATOM
M  V30 1 C 4.827929 -4.755772 1.165198 0
M  V30 2 N 5.379308 -3.830359 2.114573 0
M  V30 3 N 6.468883 -4.185766 2.801899 0
M  V30 4 C 6.785398 -3.173520 3.608640 0
M  V30 5 C 5.865176 -2.164667 3.413833 0
M  V30 6 C 4.953922 -2.595279 2.442878 0
M  V30 7 C 3.795354 -1.906913 1.880882 0
M  V30 8 C 3.553334 -1.904342 0.521351 0
M  V30 9 C 2.452473 -1.255091 -0.056132 0
M  V30 10 F 2.362582 -1.352215 -1.423563 0
M  V30 11 C 1.557030 -0.581751 0.751309 0
M  V30 12 C 0.443264 0.065026 0.078244 0
M  V30 13 O 0.392725 -0.046120 -1.184250 0
M  V30 14 N -0.622326 0.816163 0.594733 0
M  V30 15 C -1.651376 1.393435 -0.205180 0 CFG=2
M  V30 16 C -1.608458 2.890228 0.031001 0
M  V30 17 N -2.142125 3.145306 1.341214 0
M  V30 18 C -3.542395 2.923286 1.486894 0
M  V30 19 C -4.002033 2.030537 0.351522 0
M  V30 20 C -2.991183 0.887083 0.295255 0 CFG=1
M  V30 21 C -3.490379 -0.256372 -0.509471 0
M  V30 22 C -3.674113 0.048971 -1.861806 0
M  V30 23 C -4.140508 -0.953884 -2.708891 0
M  V30 24 C -4.403796 -2.212198 -2.180420 0
M  V30 25 F -4.853232 -3.147394 -3.042061 0
M  V30 26 C -4.226179 -2.525193 -0.847200 0
M  V30 27 C -3.761021 -1.517334 -0.013507 0
M  V30 28 C 1.821262 -0.599833 2.101347 0
M  V30 29 F 0.968288 0.046285 2.911868 0
M  V30 30 C 2.898008 -1.232673 2.685440 0
M  V30 31 H 3.759701 -4.516204 0.978726 0
M  V30 32 H 5.408621 -4.796935 0.234326 0
M  V30 33 H 4.809284 -5.790235 1.610240 0
M  V30 34 H 7.595164 -3.049465 4.330724 0
M  V30 35 H 5.745873 -1.182835 3.851746 0
M  V30 36 H 4.255660 -2.432061 -0.108468 0
M  V30 37 H -0.637326 0.943789 1.628331 0
M  V30 38 H -1.516201 1.182190 -1.285161 0
M  V30 39 H -0.541896 3.231409 0.054718 0
M  V30 40 H -2.086279 3.481080 -0.761087 0
M  V30 41 H -1.533405 2.884679 2.113822 0
M  V30 42 H -3.743679 2.339708 2.422619 0
M  V30 43 H -4.141695 3.864594 1.524465 0
M  V30 44 H -3.904959 2.570402 -0.607348 0
M  V30 45 H -5.003111 1.627043 0.531202 0
M  V30 46 H -2.874608 0.559242 1.348779 0
M  V30 47 H -3.476329 1.015003 -2.288971 0
M  V30 48 H -4.290982 -0.737236 -3.767831 0
M  V30 49 H -4.433333 -3.508715 -0.440857 0
M  V30 50 H -3.588232 -1.665108 1.055579 0
M  V30 51 H 3.029624 -1.196694 3.753506 0
M  V30 END ATOM
M  V30 BEGIN BOND
M  V30 1 1 1 2
M  V30 2 1 2 3
M  V30 3 2 3 4
M  V30 4 1 4 5
M  V30 5 2 5 6
M  V30 6 1 6 7
M  V30 7 2 7 8
M  V30 8 1 8 9
M  V30 9 1 9 10
M  V30 10 2 9 11
M  V30 11 1 11 12
M  V30 12 2 12 13
M  V30 13 1 12 14
M  V30 14 1 14 15
M  V30 15 1 15 16
M  V30 16 1 16 17
M  V30 17 1 17 18
M  V30 18 1 18 19
M  V30 19 1 19 20
M  V30 20 1 20 21
M  V30 21 2 21 22
M  V30 22 1 22 23
M  V30 23 2 23 24
M  V30 24 1 24 25
M  V30 25 1 24 26
M  V30 26 2 26 27
M  V30 27 1 11 28
M  V30 28 1 28 29
M  V30 29 2 28 30
M  V30 30 1 6 2
M  V30 31 1 30 7
M  V30 32 1 20 15
M  V30 33 1 27 21
M  V30 34 1 1 31
M  V30 35 1 1 32
M  V30 36 1 1 33
M  V30 37 1 4 34
M  V30 38 1 5 35
M  V30 39 1 8 36
M  V30 40 1 14 37
M  V30 41 1 15 38 CFG=3
M  V30 42 1 16 39
M  V30 43 1 16 40
M  V30 44 1 17 41
M  V30 45 1 18 42
M  V30 46 1 18 43
M  V30 47 1 19 44
M  V30 48 1 19 45
M  V30 49 1 20 46 CFG=1
M  V30 50 1 22 47
M  V30 51 1 23 48
M  V30 52 1 26 49
M  V30 53 1 27 50
M  V30 54 1 30 51
M  V30 END BOND
M  V30 END CTAB
M  END
>  <Dataset>  (968) 
ChEMBL_Kinases

>  <Ligand_Instance>  (968) 
nan

>  <PDB_ID>  (968) 
nan

>  <Standardized_SMILES>  (968) 
Cn1nccc1-c1cc(F)c(C(=O)N[C@@H]2CNCC[C@H]2c2ccc(F)cc2)c(F)c1

>  <Name>  (968) 
nan

>  <Pocket>  (968) 
nan

>  <ATP_Site>  (968) 
nan

>  <Peripheral>  (968) 
nan

>  <Num_H_Atoms_ProtBoundConf>  (968) 
nan

>  <Num_Resolved_Atoms>  (968) 
nan

>  <Num_Not_Resolved_Atoms>  (968) 
nan

$$$$
CHEMBL4852889
     RDKit          3D

  0  0  0  0  0  0  0  0  0  0999 V3000
M  V30 BEGIN CTAB
M  V30 COUNTS 26 28 0 0 0
M  V30 BEGIN ATOM
M  V30 1 O -2.927459 -3.325818 2.847737 0
M  V30 2 C -1.677863 -3.419572 2.680407 0
M  V30 3 O -1.186225 -4.564584 3.243243 0
M  V30 4 C -0.898957 -2.411142 1.970839 0
M  V30 5 C 0.476125 -2.566014 1.816040 0
M  V30 6 C 1.188838 -1.596708 1.140353 0
M  V30 7 C 0.531673 -0.502198 0.635372 0
M  V30 8 C -0.826955 -0.355614 0.791968 0
M  V30 9 C -1.557134 0.715328 0.313250 0
M  V30 10 C -0.862825 1.682812 -0.358149 0
M  V30 11 C 0.491883 1.547043 -0.520185 0
M  V30 12 C 1.149789 2.564350 -1.213421 0
M  V30 13 C 2.506043 2.405679 -1.362731 0
M  V30 14 N 3.178211 1.357176 -0.886506 0
M  V30 15 C 2.558052 0.367471 -0.215595 0
M  V30 16 C 1.198658 0.469668 -0.033691 0
M  V30 17 C -1.579302 -1.319906 1.471809 0
M  V30 18 H -1.424354 -4.854755 4.191303 0
M  V30 19 H 0.938949 -3.455689 2.239098 0
M  V30 20 H 2.223509 -1.794393 1.069915 0
M  V30 21 H -2.616074 0.800125 0.452018 0
M  V30 22 H -1.387850 2.545653 -0.755019 0
M  V30 23 H 0.653627 3.436651 -1.620746 0
M  V30 24 H 3.060333 3.181743 -1.900824 0
M  V30 25 H 3.201413 -0.424924 0.120424 0
M  V30 26 H -2.636146 -1.219312 1.601238 0
M  V30 END ATOM
M  V30 BEGIN BOND
M  V30 1 2 1 2
M  V30 2 1 2 3
M  V30 3 1 2 4
M  V30 4 2 4 5
M  V30 5 1 5 6
M  V30 6 2 6 7
M  V30 7 1 7 8
M  V30 8 1 8 9
M  V30 9 2 9 10
M  V30 10 1 10 11
M  V30 11 2 11 12
M  V30 12 1 12 13
M  V30 13 2 13 14
M  V30 14 1 14 15
M  V30 15 2 15 16
M  V30 16 2 8 17
M  V30 17 1 17 4
M  V30 18 1 16 7
M  V30 19 1 16 11
M  V30 20 1 3 18
M  V30 21 1 5 19
M  V30 22 1 6 20
M  V30 23 1 9 21
M  V30 24 1 10 22
M  V30 25 1 12 23
M  V30 26 1 13 24
M  V30 27 1 15 25
M  V30 28 1 17 26
M  V30 END BOND
M  V30 END CTAB
M  END
>  <Dataset>  (969) 
ChEMBL_Kinases

>  <Ligand_Instance>  (969) 
nan

>  <PDB_ID>  (969) 
nan

>  <Standardized_SMILES>  (969) 
O=C(O)c1ccc2c(ccc3ccncc32)c1

>  <Name>  (969) 
nan

>  <Pocket>  (969) 
nan

>  <ATP_Site>  (969) 
nan

>  <Peripheral>  (969) 
nan

>  <Num_H_Atoms_ProtBoundConf>  (969) 
nan

>  <Num_Resolved_Atoms>  (969) 
nan

>  <Num_Not_Resolved_Atoms>  (969) 
nan

$$$$
CHEMBL4082844
     RDKit          3D

  0  0  0  0  0  0  0  0  0  0999 V3000
M  V30 BEGIN CTAB
M  V30 COUNTS 64 68 0 0 0
M  V30 BEGIN ATOM
M  V30 1 O 0.907040 0.097020 6.041604 0
M  V30 2 C 1.831951 0.556786 5.325988 0
M  V30 3 N 3.082823 0.578043 5.942106 0
M  V30 4 C 3.723032 0.226688 7.163244 0
M  V30 5 C 3.764276 -1.235528 7.468330 0
M  V30 6 O 4.437979 -1.420959 8.727337 0
M  V30 7 C 2.448041 -1.931930 7.665148 0
M  V30 8 O 1.646348 -1.388970 8.639219 0
M  V30 9 C 1.514415 1.002768 3.977681 0
M  V30 10 C 2.412915 1.502247 3.059351 0
M  V30 11 C 2.059546 1.908246 1.792973 0
M  V30 12 C 0.750578 1.832701 1.366893 0
M  V30 13 C -0.164979 1.325763 2.297298 0
M  V30 14 C 0.210100 0.929898 3.547924 0
M  V30 15 C -1.606772 1.144828 2.103333 0
M  V30 16 O -2.323156 1.179050 3.135112 0
M  V30 17 C -2.236713 0.928692 0.779596 0
M  V30 18 C -3.550280 0.540119 0.963213 0
M  V30 19 C -4.352976 0.271179 -0.138056 0
M  V30 20 C -3.818333 0.398106 -1.400295 0
M  V30 21 N -4.571838 0.161793 -2.563611 0
M  V30 22 C -4.187310 -0.234905 -3.870481 0
M  V30 23 C -4.872194 0.053230 -5.030936 0
M  V30 24 C -4.411791 -0.401561 -6.248157 0
M  V30 25 C -3.260680 -1.155294 -6.359110 0
M  V30 26 F -2.768857 -1.624655 -7.546849 0
M  V30 27 C -2.508862 -1.491181 -5.228926 0
M  V30 28 N -1.315720 -2.248894 -5.198729 0
M  V30 29 C -1.048034 -3.622481 -5.088557 0
M  V30 30 O -2.005068 -4.450098 -4.993486 0
M  V30 31 C 0.338408 -3.991777 -5.091799 0
M  V30 32 C 0.848446 -5.226787 -4.997214 0
M  V30 33 C 2.196482 -5.443151 -5.009431 0
M  V30 34 C 3.002481 -4.290424 -5.127169 0
M  V30 35 S 1.786983 -2.856723 -5.223293 0
M  V30 36 C -3.033373 -1.000517 -4.051698 0
M  V30 37 C -2.510243 0.785259 -1.595733 0
M  V30 38 C -1.693375 1.058561 -0.497329 0
M  V30 39 O -0.381646 1.446883 -0.719255 0
M  V30 40 C 0.493595 2.288940 -0.001229 0
M  V30 41 H 3.770959 1.005908 5.237603 0
M  V30 42 H 4.795443 0.586331 7.164445 0
M  V30 43 H 3.207998 0.720811 8.044374 0
M  V30 44 H 4.340735 -1.807079 6.693668 0
M  V30 45 H 4.314654 -2.383360 9.000120 0
M  V30 46 H 2.677788 -2.991156 8.091342 0
M  V30 47 H 1.956840 -2.142172 6.725138 0
M  V30 48 H 1.905656 -1.599193 9.556885 0
M  V30 49 H 3.451150 1.582216 3.340461 0
M  V30 50 H 2.770613 2.295231 1.088339 0
M  V30 51 H -0.549722 0.549004 4.214999 0
M  V30 52 H -3.930398 0.453582 1.978915 0
M  V30 53 H -5.381759 -0.033686 -0.009001 0
M  V30 54 H -5.619310 0.298184 -2.471159 0
M  V30 55 H -5.769857 0.645612 -4.923893 0
M  V30 56 H -4.967939 -0.159915 -7.146571 0
M  V30 57 H -0.674818 -1.427049 -5.285899 0
M  V30 58 H 0.199855 -6.113796 -4.907086 0
M  V30 59 H 2.741226 -6.370213 -4.942427 0
M  V30 60 H 4.107549 -4.211702 -5.160020 0
M  V30 61 H -2.472569 -1.257778 -3.143812 0
M  V30 62 H -1.961692 0.934392 -2.509035 0
M  V30 63 H 1.460786 2.334362 -0.540940 0
M  V30 64 H 0.004037 3.305124 0.022264 0
M  V30 END ATOM
M  V30 BEGIN BOND
M  V30 1 2 1 2
M  V30 2 1 2 3
M  V30 3 1 3 4
M  V30 4 1 4 5
M  V30 5 1 5 6
M  V30 6 1 5 7
M  V30 7 1 7 8
M  V30 8 1 2 9
M  V30 9 2 9 10
M  V30 10 1 10 11
M  V30 11 2 11 12
M  V30 12 1 12 13
M  V30 13 2 13 14
M  V30 14 1 13 15
M  V30 15 2 15 16
M  V30 16 1 15 17
M  V30 17 2 17 18
M  V30 18 1 18 19
M  V30 19 2 19 20
M  V30 20 1 20 21
M  V30 21 1 21 22
M  V30 22 2 22 23
M  V30 23 1 23 24
M  V30 24 2 24 25
M  V30 25 1 25 26
M  V30 26 1 25 27
M  V30 27 1 27 28
M  V30 28 1 28 29
M  V30 29 2 29 30
M  V30 30 1 29 31
M  V30 31 2 31 32
M  V30 32 1 32 33
M  V30 33 2 33 34
M  V30 34 1 34 35
M  V30 35 2 27 36
M  V30 36 1 20 37
M  V30 37 2 37 38
M  V30 38 1 38 39
M  V30 39 1 39 40
M  V30 40 1 14 9
M  V30 41 1 38 17
M  V30 42 1 40 12
M  V30 43 1 36 22
M  V30 44 1 35 31
M  V30 45 1 3 41
M  V30 46 1 4 42
M  V30 47 1 4 43
M  V30 48 1 5 44
M  V30 49 1 6 45
M  V30 50 1 7 46
M  V30 51 1 7 47
M  V30 52 1 8 48
M  V30 53 1 10 49
M  V30 54 1 11 50
M  V30 55 1 14 51
M  V30 56 1 18 52
M  V30 57 1 19 53
M  V30 58 1 21 54
M  V30 59 1 23 55
M  V30 60 1 24 56
M  V30 61 1 28 57
M  V30 62 1 32 58
M  V30 63 1 33 59
M  V30 64 1 34 60
M  V30 65 1 36 61
M  V30 66 1 37 62
M  V30 67 1 40 63
M  V30 68 1 40 64
M  V30 END BOND
M  V30 END CTAB
M  END
>  <Dataset>  (970) 
ChEMBL_Kinases

>  <Ligand_Instance>  (970) 
nan

>  <PDB_ID>  (970) 
nan

>  <Standardized_SMILES>  (970) 
O=C(NCC(O)CO)c1ccc2c(c1)C(=O)c1ccc(Nc3ccc(F)c(NC(=O)c4cccs4)c3)cc1OC2

>  <Name>  (970) 
nan

>  <Pocket>  (970) 
nan

>  <ATP_Site>  (970) 
nan

>  <Peripheral>  (970) 
nan

>  <Num_H_Atoms_ProtBoundConf>  (970) 
nan

>  <Num_Resolved_Atoms>  (970) 
nan

>  <Num_Not_Resolved_Atoms>  (970) 
nan

$$$$
CHEMBL4082821
     RDKit          3D

  0  0  0  0  0  0  0  0  0  0999 V3000
M  V30 BEGIN CTAB
M  V30 COUNTS 42 45 0 0 0
M  V30 BEGIN ATOM
M  V30 1 N 2.535361 -0.618733 4.534092 0
M  V30 2 C 2.955875 -1.991728 4.452523 0
M  V30 3 O 2.603678 -2.504204 5.564770 0
M  V30 4 C 3.638307 -2.499053 3.239530 0
M  V30 5 N 3.800672 -1.455612 2.219585 0
M  V30 6 C 4.818848 -0.596313 2.044669 0
M  V30 7 C 4.472828 0.166798 0.949235 0
M  V30 8 N 5.186928 1.164915 0.391852 0
M  V30 9 C 4.731041 1.831735 -0.682860 0
M  V30 10 C 3.505865 1.450216 -1.186552 0
M  V30 11 C 2.755786 0.433047 -0.635242 0
M  V30 12 N 1.490661 -0.007172 -1.112083 0
M  V30 13 C 0.326149 0.050238 -0.295388 0
M  V30 14 C 0.384440 0.605952 0.963027 0
M  V30 15 C -0.809380 0.594644 1.644755 0
M  V30 16 N -1.949276 0.087654 1.140956 0
M  V30 17 C -2.027581 -0.458944 -0.084631 0
M  V30 18 C -3.321517 -0.965514 -0.496021 0
M  V30 19 C -4.384333 -0.858030 0.384983 0
M  V30 20 C -5.653793 -1.308134 0.090532 0
M  V30 21 F -6.661593 -1.180596 0.985605 0
M  V30 22 C -5.932990 -1.900236 -1.122241 0
M  V30 23 C -4.894738 -2.019001 -2.014948 0
M  V30 24 C -3.652537 -1.562079 -1.688438 0
M  V30 25 F -2.707302 -1.718786 -2.614335 0
M  V30 26 C -0.861793 -0.458249 -0.774299 0
M  V30 27 C 3.225240 -0.261673 0.480181 0
M  V30 28 N 2.867063 -1.271859 1.316484 0
M  V30 29 H 3.112238 -0.003275 5.152629 0
M  V30 30 H 1.810913 0.031965 4.173424 0
M  V30 31 H 4.684947 -2.837537 3.474523 0
M  V30 32 H 3.146910 -3.389337 2.797229 0
M  V30 33 H 5.711304 -0.564198 2.680597 0
M  V30 34 H 5.235896 2.639517 -1.189025 0
M  V30 35 H 3.032486 1.921295 -2.059696 0
M  V30 36 H 1.437194 -0.376925 -2.085370 0
M  V30 37 H 1.281589 1.020623 1.391301 0
M  V30 38 H -0.865307 1.014318 2.654573 0
M  V30 39 H -4.275540 -0.401573 1.383078 0
M  V30 40 H -6.929985 -2.237994 -1.316845 0
M  V30 41 H -5.109126 -2.481846 -2.965304 0
M  V30 42 H -0.850536 -0.876862 -1.755141 0
M  V30 END ATOM
M  V30 BEGIN BOND
M  V30 1 1 1 2
M  V30 2 2 2 3
M  V30 3 1 2 4
M  V30 4 1 4 5
M  V30 5 1 5 6
M  V30 6 2 6 7
M  V30 7 1 7 8
M  V30 8 2 8 9
M  V30 9 1 9 10
M  V30 10 2 10 11
M  V30 11 1 11 12
M  V30 12 1 12 13
M  V30 13 2 13 14
M  V30 14 1 14 15
M  V30 15 2 15 16
M  V30 16 1 16 17
M  V30 17 1 17 18
M  V30 18 2 18 19
M  V30 19 1 19 20
M  V30 20 1 20 21
M  V30 21 2 20 22
M  V30 22 1 22 23
M  V30 23 2 23 24
M  V30 24 1 24 25
M  V30 25 2 17 26
M  V30 26 1 11 27
M  V30 27 2 27 28
M  V30 28 1 28 5
M  V30 29 1 27 7
M  V30 30 1 26 13
M  V30 31 1 24 18
M  V30 32 1 1 29
M  V30 33 1 1 30
M  V30 34 1 4 31
M  V30 35 1 4 32
M  V30 36 1 6 33
M  V30 37 1 9 34
M  V30 38 1 10 35
M  V30 39 1 12 36
M  V30 40 1 14 37
M  V30 41 1 15 38
M  V30 42 1 19 39
M  V30 43 1 22 40
M  V30 44 1 23 41
M  V30 45 1 26 42
M  V30 END BOND
M  V30 END CTAB
M  END
>  <Dataset>  (971) 
ChEMBL_Kinases

>  <Ligand_Instance>  (971) 
nan

>  <PDB_ID>  (971) 
nan

>  <Standardized_SMILES>  (971) 
NC(=O)Cn1cc2nccc(Nc3ccnc(-c4cc(F)ccc4F)c3)c2n1

>  <Name>  (971) 
nan

>  <Pocket>  (971) 
nan

>  <ATP_Site>  (971) 
nan

>  <Peripheral>  (971) 
nan

>  <Num_H_Atoms_ProtBoundConf>  (971) 
nan

>  <Num_Resolved_Atoms>  (971) 
nan

>  <Num_Not_Resolved_Atoms>  (971) 
nan

$$$$
CHEMBL4853221
     RDKit          3D

  0  0  0  0  0  0  0  0  0  0999 V3000
M  V30 BEGIN CTAB
M  V30 COUNTS 57 59 0 0 0
M  V30 BEGIN ATOM
M  V30 1 C -1.883548 1.027510 2.558870 0
M  V30 2 C -1.038431 -0.169804 2.367838 0
M  V30 3 C 0.184878 -0.304852 3.004785 0
M  V30 4 C 0.919176 -1.456249 2.775093 0
M  V30 5 N 2.163237 -1.526836 3.460972 0
M  V30 6 C 3.189846 -0.957844 2.656110 0
M  V30 7 O 2.956331 -0.473063 1.496742 0
M  V30 8 C 4.649775 -0.798670 2.932178 0 CFG=2
M  V30 9 O 5.014800 -1.298316 4.180496 0
M  V30 10 C 4.914084 0.667389 2.832219 0
M  V30 11 C 5.512078 1.303475 1.751370 0
M  V30 12 C 5.690076 2.670121 1.805128 0
M  V30 13 C 5.282040 3.403300 2.914880 0
M  V30 14 C 4.689454 2.788984 3.991054 0
M  V30 15 Cl 4.195334 3.746702 5.357208 0
M  V30 16 C 4.511158 1.422332 3.937949 0
M  V30 17 C 0.495641 -2.482913 1.940784 0
M  V30 18 C -0.733406 -2.281835 1.338249 0
M  V30 19 C -1.505554 -1.151496 1.533804 0
M  V30 20 C -2.774863 -1.123285 0.809084 0
M  V30 21 C -3.997072 -0.750722 1.330992 0
M  V30 22 N -5.110162 -0.760545 0.572247 0
M  V30 23 C -5.060736 -1.140607 -0.738974 0
M  V30 24 N -6.323694 -1.103358 -1.428743 0
M  V30 25 C -3.862767 -1.523102 -1.311689 0
M  V30 26 C -3.888971 -1.916419 -2.719176 0
M  V30 27 O -4.975521 -1.883023 -3.308751 0
M  V30 28 N -2.721650 -2.329234 -3.418371 0
M  V30 29 C -2.664711 -2.729402 -4.796037 0
M  V30 30 C -2.236934 -4.158382 -4.998562 0
M  V30 31 C -1.808552 -1.794318 -5.613339 0
M  V30 32 C -2.727345 -1.509929 -0.526602 0
M  V30 33 H -2.478043 1.017522 3.486579 0
M  V30 34 H -1.160671 1.891698 2.636484 0
M  V30 35 H -2.502638 1.278610 1.673690 0
M  V30 36 H 0.538563 0.478748 3.659346 0
M  V30 37 H 2.541885 -1.871533 4.376130 0
M  V30 38 H 5.267101 -1.349686 2.190365 0
M  V30 39 H 5.361266 -0.598502 4.783031 0
M  V30 40 H 5.801137 0.668069 0.928209 0
M  V30 41 H 6.159368 3.123857 0.942415 0
M  V30 42 H 5.446365 4.483669 2.906716 0
M  V30 43 H 4.037042 0.978547 4.814169 0
M  V30 44 H 1.097581 -3.368027 1.786076 0
M  V30 45 H -1.046795 -3.105909 0.684081 0
M  V30 46 H -4.008665 -0.454828 2.369886 0
M  V30 47 H -6.671420 -0.119797 -1.448795 0
M  V30 48 H -6.808313 -1.948440 -1.843396 0
M  V30 49 H -1.797442 -2.362631 -2.934436 0
M  V30 50 H -3.699950 -2.659657 -5.223894 0
M  V30 51 H -3.112400 -4.834649 -4.917697 0
M  V30 52 H -1.376057 -4.417697 -4.386189 0
M  V30 53 H -1.912499 -4.244428 -6.062010 0
M  V30 54 H -0.795694 -1.710104 -5.152539 0
M  V30 55 H -2.278995 -0.809388 -5.632923 0
M  V30 56 H -1.781479 -2.180010 -6.659151 0
M  V30 57 H -1.811223 -1.804794 -0.972864 0
M  V30 END ATOM
M  V30 BEGIN BOND
M  V30 1 1 1 2
M  V30 2 2 2 3
M  V30 3 1 3 4
M  V30 4 1 4 5
M  V30 5 1 5 6
M  V30 6 2 6 7
M  V30 7 1 6 8
M  V30 8 1 8 9
M  V30 9 1 8 10
M  V30 10 2 10 11
M  V30 11 1 11 12
M  V30 12 2 12 13
M  V30 13 1 13 14
M  V30 14 1 14 15
M  V30 15 2 14 16
M  V30 16 2 4 17
M  V30 17 1 17 18
M  V30 18 2 18 19
M  V30 19 1 19 20
M  V30 20 2 20 21
M  V30 21 1 21 22
M  V30 22 2 22 23
M  V30 23 1 23 24
M  V30 24 1 23 25
M  V30 25 1 25 26
M  V30 26 2 26 27
M  V30 27 1 26 28
M  V30 28 1 28 29
M  V30 29 1 29 30
M  V30 30 1 29 31
M  V30 31 2 25 32
M  V30 32 1 19 2
M  V30 33 1 32 20
M  V30 34 1 16 10
M  V30 35 1 1 33
M  V30 36 1 1 34
M  V30 37 1 1 35
M  V30 38 1 3 36
M  V30 39 1 5 37
M  V30 40 1 8 38 CFG=3
M  V30 41 1 9 39
M  V30 42 1 11 40
M  V30 43 1 12 41
M  V30 44 1 13 42
M  V30 45 1 16 43
M  V30 46 1 17 44
M  V30 47 1 18 45
M  V30 48 1 21 46
M  V30 49 1 24 47
M  V30 50 1 24 48
M  V30 51 1 28 49
M  V30 52 1 29 50
M  V30 53 1 30 51
M  V30 54 1 30 52
M  V30 55 1 30 53
M  V30 56 1 31 54
M  V30 57 1 31 55
M  V30 58 1 31 56
M  V30 59 1 32 57
M  V30 END BOND
M  V30 END CTAB
M  END
>  <Dataset>  (972) 
ChEMBL_Kinases

>  <Ligand_Instance>  (972) 
nan

>  <PDB_ID>  (972) 
nan

>  <Standardized_SMILES>  (972) 
Cc1cc(NC(=O)[C@H](O)c2cccc(Cl)c2)ccc1-c1cnc(N)c(C(=O)NC(C)C)c1

>  <Name>  (972) 
nan

>  <Pocket>  (972) 
nan

>  <ATP_Site>  (972) 
nan

>  <Peripheral>  (972) 
nan

>  <Num_H_Atoms_ProtBoundConf>  (972) 
nan

>  <Num_Resolved_Atoms>  (972) 
nan

>  <Num_Not_Resolved_Atoms>  (972) 
nan

$$$$
CHEMBL4082801
     RDKit          3D

  0  0  0  0  0  0  0  0  0  0999 V3000
M  V30 BEGIN CTAB
M  V30 COUNTS 46 49 0 0 0
M  V30 BEGIN ATOM
M  V30 1 N 2.110997 -4.553702 4.028991 0
M  V30 2 C 1.020368 -4.258704 3.172704 0
M  V30 3 O 0.062890 -5.078176 3.113696 0
M  V30 4 C 1.157386 -3.001332 2.448814 0
M  V30 5 C 2.214745 -2.123060 2.530973 0
M  V30 6 N 2.110370 -1.042894 1.773402 0
M  V30 7 C 1.135746 -0.695533 0.954605 0
M  V30 8 N 1.251893 0.529565 0.238761 0
M  V30 9 C 2.419773 1.365543 0.415697 0 CFG=1
M  V30 10 C 2.267123 2.591444 -0.465403 0
M  V30 11 N 3.293011 3.543989 -0.161220 0
M  V30 12 C 3.075839 4.140188 1.122062 0
M  V30 13 C 2.148013 3.273827 1.945448 0
M  V30 14 C 2.634123 1.835086 1.819454 0 CFG=2
M  V30 15 O 4.001671 1.875992 2.132918 0
M  V30 16 C 0.028330 -1.500140 0.794535 0
M  V30 17 C -1.103081 -1.390389 0.032526 0
M  V30 18 C -2.042436 -2.336414 0.066008 0
M  V30 19 C -3.324714 -2.367951 -0.697458 0
M  V30 20 C -3.700357 -1.369988 -1.568099 0
M  V30 21 C -4.901725 -1.497210 -2.220662 0
M  V30 22 C -5.741271 -2.580008 -2.038257 0
M  V30 23 C -5.320839 -3.566072 -1.147884 0
M  V30 24 C -4.117887 -3.473513 -0.472088 0
M  V30 25 S -1.454084 -3.532250 1.193674 0
M  V30 26 C 0.097830 -2.655434 1.579044 0
M  V30 27 H 2.384714 -4.333086 5.017973 0
M  V30 28 H 3.011617 -5.093446 3.958160 0
M  V30 29 H 3.011029 -2.391045 3.189777 0
M  V30 30 H 0.467643 0.811659 -0.421773 0
M  V30 31 H 3.280059 0.752172 0.042387 0
M  V30 32 H 2.346714 2.295339 -1.535648 0
M  V30 33 H 1.239827 2.983873 -0.350087 0
M  V30 34 H 3.439134 4.233253 -0.910760 0
M  V30 35 H 2.724828 5.189124 1.071488 0
M  V30 36 H 4.051657 4.153382 1.646678 0
M  V30 37 H 1.080620 3.366460 1.647081 0
M  V30 38 H 2.239198 3.626498 3.002555 0
M  V30 39 H 2.085215 1.201797 2.563347 0
M  V30 40 H 4.161912 1.248394 2.865332 0
M  V30 41 H -1.241302 -0.508623 -0.618299 0
M  V30 42 H -3.027279 -0.539324 -1.690293 0
M  V30 43 H -5.223152 -0.727071 -2.911827 0
M  V30 44 H -6.681430 -2.732215 -2.515127 0
M  V30 45 H -5.936281 -4.433368 -0.966924 0
M  V30 46 H -3.850139 -4.283106 0.211621 0
M  V30 END ATOM
M  V30 BEGIN BOND
M  V30 1 1 1 2
M  V30 2 2 2 3
M  V30 3 1 2 4
M  V30 4 2 4 5
M  V30 5 1 5 6
M  V30 6 2 6 7
M  V30 7 1 7 8
M  V30 8 1 8 9
M  V30 9 1 9 10
M  V30 10 1 10 11
M  V30 11 1 11 12
M  V30 12 1 12 13
M  V30 13 1 13 14
M  V30 14 1 14 15
M  V30 15 1 7 16
M  V30 16 1 16 17
M  V30 17 2 17 18
M  V30 18 1 18 19
M  V30 19 2 19 20
M  V30 20 1 20 21
M  V30 21 2 21 22
M  V30 22 1 22 23
M  V30 23 2 23 24
M  V30 24 1 18 25
M  V30 25 1 25 26
M  V30 26 1 26 4
M  V30 27 1 14 9
M  V30 28 2 26 16
M  V30 29 1 24 19
M  V30 30 1 1 27
M  V30 31 1 1 28
M  V30 32 1 5 29
M  V30 33 1 8 30
M  V30 34 1 9 31 CFG=3
M  V30 35 1 10 32
M  V30 36 1 10 33
M  V30 37 1 11 34
M  V30 38 1 12 35
M  V30 39 1 12 36
M  V30 40 1 13 37
M  V30 41 1 13 38
M  V30 42 1 14 39 CFG=1
M  V30 43 1 15 40
M  V30 44 1 17 41
M  V30 45 1 20 42
M  V30 46 1 21 43
M  V30 47 1 22 44
M  V30 48 1 23 45
M  V30 49 1 24 46
M  V30 END BOND
M  V30 END CTAB
M  END
>  <Dataset>  (973) 
ChEMBL_Kinases

>  <Ligand_Instance>  (973) 
nan

>  <PDB_ID>  (973) 
nan

>  <Standardized_SMILES>  (973) 
NC(=O)c1cnc(N[C@H]2CNCC[C@@H]2O)c2cc(-c3ccccc3)sc12

>  <Name>  (973) 
nan

>  <Pocket>  (973) 
nan

>  <ATP_Site>  (973) 
nan

>  <Peripheral>  (973) 
nan

>  <Num_H_Atoms_ProtBoundConf>  (973) 
nan

>  <Num_Resolved_Atoms>  (973) 
nan

>  <Num_Not_Resolved_Atoms>  (973) 
nan

$$$$
CHEMBL4852944
     RDKit          3D

  0  0  0  0  0  0  0  0  0  0999 V3000
M  V30 BEGIN CTAB
M  V30 COUNTS 34 37 0 0 0
M  V30 BEGIN ATOM
M  V30 1 F -0.369317 -2.867201 3.544579 0
M  V30 2 C -1.238929 -3.427150 2.632405 0 CFG=2
M  V30 3 C -0.587143 -4.677513 2.037653 0
M  V30 4 C -0.302739 -4.281079 0.584012 0
M  V30 5 N -0.289749 -2.841143 0.569261 0
M  V30 6 C 0.573408 -1.975148 -0.158431 0
M  V30 7 N 1.532761 -2.458726 -0.963316 0
M  V30 8 C 2.374232 -1.652646 -1.672598 0
M  V30 9 C 2.174298 -0.278098 -1.508272 0
M  V30 10 C 1.195110 0.242110 -0.686818 0
M  V30 11 C 1.050526 1.689698 -0.569214 0
M  V30 12 C 1.795874 2.670365 -1.198098 0
M  V30 13 N 1.327861 3.868971 -0.808074 0
M  V30 14 N 0.311342 3.687819 0.046513 0
M  V30 15 N -0.412427 4.628331 0.652125 0
M  V30 16 C -1.414489 4.254568 1.495080 0
M  V30 17 C -1.664354 2.907125 1.708624 0
M  V30 18 C -0.894460 1.956202 1.064287 0
M  V30 19 C 0.124888 2.357775 0.206738 0
M  V30 20 N 0.418954 -0.640765 -0.032218 0
M  V30 21 C -1.347216 -2.470361 1.457004 0
M  V30 22 H -2.218697 -3.631865 3.087231 0
M  V30 23 H 0.341731 -4.955983 2.573870 0
M  V30 24 H -1.338837 -5.478655 2.114992 0
M  V30 25 H -1.200324 -4.607155 -0.018476 0
M  V30 26 H 0.608009 -4.755524 0.211202 0
M  V30 27 H 3.151566 -2.029750 -2.324803 0
M  V30 28 H 2.854165 0.343983 -2.081236 0
M  V30 29 H 2.605102 2.406243 -1.877327 0
M  V30 30 H -2.025129 4.998269 2.006167 0
M  V30 31 H -2.458381 2.569835 2.376679 0
M  V30 32 H -1.029444 0.895040 1.180525 0
M  V30 33 H -1.285166 -1.431418 1.827196 0
M  V30 34 H -2.364634 -2.559636 0.980980 0
M  V30 END ATOM
M  V30 BEGIN BOND
M  V30 1 1 1 2
M  V30 2 1 2 3
M  V30 3 1 3 4
M  V30 4 1 4 5
M  V30 5 1 5 6
M  V30 6 2 6 7
M  V30 7 1 7 8
M  V30 8 2 8 9
M  V30 9 1 9 10
M  V30 10 1 10 11
M  V30 11 1 11 12
M  V30 12 2 12 13
M  V30 13 1 13 14
M  V30 14 1 14 15
M  V30 15 2 15 16
M  V30 16 1 16 17
M  V30 17 2 17 18
M  V30 18 1 18 19
M  V30 19 2 10 20
M  V30 20 1 5 21
M  V30 21 1 21 2
M  V30 22 1 20 6
M  V30 23 2 19 11
M  V30 24 1 19 14
M  V30 25 1 2 22 CFG=1
M  V30 26 1 3 23
M  V30 27 1 3 24
M  V30 28 1 4 25
M  V30 29 1 4 26
M  V30 30 1 8 27
M  V30 31 1 9 28
M  V30 32 1 12 29
M  V30 33 1 16 30
M  V30 34 1 17 31
M  V30 35 1 18 32
M  V30 36 1 21 33
M  V30 37 1 21 34
M  V30 END BOND
M  V30 END CTAB
M  END
>  <Dataset>  (974) 
ChEMBL_Kinases

>  <Ligand_Instance>  (974) 
nan

>  <PDB_ID>  (974) 
nan

>  <Standardized_SMILES>  (974) 
F[C@@H]1CCN(c2nccc(-c3cnn4ncccc34)n2)C1

>  <Name>  (974) 
nan

>  <Pocket>  (974) 
nan

>  <ATP_Site>  (974) 
nan

>  <Peripheral>  (974) 
nan

>  <Num_H_Atoms_ProtBoundConf>  (974) 
nan

>  <Num_Resolved_Atoms>  (974) 
nan

>  <Num_Not_Resolved_Atoms>  (974) 
nan

$$$$
CHEMBL4852953
     RDKit          3D

  0  0  0  0  0  0  0  0  0  0999 V3000
M  V30 BEGIN CTAB
M  V30 COUNTS 31 33 0 0 0
M  V30 BEGIN ATOM
M  V30 1 C -1.962336 -1.662586 2.928427 0
M  V30 2 N -1.307720 -2.811574 2.301620 0
M  V30 3 C -1.725010 -4.109049 2.796277 0
M  V30 4 C -0.329011 -2.688473 1.278270 0
M  V30 5 N 0.219025 -3.801301 0.760379 0
M  V30 6 C 1.152702 -3.712078 -0.214550 0
M  V30 7 C 1.521635 -2.448326 -0.657092 0
M  V30 8 C 0.955497 -1.308240 -0.121651 0
M  V30 9 C 1.378550 -0.004216 -0.622256 0
M  V30 10 C 2.311578 0.256964 -1.604771 0
M  V30 11 N 2.411097 1.603387 -1.770785 0
M  V30 12 C 1.563531 2.216588 -0.917742 0
M  V30 13 N 1.302174 3.522288 -0.706514 0
M  V30 14 C 0.397942 3.907501 0.216066 0
M  V30 15 C -0.287187 2.970185 0.972145 0
M  V30 16 C -0.008201 1.617327 0.744771 0
M  V30 17 C 0.920118 1.228115 -0.202674 0
M  V30 18 N 0.018058 -1.458886 0.860052 0
M  V30 19 H -2.785834 -1.317734 2.303541 0
M  V30 20 H -2.281038 -1.887144 3.950993 0
M  V30 21 H -1.191040 -0.843548 2.944358 0
M  V30 22 H -0.881896 -4.830366 2.768028 0
M  V30 23 H -2.569909 -4.443977 2.170693 0
M  V30 24 H -2.001981 -4.049631 3.888391 0
M  V30 25 H 1.554127 -4.642202 -0.588537 0
M  V30 26 H 2.262680 -2.455892 -1.427224 0
M  V30 27 H 2.891058 -0.480221 -2.173247 0
M  V30 28 H 3.048158 2.101200 -2.456462 0
M  V30 29 H 0.116529 4.928915 0.461347 0
M  V30 30 H -1.024539 3.236339 1.726674 0
M  V30 31 H -0.514122 0.842324 1.306932 0
M  V30 END ATOM
M  V30 BEGIN BOND
M  V30 1 1 1 2
M  V30 2 1 2 3
M  V30 3 1 2 4
M  V30 4 2 4 5
M  V30 5 1 5 6
M  V30 6 2 6 7
M  V30 7 1 7 8
M  V30 8 1 8 9
M  V30 9 2 9 10
M  V30 10 1 10 11
M  V30 11 1 11 12
M  V30 12 2 12 13
M  V30 13 1 13 14
M  V30 14 2 14 15
M  V30 15 1 15 16
M  V30 16 2 16 17
M  V30 17 2 8 18
M  V30 18 1 18 4
M  V30 19 1 17 9
M  V30 20 1 17 12
M  V30 21 1 1 19
M  V30 22 1 1 20
M  V30 23 1 1 21
M  V30 24 1 3 22
M  V30 25 1 3 23
M  V30 26 1 3 24
M  V30 27 1 6 25
M  V30 28 1 7 26
M  V30 29 1 10 27
M  V30 30 1 11 28
M  V30 31 1 14 29
M  V30 32 1 15 30
M  V30 33 1 16 31
M  V30 END BOND
M  V30 END CTAB
M  END
>  <Dataset>  (975) 
ChEMBL_Kinases

>  <Ligand_Instance>  (975) 
nan

>  <PDB_ID>  (975) 
nan

>  <Standardized_SMILES>  (975) 
CN(C)c1nccc(-c2c[nH]c3ncccc23)n1

>  <Name>  (975) 
nan

>  <Pocket>  (975) 
nan

>  <ATP_Site>  (975) 
nan

>  <Peripheral>  (975) 
nan

>  <Num_H_Atoms_ProtBoundConf>  (975) 
nan

>  <Num_Resolved_Atoms>  (975) 
nan

>  <Num_Not_Resolved_Atoms>  (975) 
nan

$$$$
CHEMBL4853006
     RDKit          3D

  0  0  0  0  0  0  0  0  0  0999 V3000
M  V30 BEGIN CTAB
M  V30 COUNTS 49 52 0 0 0
M  V30 BEGIN ATOM
M  V30 1 C 8.835595 -2.917082 2.956692 0
M  V30 2 N 7.407241 -3.160055 2.917996 0
M  V30 3 C 6.390706 -2.196299 3.211734 0
M  V30 4 O 6.732191 -1.010648 3.539730 0
M  V30 5 C 4.996051 -2.622650 3.120458 0
M  V30 6 C 4.025539 -1.685151 3.406060 0
M  V30 7 C 2.695693 -2.037299 3.334492 0
M  V30 8 O 1.588024 -1.256832 3.578588 0
M  V30 9 C 0.930709 -0.497424 2.620094 0
M  V30 10 C 1.267273 -0.394008 1.285447 0
M  V30 11 C 0.538281 0.395240 0.418726 0
M  V30 12 C -0.538007 1.069626 0.959440 0
M  V30 13 N -1.361857 1.919815 0.136616 0
M  V30 14 C -2.480762 1.344881 -0.507201 0
M  V30 15 O -2.595914 0.126025 -0.255895 0
M  V30 16 C -3.252879 2.271619 -1.313879 0
M  V30 17 N -3.122434 3.597579 -1.550745 0
M  V30 18 N -4.092294 3.991679 -2.359320 0
M  V30 19 N -4.846221 2.950214 -2.650403 0
M  V30 20 C -4.358051 1.843415 -2.016282 0
M  V30 21 C -5.077678 0.596915 -2.225561 0
M  V30 22 C -4.546746 -0.629397 -2.549651 0
M  V30 23 C -5.313753 -1.762592 -2.717188 0
M  V30 24 C -6.681538 -1.694878 -2.559224 0
M  V30 25 F -7.437838 -2.807494 -2.723438 0
M  V30 26 C -7.299146 -0.506781 -2.234787 0
M  V30 27 C -6.471535 0.584509 -2.082577 0
M  V30 28 C -0.906099 0.993361 2.282525 0
M  V30 29 C -0.161761 0.192988 3.147158 0
M  V30 30 C 2.356865 -3.341031 2.972922 0
M  V30 31 C 3.357934 -4.260614 2.691731 0
M  V30 32 N 4.629874 -3.871548 2.774966 0
M  V30 33 H 9.386093 -3.728540 3.474811 0
M  V30 34 H 9.175562 -2.753926 1.918063 0
M  V30 35 H 9.026466 -1.960333 3.515461 0
M  V30 36 H 7.110253 -4.127898 2.650775 0
M  V30 37 H 4.201477 -0.661627 3.691800 0
M  V30 38 H 2.125863 -0.961960 0.965249 0
M  V30 39 H 0.796024 0.478531 -0.618647 0
M  V30 40 H -1.036404 2.919294 0.096051 0
M  V30 41 H -4.080200 5.006053 -2.604373 0
M  V30 42 H -3.482305 -0.683204 -2.680950 0
M  V30 43 H -4.800078 -2.677269 -2.970938 0
M  V30 44 H -8.363348 -0.392021 -2.098404 0
M  V30 45 H -6.945884 1.523531 -1.827510 0
M  V30 46 H -1.759057 1.539933 2.666276 0
M  V30 47 H -0.487310 0.165367 4.169920 0
M  V30 48 H 1.356609 -3.730785 2.883691 0
M  V30 49 H 3.161677 -5.288680 2.405102 0
M  V30 END ATOM
M  V30 BEGIN BOND
M  V30 1 1 1 2
M  V30 2 1 2 3
M  V30 3 2 3 4
M  V30 4 1 3 5
M  V30 5 2 5 6
M  V30 6 1 6 7
M  V30 7 1 7 8
M  V30 8 1 8 9
M  V30 9 2 9 10
M  V30 10 1 10 11
M  V30 11 2 11 12
M  V30 12 1 12 13
M  V30 13 1 13 14
M  V30 14 2 14 15
M  V30 15 1 14 16
M  V30 16 2 16 17
M  V30 17 1 17 18
M  V30 18 1 18 19
M  V30 19 2 19 20
M  V30 20 1 20 21
M  V30 21 2 21 22
M  V30 22 1 22 23
M  V30 23 2 23 24
M  V30 24 1 24 25
M  V30 25 1 24 26
M  V30 26 2 26 27
M  V30 27 1 12 28
M  V30 28 2 28 29
M  V30 29 2 7 30
M  V30 30 1 30 31
M  V30 31 2 31 32
M  V30 32 1 32 5
M  V30 33 1 29 9
M  V30 34 1 20 16
M  V30 35 1 27 21
M  V30 36 1 1 33
M  V30 37 1 1 34
M  V30 38 1 1 35
M  V30 39 1 2 36
M  V30 40 1 6 37
M  V30 41 1 10 38
M  V30 42 1 11 39
M  V30 43 1 13 40
M  V30 44 1 18 41
M  V30 45 1 22 42
M  V30 46 1 23 43
M  V30 47 1 26 44
M  V30 48 1 27 45
M  V30 49 1 28 46
M  V30 50 1 29 47
M  V30 51 1 30 48
M  V30 52 1 31 49
M  V30 END BOND
M  V30 END CTAB
M  END
>  <Dataset>  (976) 
ChEMBL_Kinases

>  <Ligand_Instance>  (976) 
nan

>  <PDB_ID>  (976) 
nan

>  <Standardized_SMILES>  (976) 
CNC(=O)c1cc(Oc2ccc(NC(=O)c3n[nH]nc3-c3ccc(F)cc3)cc2)ccn1

>  <Name>  (976) 
nan

>  <Pocket>  (976) 
nan

>  <ATP_Site>  (976) 
nan

>  <Peripheral>  (976) 
nan

>  <Num_H_Atoms_ProtBoundConf>  (976) 
nan

>  <Num_Resolved_Atoms>  (976) 
nan

>  <Num_Not_Resolved_Atoms>  (976) 
nan

$$$$
CHEMBL4853030
     RDKit          3D

  0  0  0  0  0  0  0  0  0  0999 V3000
M  V30 BEGIN CTAB
M  V30 COUNTS 46 48 0 0 0
M  V30 BEGIN ATOM
M  V30 1 C -1.502469 -0.318543 -3.533278 0
M  V30 2 N -1.926664 -1.429016 -2.755566 0
M  V30 3 C -0.842633 -2.236093 -2.245287 0
M  V30 4 C -0.107070 -1.400332 -1.218455 0 CFG=1
M  V30 5 N -0.924875 -0.984413 -0.113442 0
M  V30 6 C -0.345149 -0.203335 0.925659 0
M  V30 7 N 0.954502 0.130376 0.861334 0
M  V30 8 C 1.606351 0.859574 1.781626 0
M  V30 9 C 3.037044 1.187173 1.642916 0
M  V30 10 F 3.755138 0.380619 2.520050 0
M  V30 11 F 3.517868 0.959687 0.382947 0
M  V30 12 F 3.263638 2.520358 1.955164 0
M  V30 13 N 0.901311 1.287515 2.849176 0
M  V30 14 C -0.395912 0.976768 2.951405 0
M  V30 15 C -1.150058 1.396008 4.027117 0
M  V30 16 C -0.565359 2.194153 5.098439 0
M  V30 17 N 0.819787 2.549454 5.042814 0
M  V30 18 O -1.005907 2.699984 6.161503 0
M  V30 19 C -2.491505 1.112707 4.196330 0
M  V30 20 C -3.145780 0.355344 3.229336 0
M  V30 21 C -2.394510 -0.065473 2.152370 0
M  V30 22 C -1.078200 0.229335 2.014781 0
M  V30 23 C 1.121086 -2.103131 -0.799916 0
M  V30 24 C 0.912352 -3.050873 0.201166 0
M  V30 25 C 1.995104 -3.769319 0.670519 0
M  V30 26 C 3.262470 -3.530939 0.135343 0
M  V30 27 C 3.441427 -2.586705 -0.855369 0
M  V30 28 F 4.652582 -2.331017 -1.394405 0
M  V30 29 C 2.367655 -1.879492 -1.315544 0
M  V30 30 H -1.223636 0.511393 -2.846160 0
M  V30 31 H -2.402918 0.063640 -4.093024 0
M  V30 32 H -0.659329 -0.514176 -4.228726 0
M  V30 33 H -2.722280 -1.955510 -3.114614 0
M  V30 34 H -0.164516 -2.624991 -3.018085 0
M  V30 35 H -1.271497 -3.145286 -1.753575 0
M  V30 36 H 0.247963 -0.494209 -1.793841 0
M  V30 37 H -1.897599 -1.302788 -0.176525 0
M  V30 38 H 1.778180 2.123011 4.900389 0
M  V30 39 H 1.367913 3.444759 5.137476 0
M  V30 40 H -3.066304 1.452638 5.050848 0
M  V30 41 H -4.192722 0.104613 3.310730 0
M  V30 42 H -2.916737 -0.652475 1.411957 0
M  V30 43 H -0.058161 -3.275349 0.653430 0
M  V30 44 H 1.849375 -4.507784 1.446841 0
M  V30 45 H 4.091154 -4.101464 0.515080 0
M  V30 46 H 2.397183 -1.122869 -2.083033 0
M  V30 END ATOM
M  V30 BEGIN BOND
M  V30 1 1 1 2
M  V30 2 1 2 3
M  V30 3 1 3 4
M  V30 4 1 4 5
M  V30 5 1 5 6
M  V30 6 2 6 7
M  V30 7 1 7 8
M  V30 8 1 8 9
M  V30 9 1 9 10
M  V30 10 1 9 11
M  V30 11 1 9 12
M  V30 12 2 8 13
M  V30 13 1 13 14
M  V30 14 2 14 15
M  V30 15 1 15 16
M  V30 16 1 16 17
M  V30 17 2 16 18
M  V30 18 1 15 19
M  V30 19 2 19 20
M  V30 20 1 20 21
M  V30 21 2 21 22
M  V30 22 1 4 23
M  V30 23 2 23 24
M  V30 24 1 24 25
M  V30 25 2 25 26
M  V30 26 1 26 27
M  V30 27 1 27 28
M  V30 28 2 27 29
M  V30 29 1 22 6
M  V30 30 1 29 23
M  V30 31 1 22 14
M  V30 32 1 1 30
M  V30 33 1 1 31
M  V30 34 1 1 32
M  V30 35 1 2 33
M  V30 36 1 3 34
M  V30 37 1 3 35
M  V30 38 1 4 36 CFG=3
M  V30 39 1 5 37
M  V30 40 1 17 38
M  V30 41 1 17 39
M  V30 42 1 19 40
M  V30 43 1 20 41
M  V30 44 1 21 42
M  V30 45 1 24 43
M  V30 46 1 25 44
M  V30 47 1 26 45
M  V30 48 1 29 46
M  V30 END BOND
M  V30 END CTAB
M  END
>  <Dataset>  (977) 
ChEMBL_Kinases

>  <Ligand_Instance>  (977) 
nan

>  <PDB_ID>  (977) 
nan

>  <Standardized_SMILES>  (977) 
CNC[C@@H](Nc1nc(C(F)(F)F)nc2c(C(N)=O)cccc12)c1cccc(F)c1

>  <Name>  (977) 
nan

>  <Pocket>  (977) 
nan

>  <ATP_Site>  (977) 
nan

>  <Peripheral>  (977) 
nan

>  <Num_H_Atoms_ProtBoundConf>  (977) 
nan

>  <Num_Resolved_Atoms>  (977) 
nan

>  <Num_Not_Resolved_Atoms>  (977) 
nan

$$$$
CHEMBL4082699
     RDKit          3D

  0  0  0  0  0  0  0  0  0  0999 V3000
M  V30 BEGIN CTAB
M  V30 COUNTS 24 26 0 0 0
M  V30 BEGIN ATOM
M  V30 1 C -1.920793 -3.287366 -0.314582 0
M  V30 2 S -0.224931 -2.973277 -0.889228 0
M  V30 3 C 0.636612 -2.067473 0.344008 0
M  V30 4 S 1.521991 -2.870762 1.612827 0
M  V30 5 C 2.107876 -1.338814 2.449184 0
M  V30 6 C 2.944635 -1.332232 3.648313 0
M  V30 7 N 3.577917 -1.333967 4.582118 0
M  V30 8 C 1.560225 -0.285700 1.663141 0
M  V30 9 C 0.815549 -0.682867 0.597905 0
M  V30 10 C 0.200500 0.280633 -0.280205 0
M  V30 11 S -0.771679 0.276598 -1.676231 0
M  V30 12 N -0.891193 2.128567 -1.846914 0
M  V30 13 C -0.147163 2.470304 -0.778229 0
M  V30 14 C 0.462071 1.624665 0.096330 0
M  V30 15 C 1.244336 2.154361 1.224643 0
M  V30 16 C 1.845235 1.101883 2.056165 0
M  V30 17 H -1.955062 -3.176728 0.796696 0
M  V30 18 H -2.281930 -4.298251 -0.594379 0
M  V30 19 H -2.624968 -2.514273 -0.735213 0
M  V30 20 H -0.226479 3.564933 -0.891696 0
M  V30 21 H 2.039650 2.865127 0.885979 0
M  V30 22 H 0.579262 2.810346 1.865599 0
M  V30 23 H 1.416516 1.210995 3.103987 0
M  V30 24 H 2.943960 1.265043 2.233793 0
M  V30 END ATOM
M  V30 BEGIN BOND
M  V30 1 1 1 2
M  V30 2 1 2 3
M  V30 3 1 3 4
M  V30 4 1 4 5
M  V30 5 1 5 6
M  V30 6 3 6 7
M  V30 7 2 5 8
M  V30 8 1 8 9
M  V30 9 1 9 10
M  V30 10 1 10 11
M  V30 11 1 11 12
M  V30 12 2 12 13
M  V30 13 1 13 14
M  V30 14 1 14 15
M  V30 15 1 15 16
M  V30 16 2 9 3
M  V30 17 2 14 10
M  V30 18 1 16 8
M  V30 19 1 1 17
M  V30 20 1 1 18
M  V30 21 1 1 19
M  V30 22 1 13 20
M  V30 23 1 15 21
M  V30 24 1 15 22
M  V30 25 1 16 23
M  V30 26 1 16 24
M  V30 END BOND
M  V30 END CTAB
M  END
>  <Dataset>  (978) 
ChEMBL_Kinases

>  <Ligand_Instance>  (978) 
nan

>  <PDB_ID>  (978) 
nan

>  <Standardized_SMILES>  (978) 
CSc1sc(C#N)c2c1-c1sncc1CC2

>  <Name>  (978) 
nan

>  <Pocket>  (978) 
nan

>  <ATP_Site>  (978) 
nan

>  <Peripheral>  (978) 
nan

>  <Num_H_Atoms_ProtBoundConf>  (978) 
nan

>  <Num_Resolved_Atoms>  (978) 
nan

>  <Num_Not_Resolved_Atoms>  (978) 
nan

$$$$
CHEMBL4082587
     RDKit          3D

  0  0  0  0  0  0  0  0  0  0999 V3000
M  V30 BEGIN CTAB
M  V30 COUNTS 58 62 0 0 0
M  V30 BEGIN ATOM
M  V30 1 O 0.273536 -2.872756 0.463239 0
M  V30 2 C 0.632877 -1.732429 0.909108 0
M  V30 3 C 1.726563 -1.511244 1.814527 0
M  V30 4 C 2.138913 -0.355304 2.304979 0
M  V30 5 C 3.256672 -0.200876 3.220366 0
M  V30 6 C 4.027166 -1.247788 3.669464 0
M  V30 7 N 5.068842 -1.089575 4.510641 0
M  V30 8 C 5.391225 0.129363 4.944944 0
M  V30 9 C 4.627643 1.184979 4.503024 0
M  V30 10 C 3.535596 1.084599 3.631396 0
M  V30 11 C 2.836588 2.317046 3.293149 0
M  V30 12 C 1.501723 2.643967 3.333604 0
M  V30 13 C 1.098215 3.900235 2.938936 0
M  V30 14 C 1.966222 4.874327 2.495866 0
M  V30 15 N 1.793286 6.135293 2.072912 0
M  V30 16 C 2.998401 6.627113 1.760293 0
M  V30 17 N 3.893983 5.675293 1.990783 0
M  V30 18 C 3.307738 4.547556 2.455012 0
M  V30 19 C 3.730614 3.297579 2.845014 0
M  V30 20 N -0.208178 -0.715359 0.377814 0
M  V30 21 C -1.231471 -1.191756 -0.506790 0
M  V30 22 C -2.418508 -1.516341 0.119242 0
M  V30 23 C -3.462481 -1.984334 -0.652556 0
M  V30 24 C -3.330655 -2.127251 -2.018626 0
M  V30 25 C -4.348390 -2.608801 -2.954210 0
M  V30 26 N -4.373084 -4.008746 -3.192313 0
M  V30 27 C -4.600085 -4.855901 -2.082893 0
M  V30 28 C -3.394802 -5.616370 -1.596766 0
M  V30 29 O -2.216149 -5.188640 -2.168372 0
M  V30 30 C -2.217010 -5.173071 -3.540606 0
M  V30 31 C -3.395670 -4.480358 -4.132789 0
M  V30 32 C -2.111379 -1.787078 -2.612624 0
M  V30 33 C -1.046810 -1.316299 -1.872305 0
M  V30 34 H 2.256135 -2.433008 2.110066 0
M  V30 35 H 1.544261 0.436519 1.930979 0
M  V30 36 H 3.827573 -2.249497 3.363793 0
M  V30 37 H 6.217829 0.300810 5.618912 0
M  V30 38 H 4.909705 2.169780 4.870875 0
M  V30 39 H 0.887513 1.853991 3.690694 0
M  V30 40 H 0.033402 4.093180 2.994706 0
M  V30 41 H 0.899076 6.671239 1.988358 0
M  V30 42 H 3.271324 7.615355 1.381441 0
M  V30 43 H 4.806594 3.187324 2.758923 0
M  V30 44 H -0.031417 0.291458 0.659095 0
M  V30 45 H -2.570719 -1.421819 1.186017 0
M  V30 46 H -4.397781 -2.250105 -0.232105 0
M  V30 47 H -5.348223 -2.348091 -2.498347 0
M  V30 48 H -4.313441 -2.092324 -3.931583 0
M  V30 49 H -5.115233 -4.285056 -1.282460 0
M  V30 50 H -5.340755 -5.645807 -2.398175 0
M  V30 51 H -3.459470 -6.711778 -1.760036 0
M  V30 52 H -3.342428 -5.454847 -0.507328 0
M  V30 53 H -1.283725 -4.610834 -3.838792 0
M  V30 54 H -2.097746 -6.202575 -3.960709 0
M  V30 55 H -3.943722 -5.208770 -4.796434 0
M  V30 56 H -3.081979 -3.660746 -4.810993 0
M  V30 57 H -1.932984 -1.872192 -3.676643 0
M  V30 58 H -0.100313 -1.047134 -2.296451 0
M  V30 END ATOM
M  V30 BEGIN BOND
M  V30 1 2 1 2
M  V30 2 1 2 3
M  V30 3 2 3 4
M  V30 4 1 4 5
M  V30 5 2 5 6
M  V30 6 1 6 7
M  V30 7 2 7 8
M  V30 8 1 8 9
M  V30 9 2 9 10
M  V30 10 1 10 11
M  V30 11 2 11 12
M  V30 12 1 12 13
M  V30 13 2 13 14
M  V30 14 1 14 15
M  V30 15 1 15 16
M  V30 16 2 16 17
M  V30 17 1 17 18
M  V30 18 2 18 19
M  V30 19 1 2 20
M  V30 20 1 20 21
M  V30 21 2 21 22
M  V30 22 1 22 23
M  V30 23 2 23 24
M  V30 24 1 24 25
M  V30 25 1 25 26
M  V30 26 1 26 27
M  V30 27 1 27 28
M  V30 28 1 28 29
M  V30 29 1 29 30
M  V30 30 1 30 31
M  V30 31 1 24 32
M  V30 32 2 32 33
M  V30 33 1 10 5
M  V30 34 1 19 11
M  V30 35 1 33 21
M  V30 36 1 18 14
M  V30 37 1 31 26
M  V30 38 1 3 34
M  V30 39 1 4 35
M  V30 40 1 6 36
M  V30 41 1 8 37
M  V30 42 1 9 38
M  V30 43 1 12 39
M  V30 44 1 13 40
M  V30 45 1 15 41
M  V30 46 1 16 42
M  V30 47 1 19 43
M  V30 48 1 20 44
M  V30 49 1 22 45
M  V30 50 1 23 46
M  V30 51 1 25 47
M  V30 52 1 25 48
M  V30 53 1 27 49
M  V30 54 1 27 50
M  V30 55 1 28 51
M  V30 56 1 28 52
M  V30 57 1 30 53
M  V30 58 1 30 54
M  V30 59 1 31 55
M  V30 60 1 31 56
M  V30 61 1 32 57
M  V30 62 1 33 58
M  V30 END BOND
M  V30 END CTAB
M  END
>  <Dataset>  (979) 
ChEMBL_Kinases

>  <Ligand_Instance>  (979) 
nan

>  <PDB_ID>  (979) 
nan

>  <Standardized_SMILES>  (979) 
O=C(/C=C/c1cnccc1-c1ccc2[nH]cnc2c1)Nc1ccc(CN2CCOCC2)cc1

>  <Name>  (979) 
nan

>  <Pocket>  (979) 
nan

>  <ATP_Site>  (979) 
nan

>  <Peripheral>  (979) 
nan

>  <Num_H_Atoms_ProtBoundConf>  (979) 
nan

>  <Num_Resolved_Atoms>  (979) 
nan

>  <Num_Not_Resolved_Atoms>  (979) 
nan

$$$$
CHEMBL4853053
     RDKit          3D

  0  0  0  0  0  0  0  0  0  0999 V3000
M  V30 BEGIN CTAB
M  V30 COUNTS 58 61 0 0 0
M  V30 BEGIN ATOM
M  V30 1 C 1.672004 -0.553830 5.250631 0
M  V30 2 N 2.460282 -1.611425 4.657642 0
M  V30 3 C 2.239783 -2.977798 5.078491 0
M  V30 4 C 3.454053 -1.325353 3.657450 0
M  V30 5 O 4.052930 -2.297496 3.134909 0
M  V30 6 C 3.837017 0.027391 3.188884 0
M  V30 7 C 3.196352 0.222157 1.866981 0
M  V30 8 C 2.303665 1.254400 1.754398 0
M  V30 9 C 1.662082 1.421496 0.552400 0
M  V30 10 C 1.839623 0.635388 -0.558599 0
M  V30 11 N 1.196105 0.746415 -1.817948 0
M  V30 12 C 0.542853 1.950798 -2.272125 0
M  V30 13 C -0.944536 1.752139 -2.445292 0
M  V30 14 C -1.426933 0.768709 -1.376395 0
M  V30 15 N -1.088370 -0.559663 -1.840217 0
M  V30 16 C -2.263459 -1.354700 -2.011563 0
M  V30 17 C -2.686416 -1.800982 -3.260628 0
M  V30 18 C -3.840100 -2.536871 -3.474846 0
M  V30 19 N -4.605929 -2.841017 -2.400530 0
M  V30 20 C -4.268994 -2.449837 -1.157953 0
M  V30 21 C -5.102833 -2.806448 -0.112110 0
M  V30 22 C -4.769739 -2.417599 1.180220 0
M  V30 23 C -3.612575 -1.692509 1.338184 0
M  V30 24 C -3.300124 -1.307987 2.707204 0
M  V30 25 N -3.059249 -1.011560 3.822794 0
M  V30 26 C -2.776833 -1.331293 0.308195 0
M  V30 27 C -3.111902 -1.716217 -0.961157 0
M  V30 28 C 0.061567 -1.366766 -2.191210 0
M  V30 29 C 1.158484 -0.416810 -2.669540 0
M  V30 30 C 2.758736 -0.391780 -0.383475 0
M  V30 31 C 3.445819 -0.623460 0.798645 0
M  V30 32 H 1.069903 -0.038434 4.440535 0
M  V30 33 H 0.898706 -0.960432 5.945224 0
M  V30 34 H 2.240316 0.204748 5.802293 0
M  V30 35 H 1.663554 -2.976078 6.030262 0
M  V30 36 H 1.614220 -3.544691 4.363816 0
M  V30 37 H 3.209800 -3.528439 5.198016 0
M  V30 38 H 3.521122 0.746789 3.960344 0
M  V30 39 H 4.944207 0.141256 3.122340 0
M  V30 40 H 2.041424 1.977870 2.538050 0
M  V30 41 H 0.944079 2.245099 0.429533 0
M  V30 42 H 1.008172 2.305179 -3.233401 0
M  V30 43 H 0.709689 2.741706 -1.538332 0
M  V30 44 H -1.225050 1.424096 -3.466635 0
M  V30 45 H -1.433291 2.719395 -2.224313 0
M  V30 46 H -0.925533 1.057272 -0.431525 0
M  V30 47 H -2.530697 0.863665 -1.254037 0
M  V30 48 H -2.046073 -1.539229 -4.085106 0
M  V30 49 H -4.061805 -2.827446 -4.491727 0
M  V30 50 H -6.014127 -3.382045 -0.260473 0
M  V30 51 H -5.422175 -2.693732 1.995935 0
M  V30 52 H -1.897346 -0.769272 0.571446 0
M  V30 53 H 0.368662 -1.920902 -1.285947 0
M  V30 54 H -0.160486 -2.100559 -2.975150 0
M  V30 55 H 0.841431 -0.122487 -3.690887 0
M  V30 56 H 2.132683 -0.919078 -2.820418 0
M  V30 57 H 3.070711 -1.148177 -1.116184 0
M  V30 58 H 4.159150 -1.381419 1.000165 0
M  V30 END ATOM
M  V30 BEGIN BOND
M  V30 1 1 1 2
M  V30 2 1 2 3
M  V30 3 1 2 4
M  V30 4 2 4 5
M  V30 5 1 4 6
M  V30 6 1 6 7
M  V30 7 2 7 8
M  V30 8 1 8 9
M  V30 9 2 9 10
M  V30 10 1 10 11
M  V30 11 1 11 12
M  V30 12 1 12 13
M  V30 13 1 13 14
M  V30 14 1 14 15
M  V30 15 1 15 16
M  V30 16 2 16 17
M  V30 17 1 17 18
M  V30 18 2 18 19
M  V30 19 1 19 20
M  V30 20 2 20 21
M  V30 21 1 21 22
M  V30 22 2 22 23
M  V30 23 1 23 24
M  V30 24 3 24 25
M  V30 25 1 23 26
M  V30 26 2 26 27
M  V30 27 1 15 28
M  V30 28 1 28 29
M  V30 29 1 10 30
M  V30 30 2 30 31
M  V30 31 1 31 7
M  V30 32 1 29 11
M  V30 33 1 27 16
M  V30 34 1 27 20
M  V30 35 1 1 32
M  V30 36 1 1 33
M  V30 37 1 1 34
M  V30 38 1 3 35
M  V30 39 1 3 36
M  V30 40 1 3 37
M  V30 41 1 6 38
M  V30 42 1 6 39
M  V30 43 1 8 40
M  V30 44 1 9 41
M  V30 45 1 12 42
M  V30 46 1 12 43
M  V30 47 1 13 44
M  V30 48 1 13 45
M  V30 49 1 14 46
M  V30 50 1 14 47
M  V30 51 1 17 48
M  V30 52 1 18 49
M  V30 53 1 21 50
M  V30 54 1 22 51
M  V30 55 1 26 52
M  V30 56 1 28 53
M  V30 57 1 28 54
M  V30 58 1 29 55
M  V30 59 1 29 56
M  V30 60 1 30 57
M  V30 61 1 31 58
M  V30 END BOND
M  V30 END CTAB
M  END
>  <Dataset>  (980) 
ChEMBL_Kinases

>  <Ligand_Instance>  (980) 
nan

>  <PDB_ID>  (980) 
nan

>  <Standardized_SMILES>  (980) 
CN(C)C(=O)Cc1ccc(N2CCCN(c3ccnc4ccc(C#N)cc34)CC2)cc1

>  <Name>  (980) 
nan

>  <Pocket>  (980) 
nan

>  <ATP_Site>  (980) 
nan

>  <Peripheral>  (980) 
nan

>  <Num_H_Atoms_ProtBoundConf>  (980) 
nan

>  <Num_Resolved_Atoms>  (980) 
nan

>  <Num_Not_Resolved_Atoms>  (980) 
nan

$$$$
CHEMBL4082444
     RDKit          3D

  0  0  0  0  0  0  0  0  0  0999 V3000
M  V30 BEGIN CTAB
M  V30 COUNTS 58 62 0 0 0
M  V30 BEGIN ATOM
M  V30 1 O -0.001829 -0.719002 0.908047 0
M  V30 2 C -0.456361 -1.228515 1.984209 0
M  V30 3 C 0.216376 -0.958875 3.252435 0
M  V30 4 C 1.289968 -0.190927 3.283740 0
M  V30 5 C 2.019454 0.129757 4.490346 0
M  V30 6 C 1.692185 -0.349612 5.737425 0
M  V30 7 N 2.362989 -0.072262 6.876279 0
M  V30 8 C 3.450729 0.732820 6.861741 0
M  V30 9 C 3.808957 1.237077 5.607571 0
M  V30 10 C 3.120353 0.955077 4.427131 0
M  V30 11 C 3.613374 1.582147 3.207573 0
M  V30 12 C 4.903180 1.621313 2.677512 0
M  V30 13 N 4.900283 2.323316 1.544164 0
M  V30 14 N 3.661793 2.764638 1.279575 0
M  V30 15 C 3.184788 3.573504 0.146650 0
M  V30 16 C 2.063039 4.510586 0.479639 0
M  V30 17 C 3.451732 5.055307 0.228399 0
M  V30 18 C 2.856822 2.320150 2.289426 0
M  V30 19 N -1.598880 -2.024932 1.826109 0
M  V30 20 C -1.961550 -2.051734 0.429054 0
M  V30 21 C -2.819809 -1.164547 -0.196460 0
M  V30 22 C -3.102358 -1.274001 -1.542256 0
M  V30 23 C -2.493851 -2.311426 -2.258506 0
M  V30 24 C -1.648845 -3.172379 -1.606525 0
M  V30 25 C -1.358083 -3.076925 -0.270771 0
M  V30 26 C -1.115942 -4.193475 -2.550946 0
M  V30 27 C -2.191670 -4.730321 -3.456996 0
M  V30 28 N -2.996107 -3.771253 -4.078993 0
M  V30 29 C -4.295968 -4.105468 -4.504877 0
M  V30 30 C -5.325531 -4.381680 -3.469929 0
M  V30 31 F -5.030211 -5.430782 -2.634130 0
M  V30 32 F -5.712391 -3.251652 -2.771789 0
M  V30 33 F -6.481364 -4.780257 -4.158601 0
M  V30 34 C -2.806618 -2.408094 -3.683214 0
M  V30 35 H -0.171261 -1.390074 4.156282 0
M  V30 36 H 1.612017 0.194774 2.329658 0
M  V30 37 H 0.842222 -1.001938 5.868282 0
M  V30 38 H 4.049883 1.011934 7.716933 0
M  V30 39 H 4.688099 1.891092 5.576181 0
M  V30 40 H 5.688435 1.119207 3.204795 0
M  V30 41 H 3.097555 3.061028 -0.824642 0
M  V30 42 H 1.307268 4.812987 -0.251908 0
M  V30 43 H 1.680908 4.499500 1.524375 0
M  V30 44 H 3.661934 5.623163 -0.701216 0
M  V30 45 H 4.025473 5.404818 1.116239 0
M  V30 46 H 1.794306 2.548762 2.315705 0
M  V30 47 H -1.994477 -2.456097 2.699040 0
M  V30 48 H -3.235990 -0.400991 0.447151 0
M  V30 49 H -3.779467 -0.543362 -1.948150 0
M  V30 50 H -0.685257 -3.804426 0.127855 0
M  V30 51 H -0.254806 -3.803631 -3.130677 0
M  V30 52 H -0.736882 -5.031113 -1.934567 0
M  V30 53 H -1.655009 -5.309821 -4.265241 0
M  V30 54 H -2.785356 -5.483293 -2.917614 0
M  V30 55 H -4.664980 -3.280722 -5.180707 0
M  V30 56 H -4.211140 -5.005119 -5.180445 0
M  V30 57 H -1.972937 -1.982259 -4.284256 0
M  V30 58 H -3.754584 -1.869844 -3.928841 0
M  V30 END ATOM
M  V30 BEGIN BOND
M  V30 1 2 1 2
M  V30 2 1 2 3
M  V30 3 2 3 4
M  V30 4 1 4 5
M  V30 5 2 5 6
M  V30 6 1 6 7
M  V30 7 2 7 8
M  V30 8 1 8 9
M  V30 9 2 9 10
M  V30 10 1 10 11
M  V30 11 1 11 12
M  V30 12 2 12 13
M  V30 13 1 13 14
M  V30 14 1 14 15
M  V30 15 1 15 16
M  V30 16 1 16 17
M  V30 17 1 14 18
M  V30 18 1 2 19
M  V30 19 1 19 20
M  V30 20 2 20 21
M  V30 21 1 21 22
M  V30 22 2 22 23
M  V30 23 1 23 24
M  V30 24 2 24 25
M  V30 25 1 24 26
M  V30 26 1 26 27
M  V30 27 1 27 28
M  V30 28 1 28 29
M  V30 29 1 29 30
M  V30 30 1 30 31
M  V30 31 1 30 32
M  V30 32 1 30 33
M  V30 33 1 28 34
M  V30 34 1 10 5
M  V30 35 2 18 11
M  V30 36 1 25 20
M  V30 37 1 17 15
M  V30 38 1 34 23
M  V30 39 1 3 35
M  V30 40 1 4 36
M  V30 41 1 6 37
M  V30 42 1 8 38
M  V30 43 1 9 39
M  V30 44 1 12 40
M  V30 45 1 15 41
M  V30 46 1 16 42
M  V30 47 1 16 43
M  V30 48 1 17 44
M  V30 49 1 17 45
M  V30 50 1 18 46
M  V30 51 1 19 47
M  V30 52 1 21 48
M  V30 53 1 22 49
M  V30 54 1 25 50
M  V30 55 1 26 51
M  V30 56 1 26 52
M  V30 57 1 27 53
M  V30 58 1 27 54
M  V30 59 1 29 55
M  V30 60 1 29 56
M  V30 61 1 34 57
M  V30 62 1 34 58
M  V30 END BOND
M  V30 END CTAB
M  END
>  <Dataset>  (981) 
ChEMBL_Kinases

>  <Ligand_Instance>  (981) 
nan

>  <PDB_ID>  (981) 
nan

>  <Standardized_SMILES>  (981) 
O=C(/C=C/c1cnccc1-c1cnn(C2CC2)c1)Nc1ccc2c(c1)CCN(CC(F)(F)F)C2

>  <Name>  (981) 
nan

>  <Pocket>  (981) 
nan

>  <ATP_Site>  (981) 
nan

>  <Peripheral>  (981) 
nan

>  <Num_H_Atoms_ProtBoundConf>  (981) 
nan

>  <Num_Resolved_Atoms>  (981) 
nan

>  <Num_Not_Resolved_Atoms>  (981) 
nan

$$$$
CHEMBL4853172
     RDKit          3D

  0  0  0  0  0  0  0  0  0  0999 V3000
M  V30 BEGIN CTAB
M  V30 COUNTS 66 70 0 0 0
M  V30 BEGIN ATOM
M  V30 1 C 1.965650 -3.412666 4.508819 0
M  V30 2 C 3.243760 -2.799783 3.941184 0
M  V30 3 N 3.003887 -1.455628 3.451464 0
M  V30 4 C 3.114086 -0.324446 4.194267 0
M  V30 5 O 3.440644 -0.237181 5.406201 0
M  V30 6 C 2.803224 0.745182 3.386176 0
M  V30 7 C 2.725871 2.111670 3.543893 0
M  V30 8 N 2.362251 2.894581 2.486983 0
M  V30 9 C 2.084519 2.308641 1.304496 0
M  V30 10 N 1.656110 2.871487 0.066164 0
M  V30 11 C 0.321760 2.479512 -0.335615 0
M  V30 12 C -0.229882 2.781630 -1.576102 0
M  V30 13 C -1.511555 2.337403 -1.865983 0
M  V30 14 C -2.269650 1.613165 -0.992546 0
M  V30 15 C -1.763330 1.291640 0.253317 0
M  V30 16 C -0.493458 1.741628 0.516284 0
M  V30 17 C -2.520855 0.513217 1.264661 0
M  V30 18 C -3.760886 -0.083997 0.766442 0
M  V30 19 N -4.293207 0.334644 -0.456273 0
M  V30 20 C -3.608688 1.150182 -1.354145 0
M  V30 21 C -4.521893 2.339732 -1.683311 0
M  V30 22 C -3.455396 0.380037 -2.675834 0
M  V30 23 N 2.161425 0.968230 1.146496 0
M  V30 24 C 2.516055 0.165447 2.165265 0
M  V30 25 N 2.640443 -1.183882 2.209614 0
M  V30 26 C 2.402643 -2.031363 1.092461 0
M  V30 27 N 1.179560 -2.267304 0.551120 0
M  V30 28 C 1.010472 -3.083118 -0.503136 0
M  V30 29 C -0.351957 -3.311106 -1.080550 0
M  V30 30 C -1.102361 -4.421449 -0.403042 0
M  V30 31 C -1.114140 -2.006669 -0.995184 0
M  V30 32 C -0.151951 -3.597606 -2.507214 0
M  V30 33 N -0.000115 -3.806664 -3.635032 0
M  V30 34 C 2.099649 -3.715652 -1.075213 0
M  V30 35 C 3.348754 -3.502402 -0.557540 0
M  V30 36 C 3.513742 -2.660940 0.527220 0
M  V30 37 F 4.798867 -2.520323 0.949632 0
M  V30 38 H 1.695060 -4.367030 4.056124 0
M  V30 39 H 2.039300 -3.436775 5.619342 0
M  V30 40 H 1.149764 -2.697408 4.283365 0
M  V30 41 H 4.090628 -2.845938 4.622036 0
M  V30 42 H 3.512855 -3.477827 3.082194 0
M  V30 43 H 2.948405 2.563848 4.484699 0
M  V30 44 H 2.157696 3.509504 -0.575314 0
M  V30 45 H 0.402642 3.357628 -2.238350 0
M  V30 46 H -1.876600 2.612969 -2.860646 0
M  V30 47 H -0.118479 1.472884 1.517996 0
M  V30 48 H -2.703311 1.220274 2.114968 0
M  V30 49 H -1.797555 -0.232391 1.663579 0
M  V30 50 H -3.594788 -1.201670 0.711663 0
M  V30 51 H -4.548792 0.028100 1.549972 0
M  V30 52 H -4.828550 -0.426329 -0.975898 0
M  V30 53 H -5.069635 2.678835 -0.792733 0
M  V30 54 H -5.282484 1.933787 -2.383801 0
M  V30 55 H -3.983358 3.124699 -2.222875 0
M  V30 56 H -3.944965 -0.636507 -2.604312 0
M  V30 57 H -3.927935 0.879482 -3.519813 0
M  V30 58 H -2.384917 0.225171 -2.938174 0
M  V30 59 H -0.653998 -4.748969 0.542335 0
M  V30 60 H -2.159495 -4.048369 -0.272497 0
M  V30 61 H -1.228916 -5.307168 -1.079793 0
M  V30 62 H -2.204385 -2.149176 -0.995996 0
M  V30 63 H -0.781502 -1.385847 -1.863631 0
M  V30 64 H -0.728724 -1.453458 -0.103984 0
M  V30 65 H 1.939998 -4.370613 -1.927344 0
M  V30 66 H 4.194769 -4.001857 -1.011316 0
M  V30 END ATOM
M  V30 BEGIN BOND
M  V30 1 1 1 2
M  V30 2 1 2 3
M  V30 3 1 3 4
M  V30 4 2 4 5
M  V30 5 1 4 6
M  V30 6 2 6 7
M  V30 7 1 7 8
M  V30 8 2 8 9
M  V30 9 1 9 10
M  V30 10 1 10 11
M  V30 11 2 11 12
M  V30 12 1 12 13
M  V30 13 2 13 14
M  V30 14 1 14 15
M  V30 15 2 15 16
M  V30 16 1 15 17
M  V30 17 1 17 18
M  V30 18 1 18 19
M  V30 19 1 19 20
M  V30 20 1 20 21
M  V30 21 1 20 22
M  V30 22 1 9 23
M  V30 23 2 23 24
M  V30 24 1 24 25
M  V30 25 1 25 26
M  V30 26 2 26 27
M  V30 27 1 27 28
M  V30 28 1 28 29
M  V30 29 1 29 30
M  V30 30 1 29 31
M  V30 31 1 29 32
M  V30 32 3 32 33
M  V30 33 2 28 34
M  V30 34 1 34 35
M  V30 35 2 35 36
M  V30 36 1 36 37
M  V30 37 1 25 3
M  V30 38 1 36 26
M  V30 39 1 24 6
M  V30 40 1 16 11
M  V30 41 1 20 14
M  V30 42 1 1 38
M  V30 43 1 1 39
M  V30 44 1 1 40
M  V30 45 1 2 41
M  V30 46 1 2 42
M  V30 47 1 7 43
M  V30 48 1 10 44
M  V30 49 1 12 45
M  V30 50 1 13 46
M  V30 51 1 16 47
M  V30 52 1 17 48
M  V30 53 1 17 49
M  V30 54 1 18 50
M  V30 55 1 18 51
M  V30 56 1 19 52
M  V30 57 1 21 53
M  V30 58 1 21 54
M  V30 59 1 21 55
M  V30 60 1 22 56
M  V30 61 1 22 57
M  V30 62 1 22 58
M  V30 63 1 30 59
M  V30 64 1 30 60
M  V30 65 1 30 61
M  V30 66 1 31 62
M  V30 67 1 31 63
M  V30 68 1 31 64
M  V30 69 1 34 65
M  V30 70 1 35 66
M  V30 END BOND
M  V30 END CTAB
M  END
>  <Dataset>  (982) 
ChEMBL_Kinases

>  <Ligand_Instance>  (982) 
nan

>  <PDB_ID>  (982) 
nan

>  <Standardized_SMILES>  (982) 
CCn1c(=O)c2cnc(Nc3ccc4c(c3)CCNC4(C)C)nc2n1-c1nc(C(C)(C)C#N)ccc1F

>  <Name>  (982) 
nan

>  <Pocket>  (982) 
nan

>  <ATP_Site>  (982) 
nan

>  <Peripheral>  (982) 
nan

>  <Num_H_Atoms_ProtBoundConf>  (982) 
nan

>  <Num_Resolved_Atoms>  (982) 
nan

>  <Num_Not_Resolved_Atoms>  (982) 
nan

$$$$
CHEMBL4853175
     RDKit          3D

  0  0  0  0  0  0  0  0  0  0999 V3000
M  V30 BEGIN CTAB
M  V30 COUNTS 43 44 0 0 0
M  V30 BEGIN ATOM
M  V30 1 C -0.450671 -4.484093 1.722923 0
M  V30 2 C -0.290185 -3.130125 2.454733 0
M  V30 3 C 0.327771 -3.418486 3.787583 0
M  V30 4 C 0.556420 -2.264208 4.687774 0
M  V30 5 C 1.484786 -1.212694 4.157036 0 CFG=1
M  V30 6 N 2.807276 -1.731892 3.863026 0
M  V30 7 C 0.848603 -0.508346 3.026360 0
M  V30 8 O -0.298906 -0.068771 2.747668 0
M  V30 9 N 1.726095 -0.220764 1.929785 0
M  V30 10 C 1.187673 0.461400 0.800088 0
M  V30 11 C 1.246745 1.847806 0.831541 0
M  V30 12 C 0.747054 2.617504 -0.225585 0
M  V30 13 C 0.181192 2.014910 -1.329401 0
M  V30 14 C -0.324657 2.857387 -2.403537 0
M  V30 15 C -0.927207 2.573998 -3.602280 0
M  V30 16 N -1.220014 3.706695 -4.264475 0
M  V30 17 C -0.778929 4.690945 -3.435700 0
M  V30 18 O -0.261029 4.161400 -2.356886 0
M  V30 19 C 0.136532 0.638105 -1.332379 0
M  V30 20 O -0.421596 -0.018026 -2.417142 0
M  V30 21 C -0.507948 -1.425616 -2.502091 0
M  V30 22 C 0.622111 -0.143638 -0.302949 0
M  V30 23 H -0.502221 -4.303970 0.647305 0
M  V30 24 H -1.351421 -4.944629 2.162142 0
M  V30 25 H 0.448020 -5.066371 1.972501 0
M  V30 26 H -1.265408 -2.629594 2.489675 0
M  V30 27 H 0.380827 -2.564412 1.779784 0
M  V30 28 H 1.322932 -3.911965 3.548588 0
M  V30 29 H -0.298627 -4.156683 4.375623 0
M  V30 30 H -0.462836 -1.808626 4.883785 0
M  V30 31 H 0.871287 -2.598651 5.723781 0
M  V30 32 H 1.697282 -0.467342 4.998069 0
M  V30 33 H 3.487055 -0.942900 3.792501 0
M  V30 34 H 3.105864 -2.307918 4.681257 0
M  V30 35 H 2.746057 -0.464551 1.868590 0
M  V30 36 H 1.689050 2.355681 1.691995 0
M  V30 37 H 0.834693 3.690564 -0.116516 0
M  V30 38 H -1.130560 1.577021 -3.950520 0
M  V30 39 H -0.845599 5.765513 -3.637634 0
M  V30 40 H -0.955052 -1.822826 -1.547580 0
M  V30 41 H -1.250483 -1.648723 -3.309086 0
M  V30 42 H 0.480230 -1.858213 -2.686846 0
M  V30 43 H 0.582760 -1.214280 -0.314713 0
M  V30 END ATOM
M  V30 BEGIN BOND
M  V30 1 1 1 2
M  V30 2 1 2 3
M  V30 3 1 3 4
M  V30 4 1 4 5
M  V30 5 1 5 6
M  V30 6 1 5 7
M  V30 7 2 7 8
M  V30 8 1 7 9
M  V30 9 1 9 10
M  V30 10 2 10 11
M  V30 11 1 11 12
M  V30 12 2 12 13
M  V30 13 1 13 14
M  V30 14 2 14 15
M  V30 15 1 15 16
M  V30 16 2 16 17
M  V30 17 1 17 18
M  V30 18 1 13 19
M  V30 19 1 19 20
M  V30 20 1 20 21
M  V30 21 2 19 22
M  V30 22 1 22 10
M  V30 23 1 18 14
M  V30 24 1 1 23
M  V30 25 1 1 24
M  V30 26 1 1 25
M  V30 27 1 2 26
M  V30 28 1 2 27
M  V30 29 1 3 28
M  V30 30 1 3 29
M  V30 31 1 4 30
M  V30 32 1 4 31
M  V30 33 1 5 32 CFG=1
M  V30 34 1 6 33
M  V30 35 1 6 34
M  V30 36 1 9 35
M  V30 37 1 11 36
M  V30 38 1 12 37
M  V30 39 1 15 38
M  V30 40 1 17 39
M  V30 41 1 21 40
M  V30 42 1 21 41
M  V30 43 1 21 42
M  V30 44 1 22 43
M  V30 END BOND
M  V30 END CTAB
M  END
>  <Dataset>  (983) 
ChEMBL_Kinases

>  <Ligand_Instance>  (983) 
nan

>  <PDB_ID>  (983) 
nan

>  <Standardized_SMILES>  (983) 
CCCC[C@@H](N)C(=O)Nc1ccc(-c2cnco2)c(OC)c1

>  <Name>  (983) 
nan

>  <Pocket>  (983) 
nan

>  <ATP_Site>  (983) 
nan

>  <Peripheral>  (983) 
nan

>  <Num_H_Atoms_ProtBoundConf>  (983) 
nan

>  <Num_Resolved_Atoms>  (983) 
nan

>  <Num_Not_Resolved_Atoms>  (983) 
nan

$$$$
CHEMBL4853185
     RDKit          3D

  0  0  0  0  0  0  0  0  0  0999 V3000
M  V30 BEGIN CTAB
M  V30 COUNTS 67 72 0 0 0
M  V30 BEGIN ATOM
M  V30 1 C 3.213666 -2.572615 6.139197 0
M  V30 2 C 3.856207 -3.234742 5.195271 0
M  V30 3 C 3.259640 -4.192467 4.253276 0
M  V30 4 N 3.454622 -3.743967 2.883091 0
M  V30 5 C 4.512047 -4.058736 2.113648 0
M  V30 6 O 5.521471 -4.767331 2.367926 0
M  V30 7 C 4.342025 -3.447303 0.878491 0
M  V30 8 C 4.991804 -3.337362 -0.330885 0
M  V30 9 N 4.492190 -2.620313 -1.345473 0
M  V30 10 C 3.324455 -1.966548 -1.237266 0
M  V30 11 N 2.826362 -1.219434 -2.334577 0
M  V30 12 C 1.646858 -0.458485 -2.440200 0
M  V30 13 C 1.305662 0.178324 -3.614479 0
M  V30 14 C 0.166482 0.932429 -3.764441 0
M  V30 15 C -0.711979 1.090945 -2.717858 0
M  V30 16 N -1.905219 1.857977 -2.832499 0
M  V30 17 C -2.844858 2.203665 -1.782416 0
M  V30 18 C -4.060084 1.297033 -2.028719 0
M  V30 19 N -4.378001 1.266946 -3.445038 0
M  V30 20 C -5.764986 0.997592 -3.691488 0
M  V30 21 C -3.882151 2.460666 -4.105404 0
M  V30 22 C -2.355286 2.416258 -4.100913 0
M  V30 23 C -0.424144 0.477909 -1.518620 0
M  V30 24 C 0.735777 -0.268646 -1.424342 0
M  V30 25 N 2.708722 -2.085892 -0.054533 0
M  V30 26 C 3.144332 -2.779977 0.997037 0
M  V30 27 N 2.605858 -2.970320 2.238466 0
M  V30 28 C 1.367389 -2.395684 2.639445 0
M  V30 29 C 0.201036 -2.952530 2.151616 0
M  V30 30 C -1.048427 -2.458315 2.489057 0
M  V30 31 C -1.137785 -1.364257 3.348084 0
M  V30 32 C 0.054316 -0.829870 3.819184 0
M  V30 33 N 1.277550 -1.322646 3.481718 0
M  V30 34 C -0.203646 0.332965 4.724701 0
M  V30 35 O -0.266812 -0.148224 6.026738 0
M  V30 36 C -1.593198 0.749967 4.271942 0
M  V30 37 C -2.239201 -0.565892 3.931740 0
M  V30 38 H 2.142389 -2.839511 6.127816 0
M  V30 39 H 2.565847 -2.109837 6.854424 0
M  V30 40 H 4.917390 -3.035338 5.131814 0
M  V30 41 H 2.187753 -4.389224 4.478613 0
M  V30 42 H 3.771761 -5.181093 4.365499 0
M  V30 43 H 5.931788 -3.865032 -0.413695 0
M  V30 44 H 3.432333 -1.233809 -3.209195 0
M  V30 45 H 1.972815 0.080760 -4.472107 0
M  V30 46 H -0.009643 1.389443 -4.718118 0
M  V30 47 H -3.136763 3.279269 -1.845517 0
M  V30 48 H -2.492054 2.025240 -0.768134 0
M  V30 49 H -4.910880 1.572384 -1.405743 0
M  V30 50 H -3.725298 0.273442 -1.752728 0
M  V30 51 H -5.946027 -0.078223 -3.434628 0
M  V30 52 H -5.992036 1.120708 -4.751436 0
M  V30 53 H -6.444625 1.630857 -3.100372 0
M  V30 54 H -4.253106 2.422412 -5.155534 0
M  V30 55 H -4.202509 3.356252 -3.577117 0
M  V30 56 H -1.993702 1.720846 -4.897542 0
M  V30 57 H -2.005015 3.455772 -4.229815 0
M  V30 58 H -1.094907 0.574162 -0.655913 0
M  V30 59 H 0.893933 -0.712858 -0.468626 0
M  V30 60 H 0.215693 -3.812505 1.473886 0
M  V30 61 H -1.984476 -2.888084 2.110870 0
M  V30 62 H 0.549649 1.134422 4.594204 0
M  V30 63 H -1.213166 -0.208530 6.310085 0
M  V30 64 H -2.115851 1.333625 5.031089 0
M  V30 65 H -1.455704 1.347941 3.331995 0
M  V30 66 H -2.743128 -1.034061 4.783494 0
M  V30 67 H -3.044395 -0.330762 3.185731 0
M  V30 END ATOM
M  V30 BEGIN BOND
M  V30 1 2 1 2
M  V30 2 1 2 3
M  V30 3 1 3 4
M  V30 4 1 4 5
M  V30 5 2 5 6
M  V30 6 1 5 7
M  V30 7 2 7 8
M  V30 8 1 8 9
M  V30 9 2 9 10
M  V30 10 1 10 11
M  V30 11 1 11 12
M  V30 12 2 12 13
M  V30 13 1 13 14
M  V30 14 2 14 15
M  V30 15 1 15 16
M  V30 16 1 16 17
M  V30 17 1 17 18
M  V30 18 1 18 19
M  V30 19 1 19 20
M  V30 20 1 19 21
M  V30 21 1 21 22
M  V30 22 1 15 23
M  V30 23 2 23 24
M  V30 24 1 10 25
M  V30 25 2 25 26
M  V30 26 1 26 27
M  V30 27 1 27 28
M  V30 28 2 28 29
M  V30 29 1 29 30
M  V30 30 2 30 31
M  V30 31 1 31 32
M  V30 32 2 32 33
M  V30 33 1 32 34
M  V30 34 1 34 35
M  V30 35 1 34 36
M  V30 36 1 36 37
M  V30 37 1 27 4
M  V30 38 1 33 28
M  V30 39 1 26 7
M  V30 40 1 37 31
M  V30 41 1 24 12
M  V30 42 1 22 16
M  V30 43 1 1 38
M  V30 44 1 1 39
M  V30 45 1 2 40
M  V30 46 1 3 41
M  V30 47 1 3 42
M  V30 48 1 8 43
M  V30 49 1 11 44
M  V30 50 1 13 45
M  V30 51 1 14 46
M  V30 52 1 17 47
M  V30 53 1 17 48
M  V30 54 1 18 49
M  V30 55 1 18 50
M  V30 56 1 20 51
M  V30 57 1 20 52
M  V30 58 1 20 53
M  V30 59 1 21 54
M  V30 60 1 21 55
M  V30 61 1 22 56
M  V30 62 1 22 57
M  V30 63 1 23 58
M  V30 64 1 24 59
M  V30 65 1 29 60
M  V30 66 1 30 61
M  V30 67 1 34 62
M  V30 68 1 35 63
M  V30 69 1 36 64
M  V30 70 1 36 65
M  V30 71 1 37 66
M  V30 72 1 37 67
M  V30 END BOND
M  V30 END CTAB
M  END
>  <Dataset>  (984) 
ChEMBL_Kinases

>  <Ligand_Instance>  (984) 
nan

>  <PDB_ID>  (984) 
nan

>  <Standardized_SMILES>  (984) 
C=CCn1c(=O)c2cnc(Nc3ccc(N4CCN(C)CC4)cc3)nc2n1-c1ccc2c(n1)C(O)CC2

>  <Name>  (984) 
nan

>  <Pocket>  (984) 
nan

>  <ATP_Site>  (984) 
nan

>  <Peripheral>  (984) 
nan

>  <Num_H_Atoms_ProtBoundConf>  (984) 
nan

>  <Num_Resolved_Atoms>  (984) 
nan

>  <Num_Not_Resolved_Atoms>  (984) 
nan

$$$$
CHEMBL4852908
     RDKit          3D

  0  0  0  0  0  0  0  0  0  0999 V3000
M  V30 BEGIN CTAB
M  V30 COUNTS 51 54 0 0 0
M  V30 BEGIN ATOM
M  V30 1 C 0.922790 -3.295679 4.853384 0
M  V30 2 C 1.993254 -2.423320 4.284078 0
M  V30 3 C 1.952082 -1.018594 4.854875 0
M  V30 4 C 2.100110 -2.406520 2.789701 0
M  V30 5 O 3.185869 -1.530741 2.477083 0
M  V30 6 C 3.120316 -0.378857 1.766446 0
M  V30 7 O 4.216919 0.274111 1.689819 0
M  V30 8 N 1.904500 0.038859 1.165828 0
M  V30 9 C 1.880333 1.254530 0.430430 0
M  V30 10 C 0.926671 2.298083 0.920749 0
M  V30 11 C 1.048033 3.348084 -0.188206 0
M  V30 12 C 1.546109 2.609270 -1.416246 0
M  V30 13 C 1.526682 1.124714 -1.018883 0
M  V30 14 C 0.787709 -0.792269 1.346227 0
M  V30 15 N -0.348105 -0.409783 0.736731 0
M  V30 16 C -1.475027 -1.142114 0.801013 0
M  V30 17 N -2.630872 -0.665037 0.124854 0
M  V30 18 C -3.001635 -1.028207 -1.199690 0
M  V30 19 C -4.118787 -0.497815 -1.810236 0
M  V30 20 C -4.461390 -0.879127 -3.107953 0
M  V30 21 C -3.687443 -1.797722 -3.810158 0
M  V30 22 O -3.982199 -2.215229 -5.106283 0
M  V30 23 C -2.567334 -2.322172 -3.183270 0
M  V30 24 Cl -1.567432 -3.485901 -4.041713 0
M  V30 25 C -2.224856 -1.938307 -1.881230 0
M  V30 26 N -1.425119 -2.290210 1.508357 0
M  V30 27 C -0.269967 -2.677474 2.127788 0
M  V30 28 C 0.885895 -1.958076 2.082251 0
M  V30 29 H 1.111645 -3.505965 5.956477 0
M  V30 30 H 0.944056 -4.323417 4.413447 0
M  V30 31 H -0.081506 -2.837817 4.848884 0
M  V30 32 H 2.974619 -2.842733 4.649924 0
M  V30 33 H 0.928016 -0.739487 5.193915 0
M  V30 34 H 2.363042 -0.331906 4.090927 0
M  V30 35 H 2.575723 -0.937246 5.785800 0
M  V30 36 H 2.444993 -3.411956 2.435630 0
M  V30 37 H 2.900614 1.718182 0.449938 0
M  V30 38 H -0.126583 1.954128 0.889443 0
M  V30 39 H 1.217150 2.701571 1.913465 0
M  V30 40 H 1.770622 4.090289 0.182504 0
M  V30 41 H 0.058334 3.804661 -0.398047 0
M  V30 42 H 0.950635 2.820400 -2.307251 0
M  V30 43 H 2.632418 2.885453 -1.547033 0
M  V30 44 H 2.297222 0.571666 -1.595385 0
M  V30 45 H 0.488619 0.795120 -1.201476 0
M  V30 46 H -3.145744 -0.019599 0.751980 0
M  V30 47 H -4.705950 0.212410 -1.250971 0
M  V30 48 H -5.344077 -0.457883 -3.584994 0
M  V30 49 H -4.497640 -3.052810 -5.309492 0
M  V30 50 H -1.337566 -2.397981 -1.473120 0
M  V30 51 H -0.408045 -3.616284 2.634350 0
M  V30 END ATOM
M  V30 BEGIN BOND
M  V30 1 1 1 2
M  V30 2 1 2 3
M  V30 3 1 2 4
M  V30 4 1 4 5
M  V30 5 1 5 6
M  V30 6 2 6 7
M  V30 7 1 6 8
M  V30 8 1 8 9
M  V30 9 1 9 10
M  V30 10 1 10 11
M  V30 11 1 11 12
M  V30 12 1 12 13
M  V30 13 1 8 14
M  V30 14 2 14 15
M  V30 15 1 15 16
M  V30 16 1 16 17
M  V30 17 1 17 18
M  V30 18 2 18 19
M  V30 19 1 19 20
M  V30 20 2 20 21
M  V30 21 1 21 22
M  V30 22 1 21 23
M  V30 23 1 23 24
M  V30 24 2 23 25
M  V30 25 2 16 26
M  V30 26 1 26 27
M  V30 27 2 27 28
M  V30 28 1 28 4
M  V30 29 1 13 9
M  V30 30 1 28 14
M  V30 31 1 25 18
M  V30 32 1 1 29
M  V30 33 1 1 30
M  V30 34 1 1 31
M  V30 35 1 2 32
M  V30 36 1 3 33
M  V30 37 1 3 34
M  V30 38 1 3 35
M  V30 39 1 4 36
M  V30 40 1 9 37
M  V30 41 1 10 38
M  V30 42 1 10 39
M  V30 43 1 11 40
M  V30 44 1 11 41
M  V30 45 1 12 42
M  V30 46 1 12 43
M  V30 47 1 13 44
M  V30 48 1 13 45
M  V30 49 1 17 46
M  V30 50 1 19 47
M  V30 51 1 20 48
M  V30 52 1 22 49
M  V30 53 1 25 50
M  V30 54 1 27 51
M  V30 END BOND
M  V30 END CTAB
M  END
>  <Dataset>  (985) 
ChEMBL_Kinases

>  <Ligand_Instance>  (985) 
nan

>  <PDB_ID>  (985) 
nan

>  <Standardized_SMILES>  (985) 
CC(C)C1OC(=O)N(C2CCCC2)c2nc(Nc3ccc(O)c(Cl)c3)ncc21

>  <Name>  (985) 
nan

>  <Pocket>  (985) 
nan

>  <ATP_Site>  (985) 
nan

>  <Peripheral>  (985) 
nan

>  <Num_H_Atoms_ProtBoundConf>  (985) 
nan

>  <Num_Resolved_Atoms>  (985) 
nan

>  <Num_Not_Resolved_Atoms>  (985) 
nan

$$$$
CHEMBL4081025
     RDKit          3D

  0  0  0  0  0  0  0  0  0  0999 V3000
M  V30 BEGIN CTAB
M  V30 COUNTS 62 65 0 0 0
M  V30 BEGIN ATOM
M  V30 1 C -3.434724 -1.686315 4.885356 0
M  V30 2 C -2.278114 -1.315043 4.045137 0
M  V30 3 C -1.381742 -0.381664 4.544482 0
M  V30 4 C -0.253569 0.078712 3.902652 0
M  V30 5 C -0.011518 -0.447710 2.652762 0
M  V30 6 C 1.147334 -0.047464 1.861253 0
M  V30 7 O 1.440085 -0.476624 0.694292 0
M  V30 8 N 2.108130 0.879305 2.292188 0
M  V30 9 C 3.187682 1.177231 1.415653 0
M  V30 10 C 4.402881 0.525235 1.354593 0
M  V30 11 C 5.345301 0.946723 0.438359 0
M  V30 12 C 5.043088 2.013816 -0.394729 0
M  V30 13 C 3.833102 2.680943 -0.350444 0
M  V30 14 C 3.550028 3.824451 -1.263245 0
M  V30 15 C 4.740409 4.075047 -2.160194 0
M  V30 16 C 3.430085 5.050347 -0.348128 0
M  V30 17 C 2.255256 3.704335 -1.997467 0
M  V30 18 C 2.905961 2.252250 0.564162 0
M  V30 19 C -0.891584 -1.386231 2.123744 0
M  V30 20 C -2.020125 -1.830845 2.794379 0
M  V30 21 C -2.937820 -2.814286 2.236043 0
M  V30 22 C -2.769121 -3.409558 1.006368 0
M  V30 23 C -3.614108 -4.341976 0.453137 0
M  V30 24 N -3.443832 -4.962824 -0.810149 0
M  V30 25 C -4.453074 -5.923019 -1.277442 0
M  V30 26 C -4.873318 -5.454085 -2.653243 0
M  V30 27 O -3.734359 -5.497674 -3.459291 0
M  V30 28 C -2.891757 -4.430912 -3.079267 0
M  V30 29 C -2.342650 -4.752905 -1.723153 0
M  V30 30 N -4.681576 -4.673662 1.205365 0
M  V30 31 C -4.902948 -4.128307 2.414379 0
M  V30 32 N -4.042171 -3.222148 2.903164 0
M  V30 33 H -3.424376 -2.768177 5.136651 0
M  V30 34 H -3.381315 -1.157493 5.874101 0
M  V30 35 H -4.389683 -1.432532 4.415837 0
M  V30 36 H -1.560370 0.047121 5.535472 0
M  V30 37 H 0.403987 0.808474 4.349088 0
M  V30 38 H 2.019681 1.337662 3.247699 0
M  V30 39 H 4.523959 -0.292106 2.053700 0
M  V30 40 H 6.293830 0.419143 0.406478 0
M  V30 41 H 5.826885 2.289654 -1.085941 0
M  V30 42 H 5.603950 4.272137 -1.524778 0
M  V30 43 H 4.846453 3.202634 -2.823436 0
M  V30 44 H 4.502338 5.006910 -2.738535 0
M  V30 45 H 2.552650 4.889440 0.312211 0
M  V30 46 H 3.228579 5.971087 -0.915468 0
M  V30 47 H 4.322574 5.141002 0.295276 0
M  V30 48 H 1.437873 4.288465 -1.500698 0
M  V30 49 H 1.905868 2.641813 -1.963231 0
M  V30 50 H 2.380083 4.073909 -3.024393 0
M  V30 51 H 1.969898 2.802585 0.568282 0
M  V30 52 H -0.654481 -1.766080 1.140780 0
M  V30 53 H -1.915531 -3.143699 0.404876 0
M  V30 54 H -3.942506 -6.919261 -1.387804 0
M  V30 55 H -5.294875 -6.010240 -0.564700 0
M  V30 56 H -5.711159 -6.009610 -3.072270 0
M  V30 57 H -5.159341 -4.381973 -2.553495 0
M  V30 58 H -3.405072 -3.469785 -3.143969 0
M  V30 59 H -2.037517 -4.499469 -3.816035 0
M  V30 60 H -1.806620 -5.741382 -1.843698 0
M  V30 61 H -1.588192 -4.030872 -1.374488 0
M  V30 62 H -5.779980 -4.416743 3.005478 0
M  V30 END ATOM
M  V30 BEGIN BOND
M  V30 1 1 1 2
M  V30 2 2 2 3
M  V30 3 1 3 4
M  V30 4 2 4 5
M  V30 5 1 5 6
M  V30 6 2 6 7
M  V30 7 1 6 8
M  V30 8 1 8 9
M  V30 9 2 9 10
M  V30 10 1 10 11
M  V30 11 2 11 12
M  V30 12 1 12 13
M  V30 13 1 13 14
M  V30 14 1 14 15
M  V30 15 1 14 16
M  V30 16 1 14 17
M  V30 17 2 13 18
M  V30 18 1 5 19
M  V30 19 2 19 20
M  V30 20 1 20 21
M  V30 21 2 21 22
M  V30 22 1 22 23
M  V30 23 1 23 24
M  V30 24 1 24 25
M  V30 25 1 25 26
M  V30 26 1 26 27
M  V30 27 1 27 28
M  V30 28 1 28 29
M  V30 29 2 23 30
M  V30 30 1 30 31
M  V30 31 2 31 32
M  V30 32 1 20 2
M  V30 33 1 32 21
M  V30 34 1 18 9
M  V30 35 1 29 24
M  V30 36 1 1 33
M  V30 37 1 1 34
M  V30 38 1 1 35
M  V30 39 1 3 36
M  V30 40 1 4 37
M  V30 41 1 8 38
M  V30 42 1 10 39
M  V30 43 1 11 40
M  V30 44 1 12 41
M  V30 45 1 15 42
M  V30 46 1 15 43
M  V30 47 1 15 44
M  V30 48 1 16 45
M  V30 49 1 16 46
M  V30 50 1 16 47
M  V30 51 1 17 48
M  V30 52 1 17 49
M  V30 53 1 17 50
M  V30 54 1 18 51
M  V30 55 1 19 52
M  V30 56 1 22 53
M  V30 57 1 25 54
M  V30 58 1 25 55
M  V30 59 1 26 56
M  V30 60 1 26 57
M  V30 61 1 28 58
M  V30 62 1 28 59
M  V30 63 1 29 60
M  V30 64 1 29 61
M  V30 65 1 31 62
M  V30 END BOND
M  V30 END CTAB
M  END
>  <Dataset>  (986) 
ChEMBL_Kinases

>  <Ligand_Instance>  (986) 
nan

>  <PDB_ID>  (986) 
nan

>  <Standardized_SMILES>  (986) 
Cc1ccc(C(=O)Nc2cccc(C(C)(C)C)c2)cc1-c1cc(N2CCOCC2)ncn1

>  <Name>  (986) 
nan

>  <Pocket>  (986) 
nan

>  <ATP_Site>  (986) 
nan

>  <Peripheral>  (986) 
nan

>  <Num_H_Atoms_ProtBoundConf>  (986) 
nan

>  <Num_Resolved_Atoms>  (986) 
nan

>  <Num_Not_Resolved_Atoms>  (986) 
nan

$$$$
CHEMBL4080980
     RDKit          3D

  0  0  0  0  0  0  0  0  0  0999 V3000
M  V30 BEGIN CTAB
M  V30 COUNTS 60 63 0 0 0
M  V30 BEGIN ATOM
M  V30 1 C 9.400863 1.566426 3.869441 0
M  V30 2 N 8.009180 1.548065 3.438355 0
M  V30 3 C 7.784038 0.402615 2.613003 0
M  V30 4 O 8.806702 -0.310777 2.448914 0
M  V30 5 C 6.521926 0.029413 1.986237 0
M  V30 6 C 6.560132 -1.123278 1.238158 0
M  V30 7 C 5.363683 -1.508572 0.623237 0
M  V30 8 C 4.170593 -0.781959 0.742083 0
M  V30 9 C 4.255624 0.357343 1.518514 0
M  V30 10 C 5.397807 0.806979 2.159469 0
M  V30 11 C 3.118625 1.277329 1.781341 0
M  V30 12 O 3.421785 2.423987 2.214116 0
M  V30 13 C 1.680635 0.982823 1.586920 0
M  V30 14 C 0.886751 2.081236 1.937720 0
M  V30 15 C -0.488220 2.006594 1.827001 0
M  V30 16 C -1.086318 0.848798 1.369934 0
M  V30 17 N -2.491917 0.758372 1.250259 0
M  V30 18 C -3.262890 -0.358022 0.827708 0
M  V30 19 C -4.113578 -0.381784 -0.274056 0
M  V30 20 C -4.815786 -1.523212 -0.591446 0
M  V30 21 C -5.679164 -1.445635 -1.764240 0
M  V30 22 O -5.740425 -0.366201 -2.405351 0
M  V30 23 N -6.462503 -2.532908 -2.227088 0
M  V30 24 C -7.339885 -2.577027 -3.355288 0
M  V30 25 C -6.773364 -3.602815 -4.341891 0
M  V30 26 C -8.745046 -3.010424 -2.983625 0
M  V30 27 C -4.695612 -2.663309 0.167936 0
M  V30 28 C -3.855642 -2.669207 1.271367 0
M  V30 29 C -3.141351 -1.514594 1.597604 0
M  V30 30 F -2.368005 -1.672123 2.696311 0
M  V30 31 C -0.276716 -0.230976 1.026801 0
M  V30 32 C 1.122695 -0.211106 1.119142 0
M  V30 33 C 1.749783 -1.461360 0.702992 0
M  V30 34 C 3.061353 -1.357462 0.028046 0
M  V30 35 H 9.553683 2.353305 4.637094 0
M  V30 36 H 9.666544 0.614685 4.375253 0
M  V30 37 H 10.036743 1.805662 3.011034 0
M  V30 38 H 7.166136 2.174066 3.598555 0
M  V30 39 H 7.443057 -1.734070 1.102424 0
M  V30 40 H 5.345685 -2.425530 0.013250 0
M  V30 41 H 5.381438 1.694092 2.739195 0
M  V30 42 H 1.382848 2.968004 2.290063 0
M  V30 43 H -1.093944 2.857018 2.099043 0
M  V30 44 H -3.080706 1.579402 1.487598 0
M  V30 45 H -4.178409 0.538206 -0.844825 0
M  V30 46 H -6.442212 -3.447439 -1.725858 0
M  V30 47 H -7.402716 -1.619244 -3.931299 0
M  V30 48 H -5.996160 -4.238379 -3.855756 0
M  V30 49 H -6.250052 -3.097194 -5.192575 0
M  V30 50 H -7.600695 -4.233458 -4.728929 0
M  V30 51 H -8.885733 -3.183542 -1.909339 0
M  V30 52 H -9.034566 -3.935870 -3.520634 0
M  V30 53 H -9.490568 -2.226032 -3.290233 0
M  V30 54 H -5.247687 -3.557165 -0.083231 0
M  V30 55 H -3.800761 -3.591812 1.830215 0
M  V30 56 H -0.673718 -1.162580 0.663413 0
M  V30 57 H 1.070283 -2.037162 0.037212 0
M  V30 58 H 1.878923 -2.094496 1.618027 0
M  V30 59 H 3.328010 -2.374238 -0.336691 0
M  V30 60 H 2.905499 -0.758424 -0.917761 0
M  V30 END ATOM
M  V30 BEGIN BOND
M  V30 1 1 1 2
M  V30 2 1 2 3
M  V30 3 2 3 4
M  V30 4 1 3 5
M  V30 5 2 5 6
M  V30 6 1 6 7
M  V30 7 2 7 8
M  V30 8 1 8 9
M  V30 9 2 9 10
M  V30 10 1 9 11
M  V30 11 2 11 12
M  V30 12 1 11 13
M  V30 13 2 13 14
M  V30 14 1 14 15
M  V30 15 2 15 16
M  V30 16 1 16 17
M  V30 17 1 17 18
M  V30 18 2 18 19
M  V30 19 1 19 20
M  V30 20 1 20 21
M  V30 21 2 21 22
M  V30 22 1 21 23
M  V30 23 1 23 24
M  V30 24 1 24 25
M  V30 25 1 24 26
M  V30 26 2 20 27
M  V30 27 1 27 28
M  V30 28 2 28 29
M  V30 29 1 29 30
M  V30 30 1 16 31
M  V30 31 2 31 32
M  V30 32 1 32 33
M  V30 33 1 33 34
M  V30 34 1 10 5
M  V30 35 1 32 13
M  V30 36 1 34 8
M  V30 37 1 29 18
M  V30 38 1 1 35
M  V30 39 1 1 36
M  V30 40 1 1 37
M  V30 41 1 2 38
M  V30 42 1 6 39
M  V30 43 1 7 40
M  V30 44 1 10 41
M  V30 45 1 14 42
M  V30 46 1 15 43
M  V30 47 1 17 44
M  V30 48 1 19 45
M  V30 49 1 23 46
M  V30 50 1 24 47
M  V30 51 1 25 48
M  V30 52 1 25 49
M  V30 53 1 25 50
M  V30 54 1 26 51
M  V30 55 1 26 52
M  V30 56 1 26 53
M  V30 57 1 27 54
M  V30 58 1 28 55
M  V30 59 1 31 56
M  V30 60 1 33 57
M  V30 61 1 33 58
M  V30 62 1 34 59
M  V30 63 1 34 60
M  V30 END BOND
M  V30 END CTAB
M  END
>  <Dataset>  (987) 
ChEMBL_Kinases

>  <Ligand_Instance>  (987) 
nan

>  <PDB_ID>  (987) 
nan

>  <Standardized_SMILES>  (987) 
CNC(=O)c1ccc2c(c1)C(=O)c1ccc(Nc3cc(C(=O)NC(C)C)ccc3F)cc1CC2

>  <Name>  (987) 
nan

>  <Pocket>  (987) 
nan

>  <ATP_Site>  (987) 
nan

>  <Peripheral>  (987) 
nan

>  <Num_H_Atoms_ProtBoundConf>  (987) 
nan

>  <Num_Resolved_Atoms>  (987) 
nan

>  <Num_Not_Resolved_Atoms>  (987) 
nan

$$$$
CHEMBL4080944
     RDKit          3D

  0  0  0  0  0  0  0  0  0  0999 V3000
M  V30 BEGIN CTAB
M  V30 COUNTS 42 45 0 0 0
M  V30 BEGIN ATOM
M  V30 1 O 3.057052 -2.036015 3.383390 0
M  V30 2 C 3.518986 -2.248326 2.232746 0
M  V30 3 N 4.751865 -2.920067 2.004613 0
M  V30 4 C 4.918732 -3.659495 0.767677 0
M  V30 5 C 4.580371 -2.736947 -0.390871 0
M  V30 6 C 3.311004 -2.045635 -0.146474 0
M  V30 7 N 2.463303 -1.543291 -1.083511 0
M  V30 8 C 1.413437 -0.986249 -0.483396 0
M  V30 9 C 0.246644 -0.321400 -1.053989 0
M  V30 10 C 0.196034 -0.241906 -2.444108 0
M  V30 11 C -0.881542 0.375027 -3.047519 0
M  V30 12 N -1.836987 0.872704 -2.252682 0
M  V30 13 C -1.819669 0.813385 -0.911258 0
M  V30 14 N -2.842154 1.346533 -0.076148 0
M  V30 15 C -2.791071 1.264529 1.371353 0
M  V30 16 C -1.580808 1.951409 1.948119 0
M  V30 17 C -1.168641 1.403603 3.279322 0
M  V30 18 O -1.167960 0.019916 3.338688 0
M  V30 19 C -2.500316 -0.398221 3.219182 0
M  V30 20 C -2.878623 -0.183587 1.758741 0
M  V30 21 N -0.761349 0.209032 -0.360549 0
M  V30 22 C 1.544352 -1.109792 0.904288 0
M  V30 23 C 2.743520 -1.777895 1.080003 0
M  V30 24 H 5.480716 -2.841106 2.755138 0
M  V30 25 H 4.177612 -4.488236 0.784184 0
M  V30 26 H 5.953874 -4.045217 0.670858 0
M  V30 27 H 4.556555 -3.324769 -1.332704 0
M  V30 28 H 5.458708 -2.044299 -0.508248 0
M  V30 29 H 2.556623 -1.555803 -2.137607 0
M  V30 30 H 0.968673 -0.643862 -3.100191 0
M  V30 31 H -0.971994 0.464809 -4.122470 0
M  V30 32 H -3.636110 1.803207 -0.575965 0
M  V30 33 H -3.693537 1.758730 1.769298 0
M  V30 34 H -1.863696 3.029211 2.117900 0
M  V30 35 H -0.733473 1.978614 1.232603 0
M  V30 36 H -0.127858 1.741641 3.478444 0
M  V30 37 H -1.777486 1.836452 4.121205 0
M  V30 38 H -2.570933 -1.475878 3.422398 0
M  V30 39 H -3.187006 0.138071 3.901997 0
M  V30 40 H -2.251487 -0.859581 1.156825 0
M  V30 41 H -3.941755 -0.497405 1.594737 0
M  V30 42 H 0.951283 -0.814435 1.765695 0
M  V30 END ATOM
M  V30 BEGIN BOND
M  V30 1 2 1 2
M  V30 2 1 2 3
M  V30 3 1 3 4
M  V30 4 1 4 5
M  V30 5 1 5 6
M  V30 6 1 6 7
M  V30 7 1 7 8
M  V30 8 1 8 9
M  V30 9 2 9 10
M  V30 10 1 10 11
M  V30 11 2 11 12
M  V30 12 1 12 13
M  V30 13 1 13 14
M  V30 14 1 14 15
M  V30 15 1 15 16
M  V30 16 1 16 17
M  V30 17 1 17 18
M  V30 18 1 18 19
M  V30 19 1 19 20
M  V30 20 2 13 21
M  V30 21 2 8 22
M  V30 22 1 22 23
M  V30 23 1 23 2
M  V30 24 2 23 6
M  V30 25 1 21 9
M  V30 26 1 20 15
M  V30 27 1 3 24
M  V30 28 1 4 25
M  V30 29 1 4 26
M  V30 30 1 5 27
M  V30 31 1 5 28
M  V30 32 1 7 29
M  V30 33 1 10 30
M  V30 34 1 11 31
M  V30 35 1 14 32
M  V30 36 1 15 33
M  V30 37 1 16 34
M  V30 38 1 16 35
M  V30 39 1 17 36
M  V30 40 1 17 37
M  V30 41 1 19 38
M  V30 42 1 19 39
M  V30 43 1 20 40
M  V30 44 1 20 41
M  V30 45 1 22 42
M  V30 END BOND
M  V30 END CTAB
M  END
>  <Dataset>  (988) 
ChEMBL_Kinases

>  <Ligand_Instance>  (988) 
nan

>  <PDB_ID>  (988) 
nan

>  <Standardized_SMILES>  (988) 
O=C1NCCc2[nH]c(-c3ccnc(NC4CCOCC4)n3)cc21

>  <Name>  (988) 
nan

>  <Pocket>  (988) 
nan

>  <ATP_Site>  (988) 
nan

>  <Peripheral>  (988) 
nan

>  <Num_H_Atoms_ProtBoundConf>  (988) 
nan

>  <Num_Resolved_Atoms>  (988) 
nan

>  <Num_Not_Resolved_Atoms>  (988) 
nan

$$$$
CHEMBL4854225
     RDKit          3D

  0  0  0  0  0  0  0  0  0  0999 V3000
M  V30 BEGIN CTAB
M  V30 COUNTS 53 58 0 0 0
M  V30 BEGIN ATOM
M  V30 1 C 4.580852 2.265871 4.326256 0
M  V30 2 O 3.574865 2.426715 3.346037 0
M  V30 3 C 3.259665 1.354571 2.480283 0
M  V30 4 N 3.934403 0.200926 2.617327 0
M  V30 5 C 3.618785 -0.802969 1.785336 0
M  V30 6 C 2.629196 -0.523852 0.881712 0
M  V30 7 C 1.898899 0.617307 0.679653 0
M  V30 8 C 2.265756 1.611027 1.560413 0
M  V30 9 N 1.583931 2.841696 1.448705 0
M  V30 10 S 0.059531 3.104701 0.747003 0
M  V30 11 O 0.105640 2.811042 -0.745750 0
M  V30 12 O -0.202703 4.607524 0.794093 0
M  V30 13 C -1.250835 2.266956 1.513146 0
M  V30 14 C -1.545899 2.587011 2.822259 0
M  V30 15 C -2.570398 1.999174 3.552347 0
M  V30 16 C -3.365611 1.020662 2.946732 0
M  V30 17 Cl -4.657132 0.281094 3.861431 0
M  V30 18 C -3.043143 0.725450 1.639685 0
M  V30 19 C -2.029015 1.305810 0.913054 0
M  V30 20 C -3.922157 -0.303204 1.123178 0
M  V30 21 O -5.121932 -0.508647 1.421386 0
M  V30 22 N -3.974349 -1.394905 0.231829 0
M  V30 23 C -4.566685 -2.503215 -0.459674 0
M  V30 24 C -3.694638 -3.179999 -1.376245 0
M  V30 25 C -3.570933 -3.877908 -2.617311 0
M  V30 26 C -2.344506 -4.322500 -3.004288 0
M  V30 27 C -1.343988 -4.053103 -2.156707 0
M  V30 28 S -2.072764 -3.119289 -0.691898 0
M  V30 29 C 0.124378 -4.295702 -2.104756 0
M  V30 30 N 0.656110 -5.336450 -2.751040 0
M  V30 31 C 2.024064 -5.520374 -2.679927 0
M  V30 32 N 2.829207 -4.693910 -1.988050 0
M  V30 33 C 2.265582 -3.653717 -1.346695 0
M  V30 34 C 3.046793 -2.786825 -0.631224 0
M  V30 35 C 2.344819 -1.753452 -0.015844 0
M  V30 36 S 0.541672 -2.093022 -0.513548 0
M  V30 37 C 0.858276 -3.369479 -1.353825 0
M  V30 38 H 4.405278 1.291475 4.862929 0
M  V30 39 H 5.599647 2.219240 3.925042 0
M  V30 40 H 4.424712 3.070491 5.068280 0
M  V30 41 H 4.118407 -1.760337 1.833444 0
M  V30 42 H 1.160225 0.624256 -0.095394 0
M  V30 43 H 2.167727 3.621288 1.876629 0
M  V30 44 H -0.952119 3.346814 3.340235 0
M  V30 45 H -2.740115 2.309866 4.589981 0
M  V30 46 H -1.915070 0.956293 -0.099510 0
M  V30 47 H -2.978777 -1.253573 -0.044147 0
M  V30 48 H -5.491820 -2.197693 -1.032401 0
M  V30 49 H -4.974974 -3.278360 0.253724 0
M  V30 50 H -4.521743 -3.966253 -3.115428 0
M  V30 51 H -2.152243 -4.853392 -3.912324 0
M  V30 52 H 2.416199 -6.372810 -3.215627 0
M  V30 53 H 4.094998 -2.706305 -0.422910 0
M  V30 END ATOM
M  V30 BEGIN BOND
M  V30 1 1 1 2
M  V30 2 1 2 3
M  V30 3 2 3 4
M  V30 4 1 4 5
M  V30 5 2 5 6
M  V30 6 1 6 7
M  V30 7 2 7 8
M  V30 8 1 8 9
M  V30 9 1 9 10
M  V30 10 2 10 11
M  V30 11 2 10 12
M  V30 12 1 10 13
M  V30 13 2 13 14
M  V30 14 1 14 15
M  V30 15 2 15 16
M  V30 16 1 16 17
M  V30 17 1 16 18
M  V30 18 2 18 19
M  V30 19 1 18 20
M  V30 20 2 20 21
M  V30 21 1 20 22
M  V30 22 1 22 23
M  V30 23 1 23 24
M  V30 24 2 24 25
M  V30 25 1 25 26
M  V30 26 2 26 27
M  V30 27 1 27 28
M  V30 28 1 27 29
M  V30 29 1 29 30
M  V30 30 2 30 31
M  V30 31 1 31 32
M  V30 32 2 32 33
M  V30 33 1 33 34
M  V30 34 2 34 35
M  V30 35 1 35 36
M  V30 36 1 36 37
M  V30 37 1 8 3
M  V30 38 1 19 13
M  V30 39 1 28 24
M  V30 40 2 37 29
M  V30 41 1 35 6
M  V30 42 1 37 33
M  V30 43 1 1 38
M  V30 44 1 1 39
M  V30 45 1 1 40
M  V30 46 1 5 41
M  V30 47 1 7 42
M  V30 48 1 9 43
M  V30 49 1 14 44
M  V30 50 1 15 45
M  V30 51 1 19 46
M  V30 52 1 22 47
M  V30 53 1 23 48
M  V30 54 1 23 49
M  V30 55 1 25 50
M  V30 56 1 26 51
M  V30 57 1 31 52
M  V30 58 1 34 53
M  V30 END BOND
M  V30 END CTAB
M  END
>  <Dataset>  (989) 
ChEMBL_Kinases

>  <Ligand_Instance>  (989) 
nan

>  <PDB_ID>  (989) 
nan

>  <Standardized_SMILES>  (989) 
COc1ncc2cc1NS(=O)(=O)c1ccc(Cl)c(c1)C(=O)NCc1ccc(s1)-c1ncnc3cc-2sc13

>  <Name>  (989) 
nan

>  <Pocket>  (989) 
nan

>  <ATP_Site>  (989) 
nan

>  <Peripheral>  (989) 
nan

>  <Num_H_Atoms_ProtBoundConf>  (989) 
nan

>  <Num_Resolved_Atoms>  (989) 
nan

>  <Num_Not_Resolved_Atoms>  (989) 
nan

$$$$
CHEMBL4080891
     RDKit          3D

  0  0  0  0  0  0  0  0  0  0999 V3000
M  V30 BEGIN CTAB
M  V30 COUNTS 47 50 0 0 0
M  V30 BEGIN ATOM
M  V30 1 C 1.183067 -2.946371 2.906759 0
M  V30 2 N -0.038553 -2.510325 2.316335 0
M  V30 3 C -0.014994 -1.751884 1.211605 0
M  V30 4 N 1.137515 -1.290099 0.543781 0
M  V30 5 C 0.959300 -0.538160 -0.693385 0
M  V30 6 C 2.045393 -0.923922 -1.697227 0
M  V30 7 N 3.227386 -0.217731 -1.244128 0
M  V30 8 C 3.247814 -0.202032 0.179622 0
M  V30 9 C 2.885418 1.060519 0.824053 0
M  V30 10 C 2.076770 1.164843 1.952226 0
M  V30 11 C 1.721013 2.337539 2.574420 0
M  V30 12 C 2.212558 3.521615 2.027328 0
M  V30 13 C 3.026925 3.451258 0.894803 0
M  V30 14 Cl 3.568902 5.009439 0.319851 0
M  V30 15 C 3.353699 2.231071 0.307815 0
M  V30 16 C 2.503593 -1.391871 0.818209 0
M  V30 17 N -1.224974 -1.410851 0.736675 0
M  V30 18 C -2.407523 -1.725121 1.216128 0
M  V30 19 C -3.609820 -1.246819 0.539576 0
M  V30 20 C -4.890884 -1.537116 0.984599 0
M  V30 21 C -6.040486 -1.094192 0.360292 0
M  V30 22 N -5.919811 -0.326907 -0.759282 0
M  V30 23 C -4.674193 -0.051329 -1.182869 0
M  V30 24 C -3.489325 -0.463853 -0.602729 0
M  V30 25 C -2.457257 -2.498950 2.344831 0
M  V30 26 C -1.236882 -2.870782 2.864127 0
M  V30 27 O -1.230716 -3.593035 3.916513 0
M  V30 28 H 0.906730 -3.823611 3.586346 0
M  V30 29 H 1.624951 -2.253522 3.654152 0
M  V30 30 H 1.908450 -3.438497 2.234933 0
M  V30 31 H 0.004587 -0.861929 -1.206300 0
M  V30 32 H 0.868125 0.534275 -0.570747 0
M  V30 33 H 2.157077 -2.007161 -1.639746 0
M  V30 34 H 1.727828 -0.547974 -2.684283 0
M  V30 35 H 3.181907 0.741258 -1.621041 0
M  V30 36 H 4.329174 -0.388721 0.470179 0
M  V30 37 H 1.687035 0.276079 2.390501 0
M  V30 38 H 1.097578 2.352510 3.438585 0
M  V30 39 H 1.934431 4.444574 2.514001 0
M  V30 40 H 3.989775 2.323400 -0.559835 0
M  V30 41 H 2.842793 -1.314910 1.866046 0
M  V30 42 H 2.971952 -2.252798 0.278690 0
M  V30 43 H -5.032824 -2.138610 1.862351 0
M  V30 44 H -7.025522 -1.364627 0.772494 0
M  V30 45 H -4.584251 0.569267 -2.089923 0
M  V30 46 H -2.533742 -0.180032 -1.032903 0
M  V30 47 H -3.379904 -2.798173 2.798168 0
M  V30 END ATOM
M  V30 BEGIN BOND
M  V30 1 1 1 2
M  V30 2 1 2 3
M  V30 3 1 3 4
M  V30 4 1 4 5
M  V30 5 1 5 6
M  V30 6 1 6 7
M  V30 7 1 7 8
M  V30 8 1 8 9
M  V30 9 2 9 10
M  V30 10 1 10 11
M  V30 11 2 11 12
M  V30 12 1 12 13
M  V30 13 1 13 14
M  V30 14 2 13 15
M  V30 15 1 8 16
M  V30 16 2 3 17
M  V30 17 1 17 18
M  V30 18 1 18 19
M  V30 19 2 19 20
M  V30 20 1 20 21
M  V30 21 2 21 22
M  V30 22 1 22 23
M  V30 23 2 23 24
M  V30 24 2 18 25
M  V30 25 1 25 26
M  V30 26 2 26 27
M  V30 27 1 26 2
M  V30 28 1 16 4
M  V30 29 1 24 19
M  V30 30 1 15 9
M  V30 31 1 1 28
M  V30 32 1 1 29
M  V30 33 1 1 30
M  V30 34 1 5 31
M  V30 35 1 5 32
M  V30 36 1 6 33
M  V30 37 1 6 34
M  V30 38 1 7 35
M  V30 39 1 8 36
M  V30 40 1 10 37
M  V30 41 1 11 38
M  V30 42 1 12 39
M  V30 43 1 15 40
M  V30 44 1 16 41
M  V30 45 1 16 42
M  V30 46 1 20 43
M  V30 47 1 21 44
M  V30 48 1 23 45
M  V30 49 1 24 46
M  V30 50 1 25 47
M  V30 END BOND
M  V30 END CTAB
M  END
>  <Dataset>  (990) 
ChEMBL_Kinases

>  <Ligand_Instance>  (990) 
nan

>  <PDB_ID>  (990) 
nan

>  <Standardized_SMILES>  (990) 
Cn1c(N2CCNC(c3cccc(Cl)c3)C2)nc(-c2ccncc2)cc1=O

>  <Name>  (990) 
nan

>  <Pocket>  (990) 
nan

>  <ATP_Site>  (990) 
nan

>  <Peripheral>  (990) 
nan

>  <Num_H_Atoms_ProtBoundConf>  (990) 
nan

>  <Num_Resolved_Atoms>  (990) 
nan

>  <Num_Not_Resolved_Atoms>  (990) 
nan

$$$$
CHEMBL4854291
     RDKit          3D

  0  0  0  0  0  0  0  0  0  0999 V3000
M  V30 BEGIN CTAB
M  V30 COUNTS 41 44 0 0 0
M  V30 BEGIN ATOM
M  V30 1 N 2.577754 -5.489998 2.600775 0
M  V30 2 C 2.611450 -4.692945 1.760733 0
M  V30 3 C 2.670312 -3.715854 0.711156 0
M  V30 4 C 2.049232 -3.829166 -0.494282 0
M  V30 5 C 2.094894 -2.905684 -1.507816 0
M  V30 6 C 2.845425 -1.745994 -1.282882 0
M  V30 7 N 2.942615 -0.727762 -2.299170 0
M  V30 8 S 2.756121 0.920908 -1.839726 0
M  V30 9 O 3.750173 1.371242 -0.830289 0
M  V30 10 O 2.837748 1.765556 -3.079596 0
M  V30 11 C 1.140477 1.163704 -1.163453 0
M  V30 12 C 0.107890 1.510782 -1.983735 0
M  V30 13 C -1.193698 1.728227 -1.581605 0
M  V30 14 C -1.420448 1.569626 -0.229281 0
M  V30 15 C -0.420642 1.218628 0.662445 0
M  V30 16 C -0.643006 1.046410 2.097302 0
M  V30 17 N 0.087755 1.488742 3.157007 0
M  V30 18 N -0.458971 1.116495 4.292578 0
M  V30 19 C -1.587301 0.403838 4.041518 0
M  V30 20 C -2.490099 -0.189452 4.917680 0
M  V30 21 C -3.569637 -0.864172 4.344807 0
M  V30 22 F -4.510299 -1.479516 5.125392 0
M  V30 23 C -3.741578 -0.944073 2.967049 0
M  V30 24 C -2.786342 -0.319557 2.191056 0
M  V30 25 C -1.700895 0.361003 2.666756 0
M  V30 26 C 0.878156 1.012989 0.187183 0
M  V30 27 C 3.497085 -1.598476 -0.052566 0
M  V30 28 C 3.411508 -2.568430 0.930695 0
M  V30 29 H 1.468674 -4.743783 -0.647125 0
M  V30 30 H 1.576600 -3.055609 -2.447085 0
M  V30 31 H 3.127026 -1.167238 -3.246214 0
M  V30 32 H 0.333177 1.624557 -3.041456 0
M  V30 33 H -1.991516 2.004867 -2.270696 0
M  V30 34 H -2.421662 1.727180 0.143372 0
M  V30 35 H -0.093167 1.328763 5.250253 0
M  V30 36 H -2.373763 -0.138431 5.991892 0
M  V30 37 H -4.576012 -1.465808 2.533836 0
M  V30 38 H -2.947171 -0.399106 1.127109 0
M  V30 39 H 1.708192 0.738556 0.816778 0
M  V30 40 H 4.081318 -0.722518 0.154770 0
M  V30 41 H 3.925461 -2.434552 1.879912 0
M  V30 END ATOM
M  V30 BEGIN BOND
M  V30 1 3 1 2
M  V30 2 1 2 3
M  V30 3 2 3 4
M  V30 4 1 4 5
M  V30 5 2 5 6
M  V30 6 1 6 7
M  V30 7 1 7 8
M  V30 8 2 8 9
M  V30 9 2 8 10
M  V30 10 1 8 11
M  V30 11 2 11 12
M  V30 12 1 12 13
M  V30 13 2 13 14
M  V30 14 1 14 15
M  V30 15 1 15 16
M  V30 16 2 16 17
M  V30 17 1 17 18
M  V30 18 1 18 19
M  V30 19 2 19 20
M  V30 20 1 20 21
M  V30 21 1 21 22
M  V30 22 2 21 23
M  V30 23 1 23 24
M  V30 24 2 24 25
M  V30 25 2 15 26
M  V30 26 1 6 27
M  V30 27 2 27 28
M  V30 28 1 28 3
M  V30 29 1 26 11
M  V30 30 1 25 16
M  V30 31 1 25 19
M  V30 32 1 4 29
M  V30 33 1 5 30
M  V30 34 1 7 31
M  V30 35 1 12 32
M  V30 36 1 13 33
M  V30 37 1 14 34
M  V30 38 1 18 35
M  V30 39 1 20 36
M  V30 40 1 23 37
M  V30 41 1 24 38
M  V30 42 1 26 39
M  V30 43 1 27 40
M  V30 44 1 28 41
M  V30 END BOND
M  V30 END CTAB
M  END
>  <Dataset>  (991) 
ChEMBL_Kinases

>  <Ligand_Instance>  (991) 
nan

>  <PDB_ID>  (991) 
nan

>  <Standardized_SMILES>  (991) 
N#Cc1ccc(NS(=O)(=O)c2cccc(-c3n[nH]c4cc(F)ccc34)c2)cc1

>  <Name>  (991) 
nan

>  <Pocket>  (991) 
nan

>  <ATP_Site>  (991) 
nan

>  <Peripheral>  (991) 
nan

>  <Num_H_Atoms_ProtBoundConf>  (991) 
nan

>  <Num_Resolved_Atoms>  (991) 
nan

>  <Num_Not_Resolved_Atoms>  (991) 
nan

$$$$
CHEMBL4854313
     RDKit          3D

  0  0  0  0  0  0  0  0  0  0999 V3000
M  V30 BEGIN CTAB
M  V30 COUNTS 34 36 0 0 0
M  V30 BEGIN ATOM
M  V30 1 C -2.863603 -1.469199 5.913148 0
M  V30 2 O -2.083667 -1.650952 4.869443 0
M  V30 3 C -1.327165 -1.828865 3.858713 0
M  V30 4 C -1.379076 -0.796782 2.916239 0
M  V30 5 C -0.642428 -0.759202 1.722028 0
M  V30 6 C 0.158840 -1.896307 1.593052 0
M  V30 7 C 1.034875 -2.239003 0.551502 0
M  V30 8 C 1.272608 -1.426372 -0.634761 0
M  V30 9 C 2.162416 -1.862745 -1.589747 0
M  V30 10 C 2.401837 -1.096461 -2.740451 0
M  V30 11 N 1.758621 0.078261 -2.920770 0
M  V30 12 C 0.882462 0.504339 -1.977163 0
M  V30 13 N 0.172150 1.744552 -2.137467 0
M  V30 14 C 1.053911 2.799625 -1.673314 0
M  V30 15 C -1.160955 2.102304 -2.639013 0
M  V30 16 N 0.686085 -0.253887 -0.899885 0
M  V30 17 C 1.581445 -3.452836 0.893802 0
M  V30 18 N 1.065049 -3.827033 2.079043 0
M  V30 19 N 0.205722 -2.884330 2.498766 0
M  V30 20 N -0.504761 -2.889403 3.619621 0
M  V30 21 H -2.312466 -1.739056 6.877945 0
M  V30 22 H -3.800461 -2.084318 5.869513 0
M  V30 23 H -3.208479 -0.388849 6.075207 0
M  V30 24 H -2.004743 0.087537 3.017433 0
M  V30 25 H -0.694885 0.043142 1.010680 0
M  V30 26 H 2.700356 -2.798920 -1.488474 0
M  V30 27 H 3.083831 -1.365427 -3.537881 0
M  V30 28 H 1.936550 2.855946 -2.371415 0
M  V30 29 H 0.537944 3.775295 -1.717107 0
M  V30 30 H 1.441319 2.617779 -0.659093 0
M  V30 31 H -1.715544 1.182671 -2.916279 0
M  V30 32 H -1.067982 2.770187 -3.508675 0
M  V30 33 H -1.676718 2.625529 -1.813913 0
M  V30 34 H 2.305309 -4.020704 0.317517 0
M  V30 END ATOM
M  V30 BEGIN BOND
M  V30 1 1 1 2
M  V30 2 1 2 3
M  V30 3 1 3 4
M  V30 4 2 4 5
M  V30 5 1 5 6
M  V30 6 2 6 7
M  V30 7 1 7 8
M  V30 8 2 8 9
M  V30 9 1 9 10
M  V30 10 2 10 11
M  V30 11 1 11 12
M  V30 12 1 12 13
M  V30 13 1 13 14
M  V30 14 1 13 15
M  V30 15 2 12 16
M  V30 16 1 7 17
M  V30 17 2 17 18
M  V30 18 1 18 19
M  V30 19 1 19 20
M  V30 20 2 20 3
M  V30 21 1 19 6
M  V30 22 1 16 8
M  V30 23 1 1 21
M  V30 24 1 1 22
M  V30 25 1 1 23
M  V30 26 1 4 24
M  V30 27 1 5 25
M  V30 28 1 9 26
M  V30 29 1 10 27
M  V30 30 1 14 28
M  V30 31 1 14 29
M  V30 32 1 14 30
M  V30 33 1 15 31
M  V30 34 1 15 32
M  V30 35 1 15 33
M  V30 36 1 17 34
M  V30 END BOND
M  V30 END CTAB
M  END
>  <Dataset>  (992) 
ChEMBL_Kinases

>  <Ligand_Instance>  (992) 
nan

>  <PDB_ID>  (992) 
nan

>  <Standardized_SMILES>  (992) 
COc1ccc2c(-c3ccnc(N(C)C)n3)cnn2n1

>  <Name>  (992) 
nan

>  <Pocket>  (992) 
nan

>  <ATP_Site>  (992) 
nan

>  <Peripheral>  (992) 
nan

>  <Num_H_Atoms_ProtBoundConf>  (992) 
nan

>  <Num_Resolved_Atoms>  (992) 
nan

>  <Num_Not_Resolved_Atoms>  (992) 
nan

$$$$
CHEMBL4080743
     RDKit          3D

  0  0  0  0  0  0  0  0  0  0999 V3000
M  V30 BEGIN CTAB
M  V30 COUNTS 27 29 0 0 0
M  V30 BEGIN ATOM
M  V30 1 N -1.136696 -2.166204 3.543914 0
M  V30 2 C -0.138289 -1.972612 2.993223 0
M  V30 3 C 1.108930 -1.737146 2.333519 0
M  V30 4 C 2.315305 -2.170652 2.854563 0
M  V30 5 N 3.308258 -1.784822 2.021633 0
M  V30 6 C 2.787944 -1.116184 0.978426 0
M  V30 7 N 3.321667 -0.515880 -0.110897 0
M  V30 8 C 2.471916 0.100839 -0.983134 0
M  V30 9 N 3.071055 0.720689 -2.114654 0
M  V30 10 N 1.142716 0.118587 -0.779397 0
M  V30 11 C 0.556137 -0.473994 0.304511 0
M  V30 12 C -0.889254 -0.350868 0.365328 0
M  V30 13 C -1.314616 0.978424 0.229327 0
M  V30 14 C -2.644857 1.355482 0.228370 0
M  V30 15 C -3.614883 0.389846 0.366902 0
M  V30 16 F -4.935259 0.606236 0.384037 0
M  V30 17 C -3.219088 -0.917111 0.500858 0
M  V30 18 C -1.888246 -1.268857 0.498601 0
M  V30 19 C 1.434309 -1.086819 1.168387 0
M  V30 20 H 2.474253 -2.725642 3.769120 0
M  V30 21 H 4.328301 -1.980918 2.172662 0
M  V30 22 H 2.990258 -0.008521 -2.882885 0
M  V30 23 H 3.384392 1.679923 -1.800646 0
M  V30 24 H -0.643282 1.829552 0.112913 0
M  V30 25 H -2.976111 2.375222 0.124217 0
M  V30 26 H -3.897801 -1.748809 0.615228 0
M  V30 27 H -1.551402 -2.274126 0.584111 0
M  V30 END ATOM
M  V30 BEGIN BOND
M  V30 1 3 1 2
M  V30 2 1 2 3
M  V30 3 2 3 4
M  V30 4 1 4 5
M  V30 5 1 5 6
M  V30 6 2 6 7
M  V30 7 1 7 8
M  V30 8 1 8 9
M  V30 9 2 8 10
M  V30 10 1 10 11
M  V30 11 1 11 12
M  V30 12 2 12 13
M  V30 13 1 13 14
M  V30 14 2 14 15
M  V30 15 1 15 16
M  V30 16 1 15 17
M  V30 17 2 17 18
M  V30 18 2 11 19
M  V30 19 1 19 3
M  V30 20 1 19 6
M  V30 21 1 18 12
M  V30 22 1 4 20
M  V30 23 1 5 21
M  V30 24 1 9 22
M  V30 25 1 9 23
M  V30 26 1 13 24
M  V30 27 1 14 25
M  V30 28 1 17 26
M  V30 29 1 18 27
M  V30 END BOND
M  V30 END CTAB
M  END
>  <Dataset>  (993) 
ChEMBL_Kinases

>  <Ligand_Instance>  (993) 
nan

>  <PDB_ID>  (993) 
nan

>  <Standardized_SMILES>  (993) 
N#Cc1c[nH]c2nc(N)nc(-c3ccc(F)cc3)c12

>  <Name>  (993) 
nan

>  <Pocket>  (993) 
nan

>  <ATP_Site>  (993) 
nan

>  <Peripheral>  (993) 
nan

>  <Num_H_Atoms_ProtBoundConf>  (993) 
nan

>  <Num_Resolved_Atoms>  (993) 
nan

>  <Num_Not_Resolved_Atoms>  (993) 
nan

$$$$
CHEMBL4854326
     RDKit          3D

  0  0  0  0  0  0  0  0  0  0999 V3000
M  V30 BEGIN CTAB
M  V30 COUNTS 58 60 0 0 0
M  V30 BEGIN ATOM
M  V30 1 C -0.664142 -1.348760 3.796746 0
M  V30 2 C 0.159161 -2.257970 2.908448 0
M  V30 3 C 1.144523 -2.953092 3.861288 0
M  V30 4 C 0.973034 -1.453917 1.929469 0
M  V30 5 C 1.317852 -2.353697 0.763035 0
M  V30 6 N 2.335966 -1.823130 -0.080305 0
M  V30 7 C 2.456735 -0.660591 -0.869277 0
M  V30 8 C 1.542640 0.344920 -1.071722 0
M  V30 9 C 1.734750 1.483507 -1.855136 0
M  V30 10 N 0.707759 2.432696 -2.000558 0
M  V30 11 C -0.554563 3.027337 -1.958015 0
M  V30 12 C -1.349137 2.747492 -0.705159 0
M  V30 13 C -1.177937 3.586036 0.373272 0
M  V30 14 N -1.804859 3.354606 1.536716 0
M  V30 15 C -2.625189 2.273167 1.657628 0
M  V30 16 C -2.772803 1.457151 0.557603 0
M  V30 17 C -2.152689 1.639716 -0.680700 0
M  V30 18 C -2.447144 0.728051 -1.809465 0
M  V30 19 F -3.306748 -0.262479 -1.360513 0
M  V30 20 F -3.136350 1.418437 -2.807993 0
M  V30 21 F -1.336389 0.154546 -2.339538 0
M  V30 22 N 2.918227 1.569929 -2.441906 0
M  V30 23 C 3.892747 0.669603 -2.331612 0
M  V30 24 C 3.618795 -0.413540 -1.545767 0
M  V30 25 C 4.699727 -1.353753 -1.458237 0
M  V30 26 N 5.585273 -2.117786 -1.372805 0
M  V30 27 C 0.062247 -2.775039 0.036017 0
M  V30 28 C -1.003540 -3.240649 0.995417 0
M  V30 29 C -2.329403 -2.539568 0.713086 0
M  V30 30 C -1.295948 -4.704809 0.608745 0
M  V30 31 N -0.637298 -3.282741 2.358026 0
M  V30 32 H -1.523618 -1.935145 4.176928 0
M  V30 33 H -0.036190 -1.018260 4.676451 0
M  V30 34 H -1.021740 -0.452236 3.269830 0
M  V30 35 H 1.548892 -2.250134 4.605560 0
M  V30 36 H 0.577938 -3.761480 4.364170 0
M  V30 37 H 1.979900 -3.440020 3.292113 0
M  V30 38 H 0.509777 -0.500094 1.662307 0
M  V30 39 H 1.937851 -1.204854 2.416457 0
M  V30 40 H 1.685974 -3.306238 1.261096 0
M  V30 41 H 3.179167 -2.470297 -0.102026 0
M  V30 42 H 0.596289 0.233271 -0.565218 0
M  V30 43 H 1.196939 3.269492 -2.448723 0
M  V30 44 H -0.541262 4.135937 -2.022180 0
M  V30 45 H -1.198003 2.649562 -2.795828 0
M  V30 46 H -0.530051 4.429194 0.261004 0
M  V30 47 H -3.106527 2.122011 2.597027 0
M  V30 48 H -3.438838 0.632409 0.747825 0
M  V30 49 H 4.821037 0.831341 -2.851072 0
M  V30 50 H 0.380785 -3.581093 -0.685017 0
M  V30 51 H -0.338333 -1.958291 -0.574599 0
M  V30 52 H -3.163019 -3.140515 1.119207 0
M  V30 53 H -2.359511 -1.496374 1.010229 0
M  V30 54 H -2.436084 -2.603178 -0.406363 0
M  V30 55 H -1.582767 -4.692083 -0.464702 0
M  V30 56 H -0.364119 -5.276496 0.764597 0
M  V30 57 H -2.113483 -5.076245 1.252336 0
M  V30 58 H -1.471690 -3.523707 2.919065 0
M  V30 END ATOM
M  V30 BEGIN BOND
M  V30 1 1 1 2
M  V30 2 1 2 3
M  V30 3 1 2 4
M  V30 4 1 4 5
M  V30 5 1 5 6
M  V30 6 1 6 7
M  V30 7 2 7 8
M  V30 8 1 8 9
M  V30 9 1 9 10
M  V30 10 1 10 11
M  V30 11 1 11 12
M  V30 12 2 12 13
M  V30 13 1 13 14
M  V30 14 2 14 15
M  V30 15 1 15 16
M  V30 16 2 16 17
M  V30 17 1 17 18
M  V30 18 1 18 19
M  V30 19 1 18 20
M  V30 20 1 18 21
M  V30 21 2 9 22
M  V30 22 1 22 23
M  V30 23 2 23 24
M  V30 24 1 24 25
M  V30 25 3 25 26
M  V30 26 1 5 27
M  V30 27 1 27 28
M  V30 28 1 28 29
M  V30 29 1 28 30
M  V30 30 1 28 31
M  V30 31 1 31 2
M  V30 32 1 24 7
M  V30 33 1 17 12
M  V30 34 1 1 32
M  V30 35 1 1 33
M  V30 36 1 1 34
M  V30 37 1 3 35
M  V30 38 1 3 36
M  V30 39 1 3 37
M  V30 40 1 4 38
M  V30 41 1 4 39
M  V30 42 1 5 40
M  V30 43 1 6 41
M  V30 44 1 8 42
M  V30 45 1 10 43
M  V30 46 1 11 44
M  V30 47 1 11 45
M  V30 48 1 13 46
M  V30 49 1 15 47
M  V30 50 1 16 48
M  V30 51 1 23 49
M  V30 52 1 27 50
M  V30 53 1 27 51
M  V30 54 1 29 52
M  V30 55 1 29 53
M  V30 56 1 29 54
M  V30 57 1 30 55
M  V30 58 1 30 56
M  V30 59 1 30 57
M  V30 60 1 31 58
M  V30 END BOND
M  V30 END CTAB
M  END
>  <Dataset>  (994) 
ChEMBL_Kinases

>  <Ligand_Instance>  (994) 
nan

>  <PDB_ID>  (994) 
nan

>  <Standardized_SMILES>  (994) 
CC1(C)CC(Nc2cc(NCc3cnccc3C(F)(F)F)ncc2C#N)CC(C)(C)N1

>  <Name>  (994) 
nan

>  <Pocket>  (994) 
nan

>  <ATP_Site>  (994) 
nan

>  <Peripheral>  (994) 
nan

>  <Num_H_Atoms_ProtBoundConf>  (994) 
nan

>  <Num_Resolved_Atoms>  (994) 
nan

>  <Num_Not_Resolved_Atoms>  (994) 
nan

$$$$
CHEMBL4080669
     RDKit          3D

  0  0  0  0  0  0  0  0  0  0999 V3000
M  V30 BEGIN CTAB
M  V30 COUNTS 35 36 0 0 0
M  V30 BEGIN ATOM
M  V30 1 N 4.478143 -2.287266 -0.795748 0
M  V30 2 C 3.345885 -2.349633 -1.409694 0
M  V30 3 N 3.158608 -3.422714 -2.355317 0
M  V30 4 N 2.319005 -1.388553 -1.158148 0
M  V30 5 C 2.733160 -0.090640 -0.656452 0
M  V30 6 C 1.510971 0.815231 -0.441904 0
M  V30 7 N 0.886574 0.947082 -1.697117 0
M  V30 8 S -0.507033 1.903004 -1.771201 0
M  V30 9 O -0.930960 2.196433 -3.183118 0
M  V30 10 O -0.073625 3.268916 -1.242408 0
M  V30 11 C -1.821723 1.351820 -0.809646 0
M  V30 12 C -2.406145 2.078848 0.209959 0
M  V30 13 C -3.450310 1.692342 1.004942 0
M  V30 14 C -3.942845 0.431728 0.723078 0
M  V30 15 C -3.417764 -0.341951 -0.266381 0
M  V30 16 C -3.884226 -1.618395 -0.583565 0
M  V30 17 N -3.343382 -2.365535 -1.572379 0
M  V30 18 C -2.313627 -1.940980 -2.329964 0
M  V30 19 C -1.810397 -0.674857 -2.055347 0
M  V30 20 C -2.353255 0.090727 -1.053313 0
M  V30 21 H 5.194707 -3.012290 -1.014398 0
M  V30 22 H 2.779016 -4.415981 -2.345535 0
M  V30 23 H 3.416833 -3.364320 -3.368227 0
M  V30 24 H 1.348982 -1.741983 -1.371895 0
M  V30 25 H 3.225422 -0.181503 0.335641 0
M  V30 26 H 3.392306 0.351043 -1.431762 0
M  V30 27 H 1.951843 1.802480 -0.160344 0
M  V30 28 H 0.899625 0.487350 0.387719 0
M  V30 29 H 1.516527 0.958377 -2.499370 0
M  V30 30 H -1.976585 3.075322 0.393026 0
M  V30 31 H -3.851303 2.315938 1.780572 0
M  V30 32 H -4.777154 0.021952 1.296772 0
M  V30 33 H -4.724659 -1.998124 0.014470 0
M  V30 34 H -1.943586 -2.599914 -3.096488 0
M  V30 35 H -0.986684 -0.371928 -2.683708 0
M  V30 END ATOM
M  V30 BEGIN BOND
M  V30 1 2 1 2 CFG=2
M  V30 2 1 2 3
M  V30 3 1 2 4
M  V30 4 1 4 5
M  V30 5 1 5 6
M  V30 6 1 6 7
M  V30 7 1 7 8
M  V30 8 2 8 9
M  V30 9 2 8 10
M  V30 10 1 8 11
M  V30 11 2 11 12
M  V30 12 1 12 13
M  V30 13 2 13 14
M  V30 14 1 14 15
M  V30 15 2 15 16
M  V30 16 1 16 17
M  V30 17 2 17 18
M  V30 18 1 18 19
M  V30 19 2 19 20
M  V30 20 1 20 11
M  V30 21 1 20 15
M  V30 22 1 1 21
M  V30 23 1 3 22
M  V30 24 1 3 23
M  V30 25 1 4 24
M  V30 26 1 5 25
M  V30 27 1 5 26
M  V30 28 1 6 27
M  V30 29 1 6 28
M  V30 30 1 7 29
M  V30 31 1 12 30
M  V30 32 1 13 31
M  V30 33 1 14 32
M  V30 34 1 16 33
M  V30 35 1 18 34
M  V30 36 1 19 35
M  V30 END BOND
M  V30 END CTAB
M  END
>  <Dataset>  (995) 
ChEMBL_Kinases

>  <Ligand_Instance>  (995) 
nan

>  <PDB_ID>  (995) 
nan

>  <Standardized_SMILES>  (995) 
N=C(N)NCCNS(=O)(=O)c1cccc2cnccc12

>  <Name>  (995) 
nan

>  <Pocket>  (995) 
nan

>  <ATP_Site>  (995) 
nan

>  <Peripheral>  (995) 
nan

>  <Num_H_Atoms_ProtBoundConf>  (995) 
nan

>  <Num_Resolved_Atoms>  (995) 
nan

>  <Num_Not_Resolved_Atoms>  (995) 
nan

$$$$
CHEMBL4080651
     RDKit          3D

  0  0  0  0  0  0  0  0  0  0999 V3000
M  V30 BEGIN CTAB
M  V30 COUNTS 61 64 0 0 0
M  V30 BEGIN ATOM
M  V30 1 C -2.400619 -1.915721 3.919547 0
M  V30 2 C -1.142889 -2.021649 3.092983 0
M  V30 3 C -0.135245 -1.221369 3.656356 0
M  V30 4 C 1.093917 -1.196619 3.026347 0
M  V30 5 N 2.225638 -0.428538 3.478557 0
M  V30 6 C 2.225328 0.889119 2.898341 0
M  V30 7 O 1.298408 1.187270 2.123454 0
M  V30 8 N 3.225652 1.825780 3.180811 0
M  V30 9 C 3.283886 3.143979 2.643114 0
M  V30 10 C 2.430295 3.790889 1.773251 0
M  V30 11 C 2.899619 5.066996 1.535245 0
M  V30 12 C 2.310377 6.138786 0.660520 0
M  V30 13 C 2.836240 6.046962 -0.739588 0
M  V30 14 C 2.613033 7.492199 1.260413 0
M  V30 15 C 0.813003 5.922888 0.613772 0
M  V30 16 O 4.001749 5.157376 2.251950 0
M  V30 17 N 4.238113 4.056693 2.897271 0
M  V30 18 C 1.361238 -1.919113 1.881664 0
M  V30 19 C 0.329576 -2.683207 1.381523 0
M  V30 20 C -0.925860 -2.778740 1.927754 0
M  V30 21 O -2.062194 -3.422568 1.651178 0
M  V30 22 C -2.546163 -4.269626 0.747462 0
M  V30 23 C -2.100365 -4.911394 -0.364661 0
M  V30 24 C -2.846131 -5.755008 -1.125525 0
M  V30 25 N -2.340670 -6.395866 -2.263205 0
M  V30 26 C -3.195511 -7.283212 -3.052853 0
M  V30 27 C -3.131174 -6.753715 -4.469325 0
M  V30 28 O -1.829801 -6.733370 -4.954712 0
M  V30 29 C -1.083776 -5.793593 -4.218330 0
M  V30 30 C -1.006447 -6.296486 -2.795902 0
M  V30 31 N -4.115875 -5.966782 -0.747068 0
M  V30 32 C -4.620356 -5.370007 0.334235 0
M  V30 33 N -3.852057 -4.538556 1.066859 0
M  V30 34 H -3.158155 -2.607671 3.523944 0
M  V30 35 H -2.824319 -0.895109 3.817419 0
M  V30 36 H -2.140353 -2.210096 4.941767 0
M  V30 37 H -0.214583 -0.611865 4.543244 0
M  V30 38 H 2.986818 -0.716631 4.137158 0
M  V30 39 H 3.969347 1.507007 3.837507 0
M  V30 40 H 1.533395 3.366845 1.343798 0
M  V30 41 H 3.709870 6.669125 -0.956127 0
M  V30 42 H 3.009667 4.982639 -1.046910 0
M  V30 43 H 2.017079 6.407435 -1.428643 0
M  V30 44 H 2.382513 8.255653 0.495400 0
M  V30 45 H 3.694533 7.534058 1.526814 0
M  V30 46 H 1.947811 7.672036 2.132556 0
M  V30 47 H 0.380734 5.739563 1.618042 0
M  V30 48 H 0.286743 6.838517 0.236103 0
M  V30 49 H 0.543384 5.099959 -0.066403 0
M  V30 50 H 2.295724 -1.937902 1.350609 0
M  V30 51 H 0.431450 -3.280314 0.499553 0
M  V30 52 H -1.081925 -4.686104 -0.592762 0
M  V30 53 H -2.803796 -8.321188 -3.015456 0
M  V30 54 H -4.255006 -7.194705 -2.736850 0
M  V30 55 H -3.533667 -5.714193 -4.467673 0
M  V30 56 H -3.729769 -7.429333 -5.137263 0
M  V30 57 H -1.655673 -4.843264 -4.201982 0
M  V30 58 H -0.074114 -5.667176 -4.668350 0
M  V30 59 H -0.624583 -7.355524 -2.882562 0
M  V30 60 H -0.310169 -5.704663 -2.177384 0
M  V30 61 H -5.661706 -5.621511 0.538445 0
M  V30 END ATOM
M  V30 BEGIN BOND
M  V30 1 1 1 2
M  V30 2 2 2 3
M  V30 3 1 3 4
M  V30 4 1 4 5
M  V30 5 1 5 6
M  V30 6 2 6 7
M  V30 7 1 6 8
M  V30 8 1 8 9
M  V30 9 1 9 10
M  V30 10 2 10 11
M  V30 11 1 11 12
M  V30 12 1 12 13
M  V30 13 1 12 14
M  V30 14 1 12 15
M  V30 15 1 11 16
M  V30 16 1 16 17
M  V30 17 2 4 18
M  V30 18 1 18 19
M  V30 19 2 19 20
M  V30 20 1 20 21
M  V30 21 1 21 22
M  V30 22 2 22 23
M  V30 23 1 23 24
M  V30 24 1 24 25
M  V30 25 1 25 26
M  V30 26 1 26 27
M  V30 27 1 27 28
M  V30 28 1 28 29
M  V30 29 1 29 30
M  V30 30 2 24 31
M  V30 31 1 31 32
M  V30 32 2 32 33
M  V30 33 1 20 2
M  V30 34 1 33 22
M  V30 35 2 17 9
M  V30 36 1 30 25
M  V30 37 1 1 34
M  V30 38 1 1 35
M  V30 39 1 1 36
M  V30 40 1 3 37
M  V30 41 1 5 38
M  V30 42 1 8 39
M  V30 43 1 10 40
M  V30 44 1 13 41
M  V30 45 1 13 42
M  V30 46 1 13 43
M  V30 47 1 14 44
M  V30 48 1 14 45
M  V30 49 1 14 46
M  V30 50 1 15 47
M  V30 51 1 15 48
M  V30 52 1 15 49
M  V30 53 1 18 50
M  V30 54 1 19 51
M  V30 55 1 23 52
M  V30 56 1 26 53
M  V30 57 1 26 54
M  V30 58 1 27 55
M  V30 59 1 27 56
M  V30 60 1 29 57
M  V30 61 1 29 58
M  V30 62 1 30 59
M  V30 63 1 30 60
M  V30 64 1 32 61
M  V30 END BOND
M  V30 END CTAB
M  END
>  <Dataset>  (996) 
ChEMBL_Kinases

>  <Ligand_Instance>  (996) 
nan

>  <PDB_ID>  (996) 
nan

>  <Standardized_SMILES>  (996) 
Cc1cc(NC(=O)Nc2cc(C(C)(C)C)on2)ccc1Oc1cc(N2CCOCC2)ncn1

>  <Name>  (996) 
nan

>  <Pocket>  (996) 
nan

>  <ATP_Site>  (996) 
nan

>  <Peripheral>  (996) 
nan

>  <Num_H_Atoms_ProtBoundConf>  (996) 
nan

>  <Num_Resolved_Atoms>  (996) 
nan

>  <Num_Not_Resolved_Atoms>  (996) 
nan

$$$$
CHEMBL4082041
     RDKit          3D

  0  0  0  0  0  0  0  0  0  0999 V3000
M  V30 BEGIN CTAB
M  V30 COUNTS 31 32 0 0 0
M  V30 BEGIN ATOM
M  V30 1 N -2.309549 2.247965 4.482355 0
M  V30 2 C -2.826287 1.055927 3.846230 0
M  V30 3 C -1.932351 0.517801 2.785666 0
M  V30 4 C -0.954303 -0.411637 3.089128 0
M  V30 5 C -0.113654 -0.924453 2.122884 0
M  V30 6 C -0.233638 -0.513660 0.812324 0
M  V30 7 O 0.469605 -0.865283 -0.328012 0
M  V30 8 C 1.522534 -1.770240 -0.411398 0
M  V30 9 C 2.806109 -1.141253 -0.912793 0
M  V30 10 C 2.909345 -1.506752 -2.361597 0
M  V30 11 C 2.142888 -2.786416 -2.545243 0
M  V30 12 C 1.285089 -2.919710 -1.329498 0
M  V30 13 C -1.222101 0.427840 0.496200 0
M  V30 14 Cl -1.539202 1.079331 -1.104296 0
M  V30 15 C -2.070513 0.948191 1.459418 0
M  V30 16 H -1.264976 2.298247 4.410726 0
M  V30 17 H -2.511306 2.255759 5.518867 0
M  V30 18 H -3.026215 0.315208 4.653688 0
M  V30 19 H -3.833233 1.306948 3.438498 0
M  V30 20 H -0.806929 -0.775999 4.097423 0
M  V30 21 H 0.672317 -1.643441 2.247249 0
M  V30 22 H 1.727830 -2.184965 0.596979 0
M  V30 23 H 3.699685 -1.532982 -0.381402 0
M  V30 24 H 2.813816 -0.040485 -0.746463 0
M  V30 25 H 2.456572 -0.719056 -3.016397 0
M  V30 26 H 3.956738 -1.638923 -2.702575 0
M  V30 27 H 1.537043 -2.724953 -3.477926 0
M  V30 28 H 2.877723 -3.616346 -2.616192 0
M  V30 29 H 1.528132 -3.905983 -0.840355 0
M  V30 30 H 0.234507 -3.018041 -1.663243 0
M  V30 31 H -2.841040 1.663049 1.295219 0
M  V30 END ATOM
M  V30 BEGIN BOND
M  V30 1 1 1 2
M  V30 2 1 2 3
M  V30 3 2 3 4
M  V30 4 1 4 5
M  V30 5 2 5 6
M  V30 6 1 6 7
M  V30 7 1 7 8
M  V30 8 1 8 9
M  V30 9 1 9 10
M  V30 10 1 10 11
M  V30 11 1 11 12
M  V30 12 1 6 13
M  V30 13 1 13 14
M  V30 14 2 13 15
M  V30 15 1 15 3
M  V30 16 1 12 8
M  V30 17 1 1 16
M  V30 18 1 1 17
M  V30 19 1 2 18
M  V30 20 1 2 19
M  V30 21 1 4 20
M  V30 22 1 5 21
M  V30 23 1 8 22
M  V30 24 1 9 23
M  V30 25 1 9 24
M  V30 26 1 10 25
M  V30 27 1 10 26
M  V30 28 1 11 27
M  V30 29 1 11 28
M  V30 30 1 12 29
M  V30 31 1 12 30
M  V30 32 1 15 31
M  V30 END BOND
M  V30 END CTAB
M  END
>  <Dataset>  (997) 
ChEMBL_Kinases

>  <Ligand_Instance>  (997) 
nan

>  <PDB_ID>  (997) 
nan

>  <Standardized_SMILES>  (997) 
NCc1ccc(OC2CCCC2)c(Cl)c1

>  <Name>  (997) 
nan

>  <Pocket>  (997) 
nan

>  <ATP_Site>  (997) 
nan

>  <Peripheral>  (997) 
nan

>  <Num_H_Atoms_ProtBoundConf>  (997) 
nan

>  <Num_Resolved_Atoms>  (997) 
nan

>  <Num_Not_Resolved_Atoms>  (997) 
nan

$$$$
CHEMBL4854392
     RDKit          3D

  0  0  0  0  0  0  0  0  0  0999 V3000
M  V30 BEGIN CTAB
M  V30 COUNTS 53 58 0 0 0
M  V30 BEGIN ATOM
M  V30 1 C 4.872760 1.866265 4.273447 0
M  V30 2 O 3.501350 1.578571 3.959959 0
M  V30 3 C 3.198819 0.761196 2.852214 0
M  V30 4 N 4.229754 0.263616 2.106049 0
M  V30 5 C 3.883526 -0.510952 1.062801 0
M  V30 6 C 2.548613 -0.747199 0.818967 0
M  V30 7 C 1.516156 -0.242058 1.574605 0
M  V30 8 C 1.830437 0.549638 2.643340 0
M  V30 9 N 0.912506 1.160868 3.531821 0
M  V30 10 S -0.284590 2.394576 3.595677 0
M  V30 11 O -0.835809 2.436395 4.993059 0
M  V30 12 O 0.384001 3.720142 3.287546 0
M  V30 13 C -1.621307 2.126352 2.522428 0
M  V30 14 C -2.288847 3.270432 2.139518 0
M  V30 15 C -3.387481 3.309802 1.288438 0
M  V30 16 C -3.813249 2.063420 0.807188 0
M  V30 17 C -3.138418 0.917412 1.195183 0
M  V30 18 C -2.054116 0.913268 2.039932 0
M  V30 19 C -3.732856 -0.246561 0.579424 0
M  V30 20 O -4.950146 -0.483177 0.414446 0
M  V30 21 N -3.442409 -1.477248 -0.039412 0
M  V30 22 C -4.265733 -2.525448 -0.605033 0
M  V30 23 C -3.305543 -3.543709 -1.109683 0
M  V30 24 C -2.128660 -3.197397 -1.645099 0
M  V30 25 C -1.311627 -4.185185 -2.082422 0
M  V30 26 C -1.732076 -5.508914 -1.955167 0
M  V30 27 S -3.405872 -5.315718 -1.156633 0
M  V30 28 C -0.013550 -4.041952 -2.690146 0
M  V30 29 N 0.503713 -4.545726 -3.797878 0
M  V30 30 C 1.772571 -4.229175 -4.113239 0
M  V30 31 N 2.638314 -3.446409 -3.451246 0
M  V30 32 C 2.283431 -2.851653 -2.305269 0
M  V30 33 C 2.856041 -2.035602 -1.397001 0
M  V30 34 C 2.233470 -1.586377 -0.298890 0
M  V30 35 S 0.610949 -2.297097 -0.373928 0
M  V30 36 C 0.967918 -3.144719 -1.924031 0
M  V30 37 H 5.002289 2.859033 4.734661 0
M  V30 38 H 5.213115 1.037710 4.947369 0
M  V30 39 H 5.494450 1.824754 3.349789 0
M  V30 40 H 4.646471 -0.929780 0.441213 0
M  V30 41 H 0.505188 -0.451704 1.346542 0
M  V30 42 H 1.145021 0.586819 4.398167 0
M  V30 43 H -2.000621 4.277240 2.484648 0
M  V30 44 H -3.882758 4.230132 1.013156 0
M  V30 45 H -4.675817 2.083068 0.140364 0
M  V30 46 H -1.657506 -0.048836 2.238788 0
M  V30 47 H -2.412876 -1.373803 0.050544 0
M  V30 48 H -4.873680 -3.024981 0.185848 0
M  V30 49 H -4.913740 -2.181240 -1.431205 0
M  V30 50 H -1.777904 -2.183767 -1.756123 0
M  V30 51 H -1.333367 -6.500509 -2.198580 0
M  V30 52 H 2.196247 -4.654146 -5.039627 0
M  V30 53 H 3.879511 -1.733651 -1.578918 0
M  V30 END ATOM
M  V30 BEGIN BOND
M  V30 1 1 1 2
M  V30 2 1 2 3
M  V30 3 2 3 4
M  V30 4 1 4 5
M  V30 5 2 5 6
M  V30 6 1 6 7
M  V30 7 2 7 8
M  V30 8 1 8 9
M  V30 9 1 9 10
M  V30 10 2 10 11
M  V30 11 2 10 12
M  V30 12 1 10 13
M  V30 13 2 13 14
M  V30 14 1 14 15
M  V30 15 2 15 16
M  V30 16 1 16 17
M  V30 17 2 17 18
M  V30 18 1 17 19
M  V30 19 2 19 20
M  V30 20 1 19 21
M  V30 21 1 21 22
M  V30 22 1 22 23
M  V30 23 2 23 24
M  V30 24 1 24 25
M  V30 25 2 25 26
M  V30 26 1 26 27
M  V30 27 1 25 28
M  V30 28 1 28 29
M  V30 29 2 29 30
M  V30 30 1 30 31
M  V30 31 2 31 32
M  V30 32 1 32 33
M  V30 33 2 33 34
M  V30 34 1 34 35
M  V30 35 1 35 36
M  V30 36 1 8 3
M  V30 37 1 18 13
M  V30 38 1 27 23
M  V30 39 2 36 28
M  V30 40 1 34 6
M  V30 41 1 36 32
M  V30 42 1 1 37
M  V30 43 1 1 38
M  V30 44 1 1 39
M  V30 45 1 5 40
M  V30 46 1 7 41
M  V30 47 1 9 42
M  V30 48 1 14 43
M  V30 49 1 15 44
M  V30 50 1 16 45
M  V30 51 1 18 46
M  V30 52 1 21 47
M  V30 53 1 22 48
M  V30 54 1 22 49
M  V30 55 1 24 50
M  V30 56 1 26 51
M  V30 57 1 30 52
M  V30 58 1 33 53
M  V30 END BOND
M  V30 END CTAB
M  END
>  <Dataset>  (998) 
ChEMBL_Kinases

>  <Ligand_Instance>  (998) 
nan

>  <PDB_ID>  (998) 
nan

>  <Standardized_SMILES>  (998) 
COc1ncc2cc1NS(=O)(=O)c1cccc(c1)C(=O)NCc1cc(cs1)-c1ncnc3cc-2sc13

>  <Name>  (998) 
nan

>  <Pocket>  (998) 
nan

>  <ATP_Site>  (998) 
nan

>  <Peripheral>  (998) 
nan

>  <Num_H_Atoms_ProtBoundConf>  (998) 
nan

>  <Num_Resolved_Atoms>  (998) 
nan

>  <Num_Not_Resolved_Atoms>  (998) 
nan

$$$$
CHEMBL4080488
     RDKit          3D

  0  0  0  0  0  0  0  0  0  0999 V3000
M  V30 BEGIN CTAB
M  V30 COUNTS 27 29 0 0 0
M  V30 BEGIN ATOM
M  V30 1 C 0.220610 -1.675171 4.892001 0
M  V30 2 C 0.788354 -1.237570 3.586694 0
M  V30 3 C -0.037345 -0.797307 2.574506 0
M  V30 4 C 0.542270 -0.396220 1.365283 0
M  V30 5 C -0.263392 0.082359 0.245278 0
M  V30 6 C -1.297660 0.985532 0.388851 0
M  V30 7 N -1.792827 1.179805 -0.847001 0
M  V30 8 C -1.101212 0.433273 -1.724140 0
M  V30 9 C -1.163819 0.233520 -3.109168 0
M  V30 10 N -0.328864 -0.594407 -3.766194 0
M  V30 11 C 0.632466 -1.294791 -3.137558 0
M  V30 12 C 0.740266 -1.135734 -1.765552 0
M  V30 13 C -0.104548 -0.293018 -1.073328 0
M  V30 14 C 1.919414 -0.483546 1.304515 0
M  V30 15 C 2.730775 -0.926935 2.328247 0
M  V30 16 N 2.127854 -1.306622 3.484621 0
M  V30 17 H 0.770198 -1.093130 5.672733 0
M  V30 18 H -0.858795 -1.519185 4.900346 0
M  V30 19 H 0.512008 -2.735691 5.094522 0
M  V30 20 H -1.105380 -0.756815 2.695310 0
M  V30 21 H -1.620480 1.428215 1.314577 0
M  V30 22 H -2.594899 1.809242 -1.124474 0
M  V30 23 H -1.929151 0.780007 -3.670432 0
M  V30 24 H 1.334280 -1.975091 -3.604373 0
M  V30 25 H 1.489402 -1.672017 -1.223336 0
M  V30 26 H 2.446974 -0.193032 0.405617 0
M  V30 27 H 3.789159 -0.990038 2.270689 0
M  V30 END ATOM
M  V30 BEGIN BOND
M  V30 1 1 1 2
M  V30 2 2 2 3
M  V30 3 1 3 4
M  V30 4 1 4 5
M  V30 5 2 5 6
M  V30 6 1 6 7
M  V30 7 1 7 8
M  V30 8 2 8 9
M  V30 9 1 9 10
M  V30 10 2 10 11
M  V30 11 1 11 12
M  V30 12 2 12 13
M  V30 13 2 4 14
M  V30 14 1 14 15
M  V30 15 2 15 16
M  V30 16 1 16 2
M  V30 17 1 13 5
M  V30 18 1 13 8
M  V30 19 1 1 17
M  V30 20 1 1 18
M  V30 21 1 1 19
M  V30 22 1 3 20
M  V30 23 1 6 21
M  V30 24 1 7 22
M  V30 25 1 9 23
M  V30 26 1 11 24
M  V30 27 1 12 25
M  V30 28 1 14 26
M  V30 29 1 15 27
M  V30 END BOND
M  V30 END CTAB
M  END
>  <Dataset>  (999) 
ChEMBL_Kinases

>  <Ligand_Instance>  (999) 
nan

>  <PDB_ID>  (999) 
nan

>  <Standardized_SMILES>  (999) 
Cc1cc(-c2c[nH]c3cnccc23)ccn1

>  <Name>  (999) 
nan

>  <Pocket>  (999) 
nan

>  <ATP_Site>  (999) 
nan

>  <Peripheral>  (999) 
nan

>  <Num_H_Atoms_ProtBoundConf>  (999) 
nan

>  <Num_Resolved_Atoms>  (999) 
nan

>  <Num_Not_Resolved_Atoms>  (999) 
nan

$$$$
